TITL C-2848504-8560-435 -0.00265956354827523 125000 -996.94674267285 0 0 184 (C1) n - 1
REM
REM in /home/bkarasulu/work/CARBON/AIRSS/Generating-Clusters/AIREBO/with-SteepDescent/Only-C1/SD-CG-opt/Try1-1.4A-POS3A/HFTN-CG
REM
REM
REM
REM
REM
REM ./C.cell (11c1c37f851c82e70ff6c80c92926a4b)
REM
REM compiler GCC version 9.2.1 20190827 (Red Hat 9.2.1-1)
REM options -cpp -mtune=generic -march=x86-64 -g -O0 -fpre-include=/usr/include/finclude/math-vector-fortran.h
REM seed 756061001 1516863072 1617133293 877725495 233503194 516909849 -1364835036 -2004231540 -1035190474 816622537 1081569004 -436346482 -1768886460 508008710 1109429384 -343435335 263849208 1291820360 1511289374 1892265005 336917040 293728055 1143899394 -261053672 272744173 -257959676 745477651 -1321340363 -1203258951 -1011186009 -1828063959 -1872079038 -604438694
REM
CELL 1.54180   50.00000   50.00000   50.00000   90.00000   90.00000   90.00000
LATT -1
SFAC C  
C      1  0.5044530000000  0.4359110000000  0.4767610000000 1.0
C      1  0.5683140000000  0.4804980000000  0.5747750000000 1.0
C      1  0.5412250000000  0.4030230000000  0.5538580000000 1.0
C      1  0.4368510000000  0.5866390000000  0.4815370000000 1.0
C      1  0.5124000000000  0.5630430000000  0.4474800000000 1.0
C      1  0.5623240000000  0.4851180000000  0.4989330000000 1.0
C      1  0.3776740000000  0.5208450000000  0.5085570000000 1.0
C      1  0.5893430000000  0.4835680000000  0.5524080000000 1.0
C      1  0.4226730000000  0.5066920000000  0.4568950000000 1.0
C      1  0.5350410000000  0.6112700000000  0.5086250000000 1.0
C      1  0.5448590000000  0.5594850000000  0.5198680000000 1.0
C      1  0.5219240000000  0.5574150000000  0.5976000000000 1.0
C      1  0.4698640000000  0.4592990000000  0.4321460000000 1.0
C      1  0.5007660000000  0.5090040000000  0.4454520000000 1.0
C      1  0.4548620000000  0.5073090000000  0.4678630000000 1.0
C      1  0.5981680000000  0.4641740000000  0.5342370000000 1.0
C      1  0.4774360000000  0.6126270000000  0.4938400000000 1.0
C      1  0.5722490000000  0.4139770000000  0.4687410000000 1.0
C      1  0.5532160000000  0.5109010000000  0.5301030000000 1.0
C      1  0.5862930000000  0.4614990000000  0.5024810000000 1.0
C      1  0.5147720000000  0.6044120000000  0.4822010000000 1.0
C      1  0.4453040000000  0.4525160000000  0.4532750000000 1.0
C      1  0.5635800000000  0.5813200000000  0.5322900000000 1.0
C      1  0.5405010000000  0.4841510000000  0.5340980000000 1.0
C      1  0.5188440000000  0.5922210000000  0.4175320000000 1.0
C      1  0.4216820000000  0.4335500000000  0.4374060000000 1.0
C      1  0.5527510000000  0.4483790000000  0.4659430000000 1.0
C      1  0.5853320000000  0.5092520000000  0.5371880000000 1.0
C      1  0.4585670000000  0.5921930000000  0.5298320000000 1.0
C      1  0.5425390000000  0.5853180000000  0.4310570000000 1.0
C      1  0.4709080000000  0.5864300000000  0.4829580000000 1.0
C      1  0.4410440000000  0.5994410000000  0.4320980000000 1.0
C      1  0.5902320000000  0.5646680000000  0.4836150000000 1.0
C      1  0.5021430000000  0.5730720000000  0.4783170000000 1.0
C      1  0.5843640000000  0.5375680000000  0.4801310000000 1.0
C      1  0.4936030000000  0.5567380000000  0.5216040000000 1.0
C      1  0.5915150000000  0.5815540000000  0.4598530000000 1.0
C      1  0.4931000000000  0.5428410000000  0.6002540000000 1.0
C      1  0.5032210000000  0.6111090000000  0.5135560000000 1.0
C      1  0.4863970000000  0.4239630000000  0.5303690000000 1.0
C      1  0.4634500000000  0.5072680000000  0.5272240000000 1.0
C      1  0.4846800000000  0.5122180000000  0.3891660000000 1.0
C      1  0.5115960000000  0.4732890000000  0.5748420000000 1.0
C      1  0.5140090000000  0.5184680000000  0.5950450000000 1.0
C      1  0.5277500000000  0.4491240000000  0.6258280000000 1.0
C      1  0.4919930000000  0.4606340000000  0.4579410000000 1.0
C      1  0.4133960000000  0.5473610000000  0.5632820000000 1.0
C      1  0.4356490000000  0.4023230000000  0.4840380000000 1.0
C      1  0.3968920000000  0.5430090000000  0.4989220000000 1.0
C      1  0.5562410000000  0.5570160000000  0.4195760000000 1.0
C      1  0.4101430000000  0.5656700000000  0.4833350000000 1.0
C      1  0.5072740000000  0.4020890000000  0.5555200000000 1.0
C      1  0.4862260000000  0.5368320000000  0.4323930000000 1.0
C      1  0.4332880000000  0.5475560000000  0.5846890000000 1.0
C      1  0.5620350000000  0.5195520000000  0.4984200000000 1.0
C      1  0.5740400000000  0.5433060000000  0.5195990000000 1.0
C      1  0.4658320000000  0.5452130000000  0.5312090000000 1.0
C      1  0.5495310000000  0.4084620000000  0.4936740000000 1.0
C      1  0.4492230000000  0.4478660000000  0.5040220000000 1.0
C      1  0.4811840000000  0.5491030000000  0.5715620000000 1.0
C      1  0.5345060000000  0.5349390000000  0.4855320000000 1.0
C      1  0.5634150000000  0.4475300000000  0.5778020000000 1.0
C      1  0.4245540000000  0.5867070000000  0.4525810000000 1.0
C      1  0.4987350000000  0.5041120000000  0.5682750000000 1.0
C      1  0.3998080000000  0.4926630000000  0.4788080000000 1.0
C      1  0.5037000000000  0.5103360000000  0.4794850000000 1.0
C      1  0.4462060000000  0.5763630000000  0.5493170000000 1.0
C      1  0.5004500000000  0.4066860000000  0.4681720000000 1.0
C      1  0.4411530000000  0.4212520000000  0.5195420000000 1.0
C      1  0.4746540000000  0.4816790000000  0.3855130000000 1.0
C      1  0.4544360000000  0.4789390000000  0.5356160000000 1.0
C      1  0.5846550000000  0.4457900000000  0.4722450000000 1.0
C      1  0.5050810000000  0.4803440000000  0.3976830000000 1.0
C      1  0.4230180000000  0.4724610000000  0.5721970000000 1.0
C      1  0.4325620000000  0.4985910000000  0.5863560000000 1.0
C      1  0.6050740000000  0.5351760000000  0.5142400000000 1.0
C      1  0.5570750000000  0.6065260000000  0.5220850000000 1.0
C      1  0.5694140000000  0.4351210000000  0.5157250000000 1.0
C      1  0.4358300000000  0.4437570000000  0.5623300000000 1.0
C      1  0.4167310000000  0.5163660000000  0.5061830000000 1.0
C      1  0.5187370000000  0.5106890000000  0.3932900000000 1.0
C      1  0.5924980000000  0.5057460000000  0.4340160000000 1.0
C      1  0.5333860000000  0.5482280000000  0.5727500000000 1.0
C      1  0.4557580000000  0.5768350000000  0.4195640000000 1.0
C      1  0.4725050000000  0.5343980000000  0.4765440000000 1.0
C      1  0.5328980000000  0.5669480000000  0.4927900000000 1.0
C      1  0.5527710000000  0.5095080000000  0.3940840000000 1.0
C      1  0.6083190000000  0.5059000000000  0.5126230000000 1.0
C      1  0.4254280000000  0.5586900000000  0.5395410000000 1.0
C      1  0.5024120000000  0.4669780000000  0.6342220000000 1.0
C      1  0.4669730000000  0.4300370000000  0.5625530000000 1.0
C      1  0.4619870000000  0.5060750000000  0.4361060000000 1.0
C      1  0.4700250000000  0.5244640000000  0.4103430000000 1.0
C      1  0.5702810000000  0.5314830000000  0.4350700000000 1.0
C      1  0.5083150000000  0.4252120000000  0.4126200000000 1.0
C      1  0.3942660000000  0.4909660000000  0.5090260000000 1.0
C      1  0.5327980000000  0.4698320000000  0.5061110000000 1.0
C      1  0.4785460000000  0.4992680000000  0.5947590000000 1.0
C      1  0.5827320000000  0.4096780000000  0.5001790000000 1.0
C      1  0.5569180000000  0.4259960000000  0.5677730000000 1.0
C      1  0.4844170000000  0.3920360000000  0.5243140000000 1.0
C      1  0.4083250000000  0.4597050000000  0.4402650000000 1.0
C      1  0.4646680000000  0.4387410000000  0.4771660000000 1.0
C      1  0.4942630000000  0.4795130000000  0.5376030000000 1.0
C      1  0.5367350000000  0.5296570000000  0.4560750000000 1.0
C      1  0.4452020000000  0.5063840000000  0.5004500000000 1.0
C      1  0.4633780000000  0.5620640000000  0.4649730000000 1.0
C      1  0.5346100000000  0.4249620000000  0.4197100000000 1.0
C      1  0.5233420000000  0.5525080000000  0.4187370000000 1.0
C      1  0.4704900000000  0.4743280000000  0.5059950000000 1.0
C      1  0.4870750000000  0.4380770000000  0.5028450000000 1.0
C      1  0.5127920000000  0.5732610000000  0.3943450000000 1.0
C      1  0.5388630000000  0.5727560000000  0.4624880000000 1.0
C      1  0.4237930000000  0.4738560000000  0.4656780000000 1.0
C      1  0.5365450000000  0.5073630000000  0.6042450000000 1.0
C      1  0.4800140000000  0.5682270000000  0.4384820000000 1.0
C      1  0.6016280000000  0.4550770000000  0.4480180000000 1.0
C      1  0.4160310000000  0.4871390000000  0.4290490000000 1.0
C      1  0.5241250000000  0.3975520000000  0.4572350000000 1.0
C      1  0.5677960000000  0.5616920000000  0.4506380000000 1.0
C      1  0.4262400000000  0.4765520000000  0.5423470000000 1.0
C      1  0.4176090000000  0.5606760000000  0.4423430000000 1.0
C      1  0.5262520000000  0.4921840000000  0.4838830000000 1.0
C      1  0.4713010000000  0.4701770000000  0.5600770000000 1.0
C      1  0.5000630000000  0.6138790000000  0.4558950000000 1.0
C      1  0.4681020000000  0.5231020000000  0.6065410000000 1.0
C      1  0.6058380000000  0.4866110000000  0.4919510000000 1.0
C      1  0.5244920000000  0.3823450000000  0.5750550000000 1.0
C      1  0.4566970000000  0.4301950000000  0.5935510000000 1.0
C      1  0.4421120000000  0.6021030000000  0.5091280000000 1.0
C      1  0.5395210000000  0.4755350000000  0.5624660000000 1.0
C      1  0.5826430000000  0.5699620000000  0.5480330000000 1.0
C      1  0.4754530000000  0.3984110000000  0.5564890000000 1.0
C      1  0.4122480000000  0.4145050000000  0.4896900000000 1.0
C      1  0.5074440000000  0.5479650000000  0.5508000000000 1.0
C      1  0.4342080000000  0.5566530000000  0.4188730000000 1.0
C      1  0.5443770000000  0.4766570000000  0.4621730000000 1.0
C      1  0.4552350000000  0.5644210000000  0.5739080000000 1.0
C      1  0.5555600000000  0.5033280000000  0.4471880000000 1.0
C      1  0.5345820000000  0.3966230000000  0.5211200000000 1.0
C      1  0.4616470000000  0.3984290000000  0.5048300000000 1.0
C      1  0.6005080000000  0.4949510000000  0.4662300000000 1.0
C      1  0.5018400000000  0.5419120000000  0.4920100000000 1.0
C      1  0.4955510000000  0.4482460000000  0.5620030000000 1.0
C      1  0.4730240000000  0.5219740000000  0.5549660000000 1.0
C      1  0.4884300000000  0.5042550000000  0.5070330000000 1.0
C      1  0.4367090000000  0.5421530000000  0.5158070000000 1.0
C      1  0.5460680000000  0.4199570000000  0.4484770000000 1.0
C      1  0.5318400000000  0.5748760000000  0.6159470000000 1.0
C      1  0.5019830000000  0.4637420000000  0.5132500000000 1.0
C      1  0.4831740000000  0.4305940000000  0.4225060000000 1.0
C      1  0.4538910000000  0.4526390000000  0.6046970000000 1.0
C      1  0.5994820000000  0.5248090000000  0.4613060000000 1.0
C      1  0.5141400000000  0.4689790000000  0.6040520000000 1.0
C      1  0.4290910000000  0.4829330000000  0.4043530000000 1.0
C      1  0.4184930000000  0.4378910000000  0.5363910000000 1.0
C      1  0.5572630000000  0.5322800000000  0.5721840000000 1.0
C      1  0.5379960000000  0.4302600000000  0.5247540000000 1.0
C      1  0.5791030000000  0.5378590000000  0.5527780000000 1.0
C      1  0.5313220000000  0.5329580000000  0.5332920000000 1.0
C      1  0.4968590000000  0.5974920000000  0.4344760000000 1.0
C      1  0.6039680000000  0.4738190000000  0.4316950000000 1.0
C      1  0.5150300000000  0.4316510000000  0.5443950000000 1.0
C      1  0.4697730000000  0.4781400000000  0.4734330000000 1.0
C      1  0.4706510000000  0.4225280000000  0.4478510000000 1.0
C      1  0.4591650000000  0.4774630000000  0.5878250000000 1.0
C      1  0.5349600000000  0.4391250000000  0.4916460000000 1.0
C      1  0.4421520000000  0.5426160000000  0.4837800000000 1.0
C      1  0.4549910000000  0.4711570000000  0.4039410000000 1.0
C      1  0.5586710000000  0.5084920000000  0.5870560000000 1.0
C      1  0.5264460000000  0.5192800000000  0.4252750000000 1.0
C      1  0.4156710000000  0.5382770000000  0.4639540000000 1.0
C      1  0.4477930000000  0.3968660000000  0.5420690000000 1.0
C      1  0.5059120000000  0.5104880000000  0.5356330000000 1.0
C      1  0.4855120000000  0.5872460000000  0.5236640000000 1.0
C      1  0.4404730000000  0.5237170000000  0.5987260000000 1.0
C      1  0.4065100000000  0.4355150000000  0.5057010000000 1.0
C      1  0.5105600000000  0.3812100000000  0.5178880000000 1.0
C      1  0.5356160000000  0.4865360000000  0.4253600000000 1.0
C      1  0.4674080000000  0.3994270000000  0.4717320000000 1.0
C      1  0.5142080000000  0.4779430000000  0.4488050000000 1.0
C      1  0.4855750000000  0.4881310000000  0.4233050000000 1.0
C      1  0.4070140000000  0.4660810000000  0.5211980000000 1.0
C      1  0.5760810000000  0.5066970000000  0.4042300000000 1.0
END
