TITL C-2847955-7945-96 0.000573836412858671 125000 -538.972211871095 0 0 103 (C1) n - 1
REM
REM in /home/bkarasulu/work/CARBON/AIRSS/Generating-Clusters/AIREBO/with-SteepDescent/Only-C1/SD-CG-opt/Try1-1.4A-POS3A/HFTN-CG
REM
REM
REM
REM
REM
REM ./C.cell (11c1c37f851c82e70ff6c80c92926a4b)
REM
REM compiler GCC version 9.2.1 20190827 (Red Hat 9.2.1-1)
REM options -cpp -mtune=generic -march=x86-64 -g -O0 -fpre-include=/usr/include/finclude/math-vector-fortran.h
REM seed 424301474 729072156 2136338093 177831698 -1107122697 1303701794 1484807578 1223229826 627822307 946280272 -1448124444 1123138728 -1948876297 -295173430 524596748 186677710 -492102714 767745052 1922485400 87190335 784952583 -2030368672 214219080 -7075433 1878494534 -418135141 -1085655116 376381152 1372963951 1111827428 -1417395970 -503229400 -702078356
REM
CELL 1.54180   50.00000   50.00000   50.00000   90.00000   90.00000   90.00000
LATT -1
SFAC C  
C      1  0.4645230000000  0.5673710000000  0.4627580000000 1.0
C      1  0.5152350000000  0.5159160000000  0.5111030000000 1.0
C      1  0.4338580000000  0.4799640000000  0.5163470000000 1.0
C      1  0.4699890000000  0.4621980000000  0.4715310000000 1.0
C      1  0.5601040000000  0.4296150000000  0.5039170000000 1.0
C      1  0.5104310000000  0.5694550000000  0.5649860000000 1.0
C      1  0.5213030000000  0.4219760000000  0.4528990000000 1.0
C      1  0.4935570000000  0.5785060000000  0.5395330000000 1.0
C      1  0.5660740000000  0.4801750000000  0.5357010000000 1.0
C      1  0.5525380000000  0.4574310000000  0.4933510000000 1.0
C      1  0.4465410000000  0.4635150000000  0.4253040000000 1.0
C      1  0.5452890000000  0.4710280000000  0.5582380000000 1.0
C      1  0.6027380000000  0.5643500000000  0.4868550000000 1.0
C      1  0.4908970000000  0.5750880000000  0.4454440000000 1.0
C      1  0.5176420000000  0.4687720000000  0.4138280000000 1.0
C      1  0.5519960000000  0.5336980000000  0.5272700000000 1.0
C      1  0.4879610000000  0.5295690000000  0.4220990000000 1.0
C      1  0.5578920000000  0.5784350000000  0.4680460000000 1.0
C      1  0.4841980000000  0.5939250000000  0.5150600000000 1.0
C      1  0.5321820000000  0.4534440000000  0.5362870000000 1.0
C      1  0.4520800000000  0.4836470000000  0.4909300000000 1.0
C      1  0.4646950000000  0.5072920000000  0.5859960000000 1.0
C      1  0.5019130000000  0.4349700000000  0.5031520000000 1.0
C      1  0.5597000000000  0.4837760000000  0.4368700000000 1.0
C      1  0.4962840000000  0.4417810000000  0.5913960000000 1.0
C      1  0.4968360000000  0.5071730000000  0.4838650000000 1.0
C      1  0.5039100000000  0.4994310000000  0.4192010000000 1.0
C      1  0.5465130000000  0.4916170000000  0.4736010000000 1.0
C      1  0.4596840000000  0.4851080000000  0.5378610000000 1.0
C      1  0.5706660000000  0.4777890000000  0.5086040000000 1.0
C      1  0.4863490000000  0.3950500000000  0.5559650000000 1.0
C      1  0.5234740000000  0.5483060000000  0.5174430000000 1.0
C      1  0.5109440000000  0.5577340000000  0.4872650000000 1.0
C      1  0.5342490000000  0.5547190000000  0.5483960000000 1.0
C      1  0.4472090000000  0.5542920000000  0.5491330000000 1.0
C      1  0.5274720000000  0.5491510000000  0.4369570000000 1.0
C      1  0.4520090000000  0.4861000000000  0.5709740000000 1.0
C      1  0.4763990000000  0.4299760000000  0.4812360000000 1.0
C      1  0.5717440000000  0.5294000000000  0.5031710000000 1.0
C      1  0.4718660000000  0.4090740000000  0.5076680000000 1.0
C      1  0.4073520000000  0.4991500000000  0.5255970000000 1.0
C      1  0.5792190000000  0.4933390000000  0.4630140000000 1.0
C      1  0.4800000000000  0.5098850000000  0.5492630000000 1.0
C      1  0.4455090000000  0.5328480000000  0.4649650000000 1.0
C      1  0.5558410000000  0.4610800000000  0.4618950000000 1.0
C      1  0.5543330000000  0.5161570000000  0.5722420000000 1.0
C      1  0.5375210000000  0.5958600000000  0.4649270000000 1.0
C      1  0.4028560000000  0.4734280000000  0.5038200000000 1.0
C      1  0.5338820000000  0.5021270000000  0.4335470000000 1.0
C      1  0.5055660000000  0.5198070000000  0.5782930000000 1.0
C      1  0.4478270000000  0.5421070000000  0.4966310000000 1.0
C      1  0.5041340000000  0.4705400000000  0.5906210000000 1.0
C      1  0.4921180000000  0.4967680000000  0.5935640000000 1.0
C      1  0.5758120000000  0.5572470000000  0.4864880000000 1.0
C      1  0.4682440000000  0.4538940000000  0.4385940000000 1.0
C      1  0.5028260000000  0.5452120000000  0.4567120000000 1.0
C      1  0.4778280000000  0.3938030000000  0.5294690000000 1.0
C      1  0.4668880000000  0.5865200000000  0.4862590000000 1.0
C      1  0.4157770000000  0.4998250000000  0.4867190000000 1.0
C      1  0.4889910000000  0.4458640000000  0.5302180000000 1.0
C      1  0.5464330000000  0.4283410000000  0.5320530000000 1.0
C      1  0.4528720000000  0.5594980000000  0.5220850000000 1.0
C      1  0.4320220000000  0.5258240000000  0.4345510000000 1.0
C      1  0.4848430000000  0.5305020000000  0.5156040000000 1.0
C      1  0.4564370000000  0.5162540000000  0.5254340000000 1.0
C      1  0.4217310000000  0.5086770000000  0.4629370000000 1.0
C      1  0.5424930000000  0.5309780000000  0.4286620000000 1.0
C      1  0.5802090000000  0.4993450000000  0.4934160000000 1.0
C      1  0.5335840000000  0.5351300000000  0.5746930000000 1.0
C      1  0.5511010000000  0.5073560000000  0.5428500000000 1.0
C      1  0.5428190000000  0.5161180000000  0.4912130000000 1.0
C      1  0.5423760000000  0.4598890000000  0.4243640000000 1.0
C      1  0.4817510000000  0.5617750000000  0.5042460000000 1.0
C      1  0.4287190000000  0.5191510000000  0.5110010000000 1.0
C      1  0.5280460000000  0.4885730000000  0.5267640000000 1.0
C      1  0.4708400000000  0.4633710000000  0.5695050000000 1.0
C      1  0.5129040000000  0.5850320000000  0.4670860000000 1.0
C      1  0.4646380000000  0.4906660000000  0.4536810000000 1.0
C      1  0.5128730000000  0.4431140000000  0.4720140000000 1.0
C      1  0.3789500000000  0.4829820000000  0.5263860000000 1.0
C      1  0.5182470000000  0.4932010000000  0.4614490000000 1.0
C      1  0.4859390000000  0.5171690000000  0.4532440000000 1.0
C      1  0.4885750000000  0.4188680000000  0.5711310000000 1.0
C      1  0.4616760000000  0.5447090000000  0.4374980000000 1.0
C      1  0.4733110000000  0.4928010000000  0.4209080000000 1.0
C      1  0.4781350000000  0.4411270000000  0.5550260000000 1.0
C      1  0.5087330000000  0.4656080000000  0.4577270000000 1.0
C      1  0.4925980000000  0.4762080000000  0.4927290000000 1.0
C      1  0.4935760000000  0.5588010000000  0.4180690000000 1.0
C      1  0.5432390000000  0.5480820000000  0.4827000000000 1.0
C      1  0.4635210000000  0.5135170000000  0.4863790000000 1.0
C      1  0.4825290000000  0.4714790000000  0.5214840000000 1.0
C      1  0.4859610000000  0.5486680000000  0.5416560000000 1.0
C      1  0.5447970000000  0.4352010000000  0.4427240000000 1.0
C      1  0.5319540000000  0.4722360000000  0.5824920000000 1.0
C      1  0.4954860000000  0.5512850000000  0.5822430000000 1.0
C      1  0.4406660000000  0.4957360000000  0.4303160000000 1.0
C      1  0.4951660000000  0.4614720000000  0.4327270000000 1.0
C      1  0.4686940000000  0.5358940000000  0.5680220000000 1.0
C      1  0.5532870000000  0.4005350000000  0.5168520000000 1.0
C      1  0.5101920000000  0.5170560000000  0.5447180000000 1.0
C      1  0.4954490000000  0.4085790000000  0.4627400000000 1.0
C      1  0.5211590000000  0.4629110000000  0.5055440000000 1.0
END
