TITL C-2847944-5688-499 -0.00452182819985658 125000 -826.95978318636 0 0 154 (C1) n - 1
REM
REM in /home/bkarasulu/work/CARBON/AIRSS/Generating-Clusters/AIREBO/with-SteepDescent/Only-C1/SD-CG-opt/Try1-1.4A-POS3A/HFTN-CG
REM
REM
REM
REM
REM
REM ./C.cell (11c1c37f851c82e70ff6c80c92926a4b)
REM
REM compiler GCC version 9.2.1 20190827 (Red Hat 9.2.1-1)
REM options -cpp -mtune=generic -march=x86-64 -g -O0 -fpre-include=/usr/include/finclude/math-vector-fortran.h
REM seed 394678442 730018995 -312168803 1220238351 538980145 -1997679553 -1553684257 -247138521 40076957 1306253040 -1202407279 11065528 -1339426928 -232703145 -1669712922 -1945437789 -2037859745 -1905737395 -679420727 720178189 900240372 326523651 -2029163957 -1512737010 -2040015447 1925418504 -1773148578 526748223 -1959620311 1328742738 624833244 1283626999 -1727864726
REM
CELL 1.54180   50.00000   50.00000   50.00000   90.00000   90.00000   90.00000
LATT -1
SFAC C  
C      1  0.4457870000000  0.5285480000000  0.5318140000000 1.0
C      1  0.4374300000000  0.5510550000000  0.5706730000000 1.0
C      1  0.5981790000000  0.5112340000000  0.5050390000000 1.0
C      1  0.4910360000000  0.3996920000000  0.5310000000000 1.0
C      1  0.5790630000000  0.4501150000000  0.4890050000000 1.0
C      1  0.5349280000000  0.5003100000000  0.4587040000000 1.0
C      1  0.5082920000000  0.4649900000000  0.4794400000000 1.0
C      1  0.4671680000000  0.4920750000000  0.4576740000000 1.0
C      1  0.5415230000000  0.5106180000000  0.5327560000000 1.0
C      1  0.4738800000000  0.4679460000000  0.4260520000000 1.0
C      1  0.4533510000000  0.5469060000000  0.4603440000000 1.0
C      1  0.4340380000000  0.4848840000000  0.4962910000000 1.0
C      1  0.5404850000000  0.5970830000000  0.5411230000000 1.0
C      1  0.4671370000000  0.5610280000000  0.5084840000000 1.0
C      1  0.5343060000000  0.4796050000000  0.4118250000000 1.0
C      1  0.5341060000000  0.5668810000000  0.5333310000000 1.0
C      1  0.4626980000000  0.5137380000000  0.5986580000000 1.0
C      1  0.4469810000000  0.4694280000000  0.4574160000000 1.0
C      1  0.5656570000000  0.4607960000000  0.4301340000000 1.0
C      1  0.5791250000000  0.5437360000000  0.4918570000000 1.0
C      1  0.5306800000000  0.4289800000000  0.4321230000000 1.0
C      1  0.5289260000000  0.4436530000000  0.4627580000000 1.0
C      1  0.5436320000000  0.4876390000000  0.5577600000000 1.0
C      1  0.4741090000000  0.4433500000000  0.4447320000000 1.0
C      1  0.5118260000000  0.4093050000000  0.5498200000000 1.0
C      1  0.5674610000000  0.4738180000000  0.5067630000000 1.0
C      1  0.5083570000000  0.5109710000000  0.4019640000000 1.0
C      1  0.4828010000000  0.5006680000000  0.4218930000000 1.0
C      1  0.4745580000000  0.5356550000000  0.4925410000000 1.0
C      1  0.4341160000000  0.5550600000000  0.5139850000000 1.0
C      1  0.5065210000000  0.4768770000000  0.4227010000000 1.0
C      1  0.4755500000000  0.4828300000000  0.5512570000000 1.0
C      1  0.5480920000000  0.4561500000000  0.4013920000000 1.0
C      1  0.4344060000000  0.4369500000000  0.5483650000000 1.0
C      1  0.5880820000000  0.4906780000000  0.5214370000000 1.0
C      1  0.5282250000000  0.5261920000000  0.4042800000000 1.0
C      1  0.5158700000000  0.3839090000000  0.4629930000000 1.0
C      1  0.4146390000000  0.4900660000000  0.5557010000000 1.0
C      1  0.4656130000000  0.5546420000000  0.5412710000000 1.0
C      1  0.4410010000000  0.4303450000000  0.4956550000000 1.0
C      1  0.5834610000000  0.4979460000000  0.5536970000000 1.0
C      1  0.4723790000000  0.5230700000000  0.4452750000000 1.0
C      1  0.5445150000000  0.5813240000000  0.4300760000000 1.0
C      1  0.4429940000000  0.4790820000000  0.4173090000000 1.0
C      1  0.4630100000000  0.4721600000000  0.4982850000000 1.0
C      1  0.5750000000000  0.5324580000000  0.4607650000000 1.0
C      1  0.4596740000000  0.4043150000000  0.4717830000000 1.0
C      1  0.5356250000000  0.4177200000000  0.5370810000000 1.0
C      1  0.4644910000000  0.5641970000000  0.5798410000000 1.0
C      1  0.5528120000000  0.4978240000000  0.4230520000000 1.0
C      1  0.6237090000000  0.4450810000000  0.4671130000000 1.0
C      1  0.4717990000000  0.4063150000000  0.5036810000000 1.0
C      1  0.4345000000000  0.4902430000000  0.5833080000000 1.0
C      1  0.5353800000000  0.4569150000000  0.5443500000000 1.0
C      1  0.5010360000000  0.5464600000000  0.5239290000000 1.0
C      1  0.5043540000000  0.5306970000000  0.4364540000000 1.0
C      1  0.4919070000000  0.5557100000000  0.5616090000000 1.0
C      1  0.4871170000000  0.4285170000000  0.4877730000000 1.0
C      1  0.4956870000000  0.5408520000000  0.4737040000000 1.0
C      1  0.4231180000000  0.5816440000000  0.4954160000000 1.0
C      1  0.5588780000000  0.4310670000000  0.4728250000000 1.0
C      1  0.5060880000000  0.4455200000000  0.5050610000000 1.0
C      1  0.5645500000000  0.5590770000000  0.4423710000000 1.0
C      1  0.5368740000000  0.4771740000000  0.5890730000000 1.0
C      1  0.4540440000000  0.4228860000000  0.5254480000000 1.0
C      1  0.5947170000000  0.5387600000000  0.5172430000000 1.0
C      1  0.4973520000000  0.4817200000000  0.4550810000000 1.0
C      1  0.5611920000000  0.4346360000000  0.5117040000000 1.0
C      1  0.5347860000000  0.5335490000000  0.4515380000000 1.0
C      1  0.4363350000000  0.4509550000000  0.4352400000000 1.0
C      1  0.5676690000000  0.5279680000000  0.5570550000000 1.0
C      1  0.4836890000000  0.5605120000000  0.4532040000000 1.0
C      1  0.5657950000000  0.5758370000000  0.5313610000000 1.0
C      1  0.5118100000000  0.4167520000000  0.4713530000000 1.0
C      1  0.3896040000000  0.5039240000000  0.5407780000000 1.0
C      1  0.4867350000000  0.5526270000000  0.4227010000000 1.0
C      1  0.5395300000000  0.5892200000000  0.4760650000000 1.0
C      1  0.5091440000000  0.5777420000000  0.4812960000000 1.0
C      1  0.4551050000000  0.4387000000000  0.5752830000000 1.0
C      1  0.5597980000000  0.4293910000000  0.4282400000000 1.0
C      1  0.3984020000000  0.5145230000000  0.5160040000000 1.0
C      1  0.5286650000000  0.5242940000000  0.5042520000000 1.0
C      1  0.5489070000000  0.4702740000000  0.4558120000000 1.0
C      1  0.4550210000000  0.4689800000000  0.5292490000000 1.0
C      1  0.4636950000000  0.4471280000000  0.4769010000000 1.0
C      1  0.5122750000000  0.4578690000000  0.5863960000000 1.0
C      1  0.3927320000000  0.5171920000000  0.4653230000000 1.0
C      1  0.4740700000000  0.4368110000000  0.5491430000000 1.0
C      1  0.4159040000000  0.5126020000000  0.4441420000000 1.0
C      1  0.5373350000000  0.5031930000000  0.6071350000000 1.0
C      1  0.5803080000000  0.5483160000000  0.5395940000000 1.0
C      1  0.4607290000000  0.4522990000000  0.6018920000000 1.0
C      1  0.4955520000000  0.5766510000000  0.5092600000000 1.0
C      1  0.4706330000000  0.5880740000000  0.4274680000000 1.0
C      1  0.4420220000000  0.5385930000000  0.4098050000000 1.0
C      1  0.5311060000000  0.4294630000000  0.5095520000000 1.0
C      1  0.5552820000000  0.5207930000000  0.4860950000000 1.0
C      1  0.4021790000000  0.5264540000000  0.4891340000000 1.0
C      1  0.4278780000000  0.5088630000000  0.5141370000000 1.0
C      1  0.5400450000000  0.4794850000000  0.5193510000000 1.0
C      1  0.5838480000000  0.4878740000000  0.4327690000000 1.0
C      1  0.4280020000000  0.4591510000000  0.5734770000000 1.0
C      1  0.4014340000000  0.5967830000000  0.4914640000000 1.0
C      1  0.5090840000000  0.4242760000000  0.5780750000000 1.0
C      1  0.4799180000000  0.5186610000000  0.5704760000000 1.0
C      1  0.4305840000000  0.5399090000000  0.4373630000000 1.0
C      1  0.4737510000000  0.5123600000000  0.5390120000000 1.0
C      1  0.4327830000000  0.5237720000000  0.5911230000000 1.0
C      1  0.4289740000000  0.5205180000000  0.5583410000000 1.0
C      1  0.4250580000000  0.4667230000000  0.5362940000000 1.0
C      1  0.4319950000000  0.5060740000000  0.4720180000000 1.0
C      1  0.5112710000000  0.4173680000000  0.4172330000000 1.0
C      1  0.5103180000000  0.4866300000000  0.5322350000000 1.0
C      1  0.6021060000000  0.4611740000000  0.4723150000000 1.0
C      1  0.5188690000000  0.5501080000000  0.5513450000000 1.0
C      1  0.4504930000000  0.4223240000000  0.4487010000000 1.0
C      1  0.5312730000000  0.5270770000000  0.5951680000000 1.0
C      1  0.5629710000000  0.4370010000000  0.5435300000000 1.0
C      1  0.5113420000000  0.5429380000000  0.6052040000000 1.0
C      1  0.4640280000000  0.4811510000000  0.5975280000000 1.0
C      1  0.5051860000000  0.5104960000000  0.4634960000000 1.0
C      1  0.4885460000000  0.4615890000000  0.5280850000000 1.0
C      1  0.5469530000000  0.5629830000000  0.5051730000000 1.0
C      1  0.4621460000000  0.5608600000000  0.4088790000000 1.0
C      1  0.5736220000000  0.4657660000000  0.5482630000000 1.0
C      1  0.4892530000000  0.4895880000000  0.4933970000000 1.0
C      1  0.5077990000000  0.5042830000000  0.5611880000000 1.0
C      1  0.5269930000000  0.5919710000000  0.4485900000000 1.0
C      1  0.5540300000000  0.4891490000000  0.4832410000000 1.0
C      1  0.4332760000000  0.5060040000000  0.4169280000000 1.0
C      1  0.4131800000000  0.4642460000000  0.5073700000000 1.0
C      1  0.5055990000000  0.4484470000000  0.5544100000000 1.0
C      1  0.5275000000000  0.5490950000000  0.4809900000000 1.0
C      1  0.5179840000000  0.6119030000000  0.5381810000000 1.0
C      1  0.4946250000000  0.5981610000000  0.5328400000000 1.0
C      1  0.5549320000000  0.5317250000000  0.4245940000000 1.0
C      1  0.4631490000000  0.5097600000000  0.4851600000000 1.0
C      1  0.5944740000000  0.5091630000000  0.4761240000000 1.0
C      1  0.4903040000000  0.4810560000000  0.5789910000000 1.0
C      1  0.5692510000000  0.4798060000000  0.5787020000000 1.0
C      1  0.4984960000000  0.5135480000000  0.5157170000000 1.0
C      1  0.5704890000000  0.4168710000000  0.4517990000000 1.0
C      1  0.5859930000000  0.5187530000000  0.4186970000000 1.0
C      1  0.4332350000000  0.5363000000000  0.4856420000000 1.0
C      1  0.4951350000000  0.5896150000000  0.4514370000000 1.0
C      1  0.5340930000000  0.5258570000000  0.5622370000000 1.0
C      1  0.4257450000000  0.5644740000000  0.5455780000000 1.0
C      1  0.5625690000000  0.5674500000000  0.4752940000000 1.0
C      1  0.4819340000000  0.5403070000000  0.5966280000000 1.0
C      1  0.4155150000000  0.4398130000000  0.4959990000000 1.0
C      1  0.5986190000000  0.4865380000000  0.4599760000000 1.0
C      1  0.4866810000000  0.3941770000000  0.4674730000000 1.0
C      1  0.4762250000000  0.5845620000000  0.5543210000000 1.0
C      1  0.4497280000000  0.5730120000000  0.4818490000000 1.0
END
