TITL C-2847954-6904-469 -0.000638616081614404 125000 -191.765825557087 0 0 36 (C1) n - 1
REM
REM in /home/bkarasulu/work/CARBON/AIRSS/Generating-Clusters/AIREBO/with-SteepDescent/Only-C1/SD-CG-opt/Try1-1.4A-POS3A/HFTN-CG
REM
REM
REM
REM
REM
REM ./C.cell (11c1c37f851c82e70ff6c80c92926a4b)
REM
REM compiler GCC version 9.2.1 20190827 (Red Hat 9.2.1-1)
REM options -cpp -mtune=generic -march=x86-64 -g -O0 -fpre-include=/usr/include/finclude/math-vector-fortran.h
REM seed 2117870810 756811091 -965514263 -503529287 2120231361 1384968917 963012988 865806883 162409232 -721191627 1231576445 -679744519 -450373507 -2022410540 -15966355 1306840382 -1977290645 -632255190 1250874552 -1463884769 365394095 -219598150 -1814913970 -2087815354 -1285283316 275950415 1422545744 -1365913124 -376557354 -285478653 1850602044 1405804424 -2064252750
REM
CELL 1.54180   50.00000   50.00000   50.00000   90.00000   90.00000   90.00000
LATT -1
SFAC C  
C      1  0.5329750000000  0.5217230000000  0.4943900000000 1.0
C      1  0.5535650000000  0.4786050000000  0.4951740000000 1.0
C      1  0.4964000000000  0.5573360000000  0.5278250000000 1.0
C      1  0.5329580000000  0.5183360000000  0.5645300000000 1.0
C      1  0.5285250000000  0.5235650000000  0.5252190000000 1.0
C      1  0.4630040000000  0.5053750000000  0.4436450000000 1.0
C      1  0.4542850000000  0.4203650000000  0.4765270000000 1.0
C      1  0.5248930000000  0.4640510000000  0.4869620000000 1.0
C      1  0.5146610000000  0.4961610000000  0.5342110000000 1.0
C      1  0.4842770000000  0.5006200000000  0.5395790000000 1.0
C      1  0.5303690000000  0.4714710000000  0.5178500000000 1.0
C      1  0.5383350000000  0.4767550000000  0.5496180000000 1.0
C      1  0.4558240000000  0.4823300000000  0.4326570000000 1.0
C      1  0.4654740000000  0.4806790000000  0.5268950000000 1.0
C      1  0.5212260000000  0.4732850000000  0.4552690000000 1.0
C      1  0.4625310000000  0.4719440000000  0.5015690000000 1.0
C      1  0.4896350000000  0.5556220000000  0.4979030000000 1.0
C      1  0.4768500000000  0.5339620000000  0.5404710000000 1.0
C      1  0.5284320000000  0.5198740000000  0.4613310000000 1.0
C      1  0.4757180000000  0.4908530000000  0.4785400000000 1.0
C      1  0.4658680000000  0.4523280000000  0.4748470000000 1.0
C      1  0.5841690000000  0.4881220000000  0.4980140000000 1.0
C      1  0.5614070000000  0.5091270000000  0.5084610000000 1.0
C      1  0.4863410000000  0.5196210000000  0.4638570000000 1.0
C      1  0.5166470000000  0.5293800000000  0.5895570000000 1.0
C      1  0.4441540000000  0.5333910000000  0.4953020000000 1.0
C      1  0.5525160000000  0.5064920000000  0.5412010000000 1.0
C      1  0.4950160000000  0.4652720000000  0.4730440000000 1.0
C      1  0.4415510000000  0.4307690000000  0.4517360000000 1.0
C      1  0.5222530000000  0.5517230000000  0.5342520000000 1.0
C      1  0.5061980000000  0.5370790000000  0.4803110000000 1.0
C      1  0.4503500000000  0.4586250000000  0.4454180000000 1.0
C      1  0.4638150000000  0.5426060000000  0.5110240000000 1.0
C      1  0.4989840000000  0.5201860000000  0.5620420000000 1.0
C      1  0.4518540000000  0.5148550000000  0.4737400000000 1.0
C      1  0.5289390000000  0.4975130000000  0.4470300000000 1.0
END
