TITL C-2847948-6138-278 -0.00194858580895588 125000 -720.039457834766 0 0 134 (C1) n - 1
REM
REM in /home/bkarasulu/work/CARBON/AIRSS/Generating-Clusters/AIREBO/with-SteepDescent/Only-C1/SD-CG-opt/Try1-1.4A-POS3A/HFTN-CG
REM
REM
REM
REM
REM
REM ./C.cell (11c1c37f851c82e70ff6c80c92926a4b)
REM
REM compiler GCC version 9.2.1 20190827 (Red Hat 9.2.1-1)
REM options -cpp -mtune=generic -march=x86-64 -g -O0 -fpre-include=/usr/include/finclude/math-vector-fortran.h
REM seed 476349455 573913005 666572001 -783296604 -1679972440 2012389458 -1113844620 -874154358 -1145093089 1867865438 -1448226395 1386325276 -499192522 -673865918 1351061729 -900013090 274190303 -878730891 -1917153884 -463072227 -950460206 -877948326 -1356159566 -1733207583 368562775 -1834283205 -697789946 -1020444099 1521425523 -94159984 1846947103 -244293533 -1508154797
REM
CELL 1.54180   50.00000   50.00000   50.00000   90.00000   90.00000   90.00000
LATT -1
SFAC C  
C      1  0.5171340000000  0.6011740000000  0.4746150000000 1.0
C      1  0.5263030000000  0.4588470000000  0.5813680000000 1.0
C      1  0.4089170000000  0.5055380000000  0.5536890000000 1.0
C      1  0.5504200000000  0.5727400000000  0.4947130000000 1.0
C      1  0.4533470000000  0.5599600000000  0.4463340000000 1.0
C      1  0.4850050000000  0.5434620000000  0.4154560000000 1.0
C      1  0.5127730000000  0.4982190000000  0.3979420000000 1.0
C      1  0.5009930000000  0.4606490000000  0.4581620000000 1.0
C      1  0.4058110000000  0.5448250000000  0.5226920000000 1.0
C      1  0.5300200000000  0.4200100000000  0.4935770000000 1.0
C      1  0.4403250000000  0.5320410000000  0.5818800000000 1.0
C      1  0.5075070000000  0.4648900000000  0.5115550000000 1.0
C      1  0.5656380000000  0.4828990000000  0.5146270000000 1.0
C      1  0.5442700000000  0.4591000000000  0.4183470000000 1.0
C      1  0.5302130000000  0.5297930000000  0.4390230000000 1.0
C      1  0.4629850000000  0.4920560000000  0.5684180000000 1.0
C      1  0.4171860000000  0.5202560000000  0.5789670000000 1.0
C      1  0.5669180000000  0.4908340000000  0.5800680000000 1.0
C      1  0.5367910000000  0.5831910000000  0.4699300000000 1.0
C      1  0.4058660000000  0.4742270000000  0.4782400000000 1.0
C      1  0.3937950000000  0.5235150000000  0.5341060000000 1.0
C      1  0.5555440000000  0.5968720000000  0.5133660000000 1.0
C      1  0.5624870000000  0.5532770000000  0.4367570000000 1.0
C      1  0.4604120000000  0.4164770000000  0.5367980000000 1.0
C      1  0.4758370000000  0.4151040000000  0.4849390000000 1.0
C      1  0.5251840000000  0.5578320000000  0.5815760000000 1.0
C      1  0.4706420000000  0.5226710000000  0.5690370000000 1.0
C      1  0.4635560000000  0.4795150000000  0.4920740000000 1.0
C      1  0.4552260000000  0.4372660000000  0.5555890000000 1.0
C      1  0.4460600000000  0.5113770000000  0.5190430000000 1.0
C      1  0.6037580000000  0.5434810000000  0.5078950000000 1.0
C      1  0.4351690000000  0.4963350000000  0.4936850000000 1.0
C      1  0.4299450000000  0.4856160000000  0.4048220000000 1.0
C      1  0.5156000000000  0.4500960000000  0.4870000000000 1.0
C      1  0.4343560000000  0.4801860000000  0.5707450000000 1.0
C      1  0.4837920000000  0.5346230000000  0.4961910000000 1.0
C      1  0.5902150000000  0.4924260000000  0.5337940000000 1.0
C      1  0.5865780000000  0.5100850000000  0.4542660000000 1.0
C      1  0.5588540000000  0.4910050000000  0.4494200000000 1.0
C      1  0.4963420000000  0.5006890000000  0.5324070000000 1.0
C      1  0.5747330000000  0.5509600000000  0.4988880000000 1.0
C      1  0.4124250000000  0.5918480000000  0.5328120000000 1.0
C      1  0.4770310000000  0.4424910000000  0.5720370000000 1.0
C      1  0.4607740000000  0.5281070000000  0.4117130000000 1.0
C      1  0.4274050000000  0.4334350000000  0.4433980000000 1.0
C      1  0.4497830000000  0.4184520000000  0.4478800000000 1.0
C      1  0.5451700000000  0.5009930000000  0.5314640000000 1.0
C      1  0.5723660000000  0.5462850000000  0.5324960000000 1.0
C      1  0.6085940000000  0.5133540000000  0.5146110000000 1.0
C      1  0.5703900000000  0.4719590000000  0.5526490000000 1.0
C      1  0.4961760000000  0.6010970000000  0.4922070000000 1.0
C      1  0.5853330000000  0.5004510000000  0.4949190000000 1.0
C      1  0.4943260000000  0.4703320000000  0.5797080000000 1.0
C      1  0.4433680000000  0.4591330000000  0.5324010000000 1.0
C      1  0.4219020000000  0.5009840000000  0.4646280000000 1.0
C      1  0.5203450000000  0.5046940000000  0.4835820000000 1.0
C      1  0.5364830000000  0.4799650000000  0.5567380000000 1.0
C      1  0.4000110000000  0.4652070000000  0.5030510000000 1.0
C      1  0.5435830000000  0.4055420000000  0.4701690000000 1.0
C      1  0.5705970000000  0.4130190000000  0.4648890000000 1.0
C      1  0.4055590000000  0.4729170000000  0.5552060000000 1.0
C      1  0.5421230000000  0.5277850000000  0.4708090000000 1.0
C      1  0.5471320000000  0.5338820000000  0.5743560000000 1.0
C      1  0.5078320000000  0.4368630000000  0.5630550000000 1.0
C      1  0.5929660000000  0.5253050000000  0.5423430000000 1.0
C      1  0.5040800000000  0.5533840000000  0.4579820000000 1.0
C      1  0.5076050000000  0.5182380000000  0.5833220000000 1.0
C      1  0.5340410000000  0.5623610000000  0.4480730000000 1.0
C      1  0.5469190000000  0.4267380000000  0.5223520000000 1.0
C      1  0.5357910000000  0.5045130000000  0.5802620000000 1.0
C      1  0.4988030000000  0.3950410000000  0.4461280000000 1.0
C      1  0.4277710000000  0.4644100000000  0.4552020000000 1.0
C      1  0.4962670000000  0.5502990000000  0.5821550000000 1.0
C      1  0.4347770000000  0.5409330000000  0.5151980000000 1.0
C      1  0.5853580000000  0.4741120000000  0.4810010000000 1.0
C      1  0.5700810000000  0.4466240000000  0.4700680000000 1.0
C      1  0.4831630000000  0.4761630000000  0.5481190000000 1.0
C      1  0.4095240000000  0.4604040000000  0.5292940000000 1.0
C      1  0.4670460000000  0.5597890000000  0.4979710000000 1.0
C      1  0.4995060000000  0.5256930000000  0.5511530000000 1.0
C      1  0.5672900000000  0.4527690000000  0.5252270000000 1.0
C      1  0.5461520000000  0.5321670000000  0.5224600000000 1.0
C      1  0.5562680000000  0.5658390000000  0.5802760000000 1.0
C      1  0.4468750000000  0.5580220000000  0.4732440000000 1.0
C      1  0.5711110000000  0.4607650000000  0.4391650000000 1.0
C      1  0.5304120000000  0.4727780000000  0.4455420000000 1.0
C      1  0.4891490000000  0.5228230000000  0.4583670000000 1.0
C      1  0.4354480000000  0.4901760000000  0.4364850000000 1.0
C      1  0.3971290000000  0.5714070000000  0.5224120000000 1.0
C      1  0.5562270000000  0.5133090000000  0.4284150000000 1.0
C      1  0.4850360000000  0.4378020000000  0.4257920000000 1.0
C      1  0.4351070000000  0.4338500000000  0.5112170000000 1.0
C      1  0.4649700000000  0.4962830000000  0.4207330000000 1.0
C      1  0.4792690000000  0.4276020000000  0.5143830000000 1.0
C      1  0.4809820000000  0.5591600000000  0.4389170000000 1.0
C      1  0.5254250000000  0.4162190000000  0.4462890000000 1.0
C      1  0.5481970000000  0.5633050000000  0.5474800000000 1.0
C      1  0.5961910000000  0.4825740000000  0.4391220000000 1.0
C      1  0.4744730000000  0.4613040000000  0.5187810000000 1.0
C      1  0.4650970000000  0.5491650000000  0.5896180000000 1.0
C      1  0.5076870000000  0.4243070000000  0.4205900000000 1.0
C      1  0.4781000000000  0.5592680000000  0.5548390000000 1.0
C      1  0.4986350000000  0.5010360000000  0.4199030000000 1.0
C      1  0.5523380000000  0.5929800000000  0.5380110000000 1.0
C      1  0.5138990000000  0.5021430000000  0.4502720000000 1.0
C      1  0.4947300000000  0.5759910000000  0.5343860000000 1.0
C      1  0.5288790000000  0.5528770000000  0.5084110000000 1.0
C      1  0.4494130000000  0.4321050000000  0.4882240000000 1.0
C      1  0.5135180000000  0.5379070000000  0.4861710000000 1.0
C      1  0.5822030000000  0.5398200000000  0.4432160000000 1.0
C      1  0.4801460000000  0.4681070000000  0.4321120000000 1.0
C      1  0.4740870000000  0.3988020000000  0.4569640000000 1.0
C      1  0.4919240000000  0.4969560000000  0.5954300000000 1.0
C      1  0.5651310000000  0.5144120000000  0.5555100000000 1.0
C      1  0.4402310000000  0.5440800000000  0.4253210000000 1.0
C      1  0.4535720000000  0.4830850000000  0.3905110000000 1.0
C      1  0.5370400000000  0.4440350000000  0.4624520000000 1.0
C      1  0.4554500000000  0.5637050000000  0.5297030000000 1.0
C      1  0.5721810000000  0.4314650000000  0.5004320000000 1.0
C      1  0.5167280000000  0.5525730000000  0.5401790000000 1.0
C      1  0.4528220000000  0.4584840000000  0.4725340000000 1.0
C      1  0.4751100000000  0.4385970000000  0.4583090000000 1.0
C      1  0.5705660000000  0.5257080000000  0.4798810000000 1.0
C      1  0.4690750000000  0.5102660000000  0.4785650000000 1.0
C      1  0.5083080000000  0.4188390000000  0.5173030000000 1.0
C      1  0.5188370000000  0.4942940000000  0.5117500000000 1.0
C      1  0.4842390000000  0.5831580000000  0.5099410000000 1.0
C      1  0.4397580000000  0.5905270000000  0.5331260000000 1.0
C      1  0.5229490000000  0.4190920000000  0.5430290000000 1.0
C      1  0.4749910000000  0.5148740000000  0.5177010000000 1.0
C      1  0.4406270000000  0.5282640000000  0.4833500000000 1.0
C      1  0.4364650000000  0.4918080000000  0.5388580000000 1.0
C      1  0.5180960000000  0.4585570000000  0.5399560000000 1.0
C      1  0.5125420000000  0.5376380000000  0.4117340000000 1.0
END
