TITL C-2848500-1637-103 -0.000419134958542687 125000 -487.349365857961 0 0 93 (C1) n - 1
REM
REM in /home/bkarasulu/work/CARBON/AIRSS/Generating-Clusters/AIREBO/with-SteepDescent/Only-C1/SD-CG-opt/Try1-1.4A-POS3A/HFTN-CG
REM
REM
REM
REM
REM
REM ./C.cell (11c1c37f851c82e70ff6c80c92926a4b)
REM
REM compiler GCC version 9.2.1 20190827 (Red Hat 9.2.1-1)
REM options -cpp -mtune=generic -march=x86-64 -g -O0 -fpre-include=/usr/include/finclude/math-vector-fortran.h
REM seed -1293204037 32753112 1135909410 141587780 -1195964373 -206587027 374945326 520052832 -22711639 -1453486511 2015167485 -513065079 -1138902346 -583520473 -1301578363 130098619 122417078 260414626 -1150355774 788291205 643271549 -202120803 -651407555 -1988063240 801144512 526711911 -884971771 266516095 -1158032534 -876485985 396899050 -2127617174 -1354667251
REM
CELL 1.54180   50.00000   50.00000   50.00000   90.00000   90.00000   90.00000
LATT -1
SFAC C  
C      1  0.4408570000000  0.5179610000000  0.5365930000000 1.0
C      1  0.4307940000000  0.5737180000000  0.4775700000000 1.0
C      1  0.4447170000000  0.5634600000000  0.5067670000000 1.0
C      1  0.4446870000000  0.5271220000000  0.4571220000000 1.0
C      1  0.5670860000000  0.5684340000000  0.4848000000000 1.0
C      1  0.5266810000000  0.4129170000000  0.5163300000000 1.0
C      1  0.4663980000000  0.5649270000000  0.5329200000000 1.0
C      1  0.5038210000000  0.5094850000000  0.4970640000000 1.0
C      1  0.5366860000000  0.5690720000000  0.5193740000000 1.0
C      1  0.5018150000000  0.5470180000000  0.5105440000000 1.0
C      1  0.4805240000000  0.4890580000000  0.5451630000000 1.0
C      1  0.5445670000000  0.5327840000000  0.5613960000000 1.0
C      1  0.5290110000000  0.5322050000000  0.5057720000000 1.0
C      1  0.4575480000000  0.5362690000000  0.4936170000000 1.0
C      1  0.4406160000000  0.4966570000000  0.5029570000000 1.0
C      1  0.4613370000000  0.5144270000000  0.4310560000000 1.0
C      1  0.4539550000000  0.4830360000000  0.5743090000000 1.0
C      1  0.5021670000000  0.4574520000000  0.5336510000000 1.0
C      1  0.5329810000000  0.4732500000000  0.4486500000000 1.0
C      1  0.5363490000000  0.4781330000000  0.5585640000000 1.0
C      1  0.4247240000000  0.5472110000000  0.5289580000000 1.0
C      1  0.4880490000000  0.4111440000000  0.5297840000000 1.0
C      1  0.4645870000000  0.5743220000000  0.4738080000000 1.0
C      1  0.4312340000000  0.4787750000000  0.4653940000000 1.0
C      1  0.5504120000000  0.5303510000000  0.4621930000000 1.0
C      1  0.5603790000000  0.4665190000000  0.5181240000000 1.0
C      1  0.5513650000000  0.4564480000000  0.5447890000000 1.0
C      1  0.4972470000000  0.5106250000000  0.5304140000000 1.0
C      1  0.4521660000000  0.4415040000000  0.5456050000000 1.0
C      1  0.4609740000000  0.4129040000000  0.5360350000000 1.0
C      1  0.5355730000000  0.4369190000000  0.5275540000000 1.0
C      1  0.4385300000000  0.4898950000000  0.5514490000000 1.0
C      1  0.4663950000000  0.5356290000000  0.5719370000000 1.0
C      1  0.4719420000000  0.5318590000000  0.5386000000000 1.0
C      1  0.4714360000000  0.4637010000000  0.5293080000000 1.0
C      1  0.5849440000000  0.5104780000000  0.5229570000000 1.0
C      1  0.4665110000000  0.4557170000000  0.5709320000000 1.0
C      1  0.5263590000000  0.5543730000000  0.4585870000000 1.0
C      1  0.5009550000000  0.5485690000000  0.5445450000000 1.0
C      1  0.5157270000000  0.5753450000000  0.5360910000000 1.0
C      1  0.5773970000000  0.4805630000000  0.4777770000000 1.0
C      1  0.5620730000000  0.5152760000000  0.5389460000000 1.0
C      1  0.4967730000000  0.4551790000000  0.5664470000000 1.0
C      1  0.5132250000000  0.4778020000000  0.5828700000000 1.0
C      1  0.5382890000000  0.4879540000000  0.5118120000000 1.0
C      1  0.5341670000000  0.5439170000000  0.4284000000000 1.0
C      1  0.5343590000000  0.5713270000000  0.4873930000000 1.0
C      1  0.5364000000000  0.4428550000000  0.4635110000000 1.0
C      1  0.4723660000000  0.5833080000000  0.5045290000000 1.0
C      1  0.5048270000000  0.4908940000000  0.4129850000000 1.0
C      1  0.5029500000000  0.4273240000000  0.5482280000000 1.0
C      1  0.5057070000000  0.4540940000000  0.4418540000000 1.0
C      1  0.5327320000000  0.5055140000000  0.5774320000000 1.0
C      1  0.4719210000000  0.4977800000000  0.4956500000000 1.0
C      1  0.4848150000000  0.5343590000000  0.4839510000000 1.0
C      1  0.5193990000000  0.4964900000000  0.4695190000000 1.0
C      1  0.4644850000000  0.5537410000000  0.4483460000000 1.0
C      1  0.5128260000000  0.5316560000000  0.5684600000000 1.0
C      1  0.4323050000000  0.4677260000000  0.5079300000000 1.0
C      1  0.5652560000000  0.4833770000000  0.4528150000000 1.0
C      1  0.4387150000000  0.4521580000000  0.4781650000000 1.0
C      1  0.5090560000000  0.4581420000000  0.4767280000000 1.0
C      1  0.4792470000000  0.4713490000000  0.4669600000000 1.0
C      1  0.5477990000000  0.5419960000000  0.5285680000000 1.0
C      1  0.5745750000000  0.5414750000000  0.4803220000000 1.0
C      1  0.4643010000000  0.4646520000000  0.4967640000000 1.0
C      1  0.5104890000000  0.5157450000000  0.4437270000000 1.0
C      1  0.4977490000000  0.4170480000000  0.4989530000000 1.0
C      1  0.5005880000000  0.5732510000000  0.4911740000000 1.0
C      1  0.5461400000000  0.5159860000000  0.4233990000000 1.0
C      1  0.4839920000000  0.5285770000000  0.4522010000000 1.0
C      1  0.5440120000000  0.5090780000000  0.4879380000000 1.0
C      1  0.5299370000000  0.5041700000000  0.5376540000000 1.0
C      1  0.4234450000000  0.5217620000000  0.5076280000000 1.0
C      1  0.5668540000000  0.5100330000000  0.4428860000000 1.0
C      1  0.4944260000000  0.5664760000000  0.4594680000000 1.0
C      1  0.4781340000000  0.4546300000000  0.4307340000000 1.0
C      1  0.4664120000000  0.4842720000000  0.4204180000000 1.0
C      1  0.4901800000000  0.4903990000000  0.4429390000000 1.0
C      1  0.5213720000000  0.4611320000000  0.5083430000000 1.0
C      1  0.4630430000000  0.4431060000000  0.4566060000000 1.0
C      1  0.5316300000000  0.4914780000000  0.4199970000000 1.0
C      1  0.5716320000000  0.4579570000000  0.4942630000000 1.0
C      1  0.4553500000000  0.4963480000000  0.4659930000000 1.0
C      1  0.4878720000000  0.5214980000000  0.5834870000000 1.0
C      1  0.5106320000000  0.5313860000000  0.4135370000000 1.0
C      1  0.5779070000000  0.5099320000000  0.4925770000000 1.0
C      1  0.4852120000000  0.4920500000000  0.5767090000000 1.0
C      1  0.5591950000000  0.4347770000000  0.4837780000000 1.0
C      1  0.4777500000000  0.4351580000000  0.4862150000000 1.0
C      1  0.4266130000000  0.5399670000000  0.4799840000000 1.0
C      1  0.5291030000000  0.4179080000000  0.4845460000000 1.0
C      1  0.4322570000000  0.4652950000000  0.5372020000000 1.0
END
