TITL C-2847950-6905-411 2.74604532265322e-05 125000 -634.894851122531 0 0 124 (C1) n - 1
REM
REM in /home/bkarasulu/work/CARBON/AIRSS/Generating-Clusters/AIREBO/with-SteepDescent/Only-C1/SD-CG-opt/Try1-1.4A-POS3A/HFTN-CG
REM
REM
REM
REM
REM
REM ./C.cell (11c1c37f851c82e70ff6c80c92926a4b)
REM
REM compiler GCC version 9.2.1 20190827 (Red Hat 9.2.1-1)
REM options -cpp -mtune=generic -march=x86-64 -g -O0 -fpre-include=/usr/include/finclude/math-vector-fortran.h
REM seed -2040608994 -260492766 -867463296 -1595106818 -1500067539 475685754 440104389 -58186600 297761858 -1022672008 343187887 -1160087912 -832965070 1036950759 403997903 1561352868 -957107983 1189478426 -1478963531 454386943 1326863975 -402845862 -351005171 -592094947 59394703 -1080804103 350069887 -867974479 345469686 46539406 -1419006022 -947540086 977115223
REM
CELL 1.54180   50.00000   50.00000   50.00000   90.00000   90.00000   90.00000
LATT -1
SFAC C  
C      1  0.5191250000000  0.4925750000000  0.5392230000000 1.0
C      1  0.4093260000000  0.4959100000000  0.4787380000000 1.0
C      1  0.5587380000000  0.5668710000000  0.4461380000000 1.0
C      1  0.4371230000000  0.4779620000000  0.4711350000000 1.0
C      1  0.5499810000000  0.5799830000000  0.4763100000000 1.0
C      1  0.4339260000000  0.5660750000000  0.5350160000000 1.0
C      1  0.4742340000000  0.5921490000000  0.5162820000000 1.0
C      1  0.4352580000000  0.5434070000000  0.5509240000000 1.0
C      1  0.5279820000000  0.4356880000000  0.4760400000000 1.0
C      1  0.4672580000000  0.4774550000000  0.5410730000000 1.0
C      1  0.5380270000000  0.5069860000000  0.5635410000000 1.0
C      1  0.5610730000000  0.4714940000000  0.5414280000000 1.0
C      1  0.5449350000000  0.5179850000000  0.4383900000000 1.0
C      1  0.5633020000000  0.5080320000000  0.4650190000000 1.0
C      1  0.5645090000000  0.5508890000000  0.4810910000000 1.0
C      1  0.5791110000000  0.4399790000000  0.4923330000000 1.0
C      1  0.5078830000000  0.4190780000000  0.4542150000000 1.0
C      1  0.5952410000000  0.4955920000000  0.4852890000000 1.0
C      1  0.4502090000000  0.4546950000000  0.5588710000000 1.0
C      1  0.4063870000000  0.4972560000000  0.5615760000000 1.0
C      1  0.4753550000000  0.4976630000000  0.4173320000000 1.0
C      1  0.5248520000000  0.5811290000000  0.5318420000000 1.0
C      1  0.4654120000000  0.5459670000000  0.4391930000000 1.0
C      1  0.4937610000000  0.5282620000000  0.4413520000000 1.0
C      1  0.4289580000000  0.5748720000000  0.4600920000000 1.0
C      1  0.5521950000000  0.4703220000000  0.5709430000000 1.0
C      1  0.6020400000000  0.4622690000000  0.4807510000000 1.0
C      1  0.4819100000000  0.5550280000000  0.5039800000000 1.0
C      1  0.4812700000000  0.4093210000000  0.5125990000000 1.0
C      1  0.4266900000000  0.5333570000000  0.4891270000000 1.0
C      1  0.4764640000000  0.5666000000000  0.5636910000000 1.0
C      1  0.5277670000000  0.5659680000000  0.4381290000000 1.0
C      1  0.5255470000000  0.4784160000000  0.4095240000000 1.0
C      1  0.4701010000000  0.4281620000000  0.5352980000000 1.0
C      1  0.4978510000000  0.4957190000000  0.4427640000000 1.0
C      1  0.4681510000000  0.4299200000000  0.5683800000000 1.0
C      1  0.4636130000000  0.4571370000000  0.4644320000000 1.0
C      1  0.4440220000000  0.4982340000000  0.4284350000000 1.0
C      1  0.4477890000000  0.5009960000000  0.5311320000000 1.0
C      1  0.5452810000000  0.4899780000000  0.5176450000000 1.0
C      1  0.4696750000000  0.5296960000000  0.4096310000000 1.0
C      1  0.4216620000000  0.5179180000000  0.5405500000000 1.0
C      1  0.4661290000000  0.5164140000000  0.5124130000000 1.0
C      1  0.4531510000000  0.5046920000000  0.4605620000000 1.0
C      1  0.5061280000000  0.4561250000000  0.5025260000000 1.0
C      1  0.4876700000000  0.5339880000000  0.5903790000000 1.0
C      1  0.5233200000000  0.4621100000000  0.4551500000000 1.0
C      1  0.4716240000000  0.4804570000000  0.5936680000000 1.0
C      1  0.5898080000000  0.4579790000000  0.5176050000000 1.0
C      1  0.5443150000000  0.5942500000000  0.5067690000000 1.0
C      1  0.4570360000000  0.4532120000000  0.5195270000000 1.0
C      1  0.5202250000000  0.5617440000000  0.4956610000000 1.0
C      1  0.4949980000000  0.4366600000000  0.4309480000000 1.0
C      1  0.4239320000000  0.4517410000000  0.5292960000000 1.0
C      1  0.5162540000000  0.5416850000000  0.5765980000000 1.0
C      1  0.4662030000000  0.4460800000000  0.4351210000000 1.0
C      1  0.5906760000000  0.5293410000000  0.4838090000000 1.0
C      1  0.4572850000000  0.5245700000000  0.4851640000000 1.0
C      1  0.4579210000000  0.4692350000000  0.4172960000000 1.0
C      1  0.4155330000000  0.5089120000000  0.5088480000000 1.0
C      1  0.5258410000000  0.3878580000000  0.5290830000000 1.0
C      1  0.5847920000000  0.5124790000000  0.5127560000000 1.0
C      1  0.4254250000000  0.4762780000000  0.5090500000000 1.0
C      1  0.5409580000000  0.4250940000000  0.4466920000000 1.0
C      1  0.5074670000000  0.4122550000000  0.5315400000000 1.0
C      1  0.5231710000000  0.4793700000000  0.5766850000000 1.0
C      1  0.4420850000000  0.4281490000000  0.4472310000000 1.0
C      1  0.5206280000000  0.4599870000000  0.5488050000000 1.0
C      1  0.4603190000000  0.5387720000000  0.5704090000000 1.0
C      1  0.4881890000000  0.4964990000000  0.5527970000000 1.0
C      1  0.5050060000000  0.4442970000000  0.5717430000000 1.0
C      1  0.5760540000000  0.5375770000000  0.4540020000000 1.0
C      1  0.4202050000000  0.5460570000000  0.4616870000000 1.0
C      1  0.5227520000000  0.4937160000000  0.4658350000000 1.0
C      1  0.5212450000000  0.5495230000000  0.5438810000000 1.0
C      1  0.5231730000000  0.5999580000000  0.4825090000000 1.0
C      1  0.5821270000000  0.4959940000000  0.5385370000000 1.0
C      1  0.4757440000000  0.5495970000000  0.4714020000000 1.0
C      1  0.5609320000000  0.5362310000000  0.5175430000000 1.0
C      1  0.4763570000000  0.4456040000000  0.4925800000000 1.0
C      1  0.4725510000000  0.5079380000000  0.5779320000000 1.0
C      1  0.4571090000000  0.4799930000000  0.4985720000000 1.0
C      1  0.5590960000000  0.4482490000000  0.4439370000000 1.0
C      1  0.4981010000000  0.5082660000000  0.5158970000000 1.0
C      1  0.4572330000000  0.5773240000000  0.4488180000000 1.0
C      1  0.5767100000000  0.5348730000000  0.5452880000000 1.0
C      1  0.5496130000000  0.5142280000000  0.4941970000000 1.0
C      1  0.5465320000000  0.5481860000000  0.5675180000000 1.0
C      1  0.5630540000000  0.4827350000000  0.4435640000000 1.0
C      1  0.5625780000000  0.4426610000000  0.5280930000000 1.0
C      1  0.5479120000000  0.5623100000000  0.5154000000000 1.0
C      1  0.4905020000000  0.4176370000000  0.4807310000000 1.0
C      1  0.5375260000000  0.5382700000000  0.4646890000000 1.0
C      1  0.4944070000000  0.5848520000000  0.5413870000000 1.0
C      1  0.5154130000000  0.4577060000000  0.4262420000000 1.0
C      1  0.5705460000000  0.4781850000000  0.4981860000000 1.0
C      1  0.4366800000000  0.5285310000000  0.4427550000000 1.0
C      1  0.5086040000000  0.5561810000000  0.4650430000000 1.0
C      1  0.5208570000000  0.5371690000000  0.4284640000000 1.0
C      1  0.4197780000000  0.4418840000000  0.5591640000000 1.0
C      1  0.4497840000000  0.5768990000000  0.5131640000000 1.0
C      1  0.4580720000000  0.4104300000000  0.4879800000000 1.0
C      1  0.4984720000000  0.4165540000000  0.5607630000000 1.0
C      1  0.5455570000000  0.4387380000000  0.4998010000000 1.0
C      1  0.5118450000000  0.5102180000000  0.5850370000000 1.0
C      1  0.4477040000000  0.5632590000000  0.4850030000000 1.0
C      1  0.5672620000000  0.5123970000000  0.5607690000000 1.0
C      1  0.5527990000000  0.4667570000000  0.4717780000000 1.0
C      1  0.5511440000000  0.4932950000000  0.4170220000000 1.0
C      1  0.5206920000000  0.5335640000000  0.5134500000000 1.0
C      1  0.4951590000000  0.5277030000000  0.5436430000000 1.0
C      1  0.4946250000000  0.5835360000000  0.4904670000000 1.0
C      1  0.4388360000000  0.4266590000000  0.4755690000000 1.0
C      1  0.4807840000000  0.4571330000000  0.5844150000000 1.0
C      1  0.5273680000000  0.4751360000000  0.4927310000000 1.0
C      1  0.4764560000000  0.5896000000000  0.4636610000000 1.0
C      1  0.4784110000000  0.4858580000000  0.4652500000000 1.0
C      1  0.5221470000000  0.4391370000000  0.5245050000000 1.0
C      1  0.5179460000000  0.5202110000000  0.4833580000000 1.0
C      1  0.4270110000000  0.4498430000000  0.4873630000000 1.0
C      1  0.4282300000000  0.4793610000000  0.5486650000000 1.0
C      1  0.5141890000000  0.5066960000000  0.4149240000000 1.0
C      1  0.4886020000000  0.4836330000000  0.4966640000000 1.0
C      1  0.4834310000000  0.5547170000000  0.5325810000000 1.0
END
