TITL C-2847958-8115-159 0.000542463747505659 125000 -238.998151115265 0 0 42 (C1) n - 1
REM
REM in /home/bkarasulu/work/CARBON/AIRSS/Generating-Clusters/AIREBO/with-SteepDescent/Only-C1/SD-CG-opt/Try1-1.4A-POS3A/HFTN-CG
REM
REM
REM
REM
REM
REM ./C.cell (11c1c37f851c82e70ff6c80c92926a4b)
REM
REM compiler GCC version 9.2.1 20190827 (Red Hat 9.2.1-1)
REM options -cpp -mtune=generic -march=x86-64 -g -O0 -fpre-include=/usr/include/finclude/math-vector-fortran.h
REM seed -419003462 -118750071 722576826 80996701 228240085 -1761696460 2037300179 -2078403061 1667916923 -484338833 -1593632459 1141969487 2097108982 369501635 -562154210 1181313063 -134282998 -492517074 984758681 666109013 -1120704852 -1206217906 -1997147328 -736303294 -639900613 466454146 233674814 1115085340 -1335982914 -792497998 333414717 183287093 144930529
REM
CELL 1.54180   50.00000   50.00000   50.00000   90.00000   90.00000   90.00000
LATT -1
SFAC C  
C      1  0.5473190000000  0.4995020000000  0.5502670000000 1.0
C      1  0.4471180000000  0.5152310000000  0.4673450000000 1.0
C      1  0.4426630000000  0.5864530000000  0.4996480000000 1.0
C      1  0.5285520000000  0.4405550000000  0.5122630000000 1.0
C      1  0.5428440000000  0.4669500000000  0.4667370000000 1.0
C      1  0.4706940000000  0.5713790000000  0.4936850000000 1.0
C      1  0.5235770000000  0.5107880000000  0.5103570000000 1.0
C      1  0.5671690000000  0.5250800000000  0.5512260000000 1.0
C      1  0.4607120000000  0.4988280000000  0.4448650000000 1.0
C      1  0.5110370000000  0.4745330000000  0.4629770000000 1.0
C      1  0.5143150000000  0.5594690000000  0.4752050000000 1.0
C      1  0.4613940000000  0.4860630000000  0.4757030000000 1.0
C      1  0.4996120000000  0.4917490000000  0.5108410000000 1.0
C      1  0.5636570000000  0.4798510000000  0.4546880000000 1.0
C      1  0.4186800000000  0.5128920000000  0.5037400000000 1.0
C      1  0.5353850000000  0.5302960000000  0.5493220000000 1.0
C      1  0.4725810000000  0.4297910000000  0.5052900000000 1.0
C      1  0.4997650000000  0.4663300000000  0.5335690000000 1.0
C      1  0.4829400000000  0.4960490000000  0.4287500000000 1.0
C      1  0.4745060000000  0.5136290000000  0.5540820000000 1.0
C      1  0.5126130000000  0.4432260000000  0.4758740000000 1.0
C      1  0.4427560000000  0.5550010000000  0.4923650000000 1.0
C      1  0.5121270000000  0.5444760000000  0.5446080000000 1.0
C      1  0.4900240000000  0.4840620000000  0.4842020000000 1.0
C      1  0.5082940000000  0.4953710000000  0.4409660000000 1.0
C      1  0.5268030000000  0.5353280000000  0.4679920000000 1.0
C      1  0.4347760000000  0.5293550000000  0.4872140000000 1.0
C      1  0.4244770000000  0.4860190000000  0.5071690000000 1.0
C      1  0.5227190000000  0.5190780000000  0.4453790000000 1.0
C      1  0.5378290000000  0.4540470000000  0.5347420000000 1.0
C      1  0.4831960000000  0.4920420000000  0.5399530000000 1.0
C      1  0.4892860000000  0.5362070000000  0.5591540000000 1.0
C      1  0.5433470000000  0.4635350000000  0.5809670000000 1.0
C      1  0.4504960000000  0.4437830000000  0.4975670000000 1.0
C      1  0.4996870000000  0.4337580000000  0.5023980000000 1.0
C      1  0.4977360000000  0.5665450000000  0.4969740000000 1.0
C      1  0.5443080000000  0.4429960000000  0.4850970000000 1.0
C      1  0.5837830000000  0.4937220000000  0.4452270000000 1.0
C      1  0.5428230000000  0.4723570000000  0.5553620000000 1.0
C      1  0.5075190000000  0.5617420000000  0.5229760000000 1.0
C      1  0.4428750000000  0.4700940000000  0.4931020000000 1.0
C      1  0.5380030000000  0.5218380000000  0.4901500000000 1.0
END
