TITL C-2848497-6229-208 -0.000987105326424257 125000 -950.54285699706 0 0 177 (C1) n - 1
REM
REM in /home/bkarasulu/work/CARBON/AIRSS/Generating-Clusters/AIREBO/with-SteepDescent/Only-C1/SD-CG-opt/Try1-1.4A-POS3A/HFTN-CG
REM
REM
REM
REM
REM
REM ./C.cell (11c1c37f851c82e70ff6c80c92926a4b)
REM
REM compiler GCC version 9.2.1 20190827 (Red Hat 9.2.1-1)
REM options -cpp -mtune=generic -march=x86-64 -g -O0 -fpre-include=/usr/include/finclude/math-vector-fortran.h
REM seed -1960292479 1254242628 -1685520157 568694363 -1684241511 2024237528 1038839649 -1652661183 -1283318893 137902700 -1126852647 -1433507921 1251233050 -520621242 -879691205 119631640 2060931660 1474391519 -1408106656 -1843268638 1354169991 1511990638 -841187209 -850657756 -1479726514 -1942696708 1938483451 -1413528103 363026021 -1836912793 853583545 1734620729 1213186710
REM
CELL 1.54180   50.00000   50.00000   50.00000   90.00000   90.00000   90.00000
LATT -1
SFAC C  
C      1  0.5496460000000  0.5462330000000  0.5046560000000 1.0
C      1  0.4738480000000  0.5025310000000  0.5078320000000 1.0
C      1  0.4769450000000  0.4225210000000  0.4931990000000 1.0
C      1  0.5443720000000  0.5649340000000  0.5602150000000 1.0
C      1  0.5495750000000  0.4512300000000  0.5813540000000 1.0
C      1  0.5071000000000  0.5641600000000  0.5268240000000 1.0
C      1  0.5208260000000  0.5879800000000  0.4235280000000 1.0
C      1  0.4690580000000  0.4498590000000  0.4540330000000 1.0
C      1  0.4375340000000  0.4344680000000  0.5067250000000 1.0
C      1  0.4528230000000  0.6009610000000  0.4963780000000 1.0
C      1  0.4505630000000  0.5418150000000  0.5539480000000 1.0
C      1  0.5649240000000  0.4640510000000  0.4759270000000 1.0
C      1  0.5345990000000  0.4305330000000  0.4997530000000 1.0
C      1  0.5367400000000  0.4278490000000  0.4264790000000 1.0
C      1  0.5085650000000  0.4060420000000  0.4659920000000 1.0
C      1  0.5597360000000  0.3999490000000  0.5284920000000 1.0
C      1  0.5704460000000  0.5659700000000  0.5432940000000 1.0
C      1  0.4344270000000  0.5831830000000  0.5164750000000 1.0
C      1  0.5638910000000  0.4919320000000  0.4564380000000 1.0
C      1  0.4647440000000  0.5253650000000  0.5305460000000 1.0
C      1  0.5240410000000  0.5398180000000  0.5213620000000 1.0
C      1  0.4411000000000  0.5636050000000  0.4894750000000 1.0
C      1  0.4436090000000  0.5098990000000  0.5903160000000 1.0
C      1  0.5033650000000  0.4693580000000  0.4484870000000 1.0
C      1  0.5484070000000  0.4430760000000  0.3991550000000 1.0
C      1  0.5333440000000  0.5597040000000  0.4132110000000 1.0
C      1  0.4554860000000  0.4461970000000  0.5332140000000 1.0
C      1  0.4571040000000  0.5966550000000  0.4486600000000 1.0
C      1  0.4613910000000  0.5706280000000  0.4411650000000 1.0
C      1  0.4199450000000  0.4961690000000  0.4862990000000 1.0
C      1  0.6135420000000  0.5486990000000  0.4644420000000 1.0
C      1  0.3867870000000  0.5030770000000  0.4815860000000 1.0
C      1  0.5291030000000  0.5962880000000  0.4475500000000 1.0
C      1  0.5296780000000  0.3851000000000  0.4786890000000 1.0
C      1  0.4605100000000  0.4958190000000  0.4559410000000 1.0
C      1  0.5531480000000  0.4754810000000  0.5606250000000 1.0
C      1  0.4727590000000  0.4280680000000  0.5698100000000 1.0
C      1  0.5377710000000  0.4883780000000  0.5880900000000 1.0
C      1  0.4999180000000  0.4388160000000  0.4630860000000 1.0
C      1  0.4707950000000  0.5737240000000  0.5032250000000 1.0
C      1  0.4390940000000  0.4697870000000  0.4346210000000 1.0
C      1  0.5115220000000  0.5460900000000  0.5936210000000 1.0
C      1  0.5242820000000  0.5458620000000  0.4818850000000 1.0
C      1  0.4602960000000  0.6131450000000  0.4722350000000 1.0
C      1  0.5492490000000  0.5229430000000  0.5716970000000 1.0
C      1  0.4091270000000  0.5049050000000  0.5504890000000 1.0
C      1  0.4771080000000  0.3762320000000  0.5536000000000 1.0
C      1  0.4952150000000  0.5731000000000  0.4826590000000 1.0
C      1  0.5593070000000  0.4307510000000  0.4800130000000 1.0
C      1  0.4834630000000  0.5284080000000  0.4576540000000 1.0
C      1  0.4147870000000  0.4535900000000  0.5528990000000 1.0
C      1  0.6130880000000  0.4988200000000  0.5028430000000 1.0
C      1  0.4434800000000  0.5393250000000  0.4225750000000 1.0
C      1  0.4445580000000  0.5739230000000  0.5444930000000 1.0
C      1  0.5629900000000  0.4320430000000  0.4483570000000 1.0
C      1  0.5276920000000  0.5167750000000  0.5461020000000 1.0
C      1  0.4935730000000  0.4765410000000  0.5174370000000 1.0
C      1  0.4168020000000  0.5592200000000  0.4674810000000 1.0
C      1  0.5137680000000  0.4963900000000  0.4317330000000 1.0
C      1  0.4233120000000  0.5250600000000  0.5775280000000 1.0
C      1  0.4863270000000  0.5583630000000  0.5604850000000 1.0
C      1  0.4684350000000  0.5209590000000  0.6056250000000 1.0
C      1  0.5054590000000  0.5153770000000  0.5083670000000 1.0
C      1  0.5730020000000  0.5966160000000  0.5404300000000 1.0
C      1  0.4613110000000  0.5292450000000  0.4909270000000 1.0
C      1  0.4927550000000  0.5418340000000  0.4939930000000 1.0
C      1  0.5654180000000  0.5097770000000  0.4207580000000 1.0
C      1  0.4965710000000  0.3900080000000  0.4430400000000 1.0
C      1  0.5922060000000  0.4435880000000  0.5469190000000 1.0
C      1  0.4904240000000  0.4009240000000  0.5669790000000 1.0
C      1  0.5418710000000  0.5277540000000  0.4127280000000 1.0
C      1  0.5515960000000  0.5179560000000  0.4901050000000 1.0
C      1  0.4154790000000  0.5321790000000  0.5378320000000 1.0
C      1  0.5659650000000  0.5007110000000  0.5113840000000 1.0
C      1  0.4313770000000  0.4012820000000  0.5358850000000 1.0
C      1  0.5379340000000  0.6251010000000  0.5212680000000 1.0
C      1  0.4315640000000  0.4263380000000  0.5454000000000 1.0
C      1  0.5420590000000  0.4048970000000  0.5494150000000 1.0
C      1  0.6145760000000  0.4745610000000  0.4904280000000 1.0
C      1  0.5011670000000  0.6404110000000  0.4896840000000 1.0
C      1  0.5079320000000  0.5774850000000  0.5810380000000 1.0
C      1  0.4562830000000  0.4639740000000  0.6211590000000 1.0
C      1  0.4267080000000  0.5347620000000  0.4518060000000 1.0
C      1  0.5100720000000  0.4153320000000  0.4958380000000 1.0
C      1  0.5473560000000  0.4582770000000  0.4342220000000 1.0
C      1  0.4493330000000  0.3910990000000  0.5164550000000 1.0
C      1  0.5014920000000  0.5686390000000  0.4039590000000 1.0
C      1  0.5000920000000  0.4776230000000  0.4081430000000 1.0
C      1  0.4747450000000  0.3827020000000  0.5255500000000 1.0
C      1  0.5290060000000  0.4357270000000  0.5483440000000 1.0
C      1  0.4733830000000  0.5092140000000  0.5568400000000 1.0
C      1  0.5639210000000  0.4681380000000  0.5097820000000 1.0
C      1  0.4333930000000  0.5370170000000  0.5089250000000 1.0
C      1  0.4712850000000  0.5353940000000  0.5769780000000 1.0
C      1  0.4647660000000  0.5145790000000  0.4129140000000 1.0
C      1  0.4608260000000  0.5510100000000  0.4647990000000 1.0
C      1  0.4696010000000  0.4684270000000  0.5976680000000 1.0
C      1  0.5346340000000  0.5763160000000  0.4722250000000 1.0
C      1  0.5903230000000  0.5209810000000  0.4987460000000 1.0
C      1  0.5092960000000  0.4488520000000  0.4066450000000 1.0
C      1  0.5001650000000  0.4969230000000  0.5439540000000 1.0
C      1  0.4784320000000  0.6344580000000  0.4755410000000 1.0
C      1  0.4404150000000  0.5000550000000  0.4287320000000 1.0
C      1  0.4147420000000  0.5208600000000  0.4233270000000 1.0
C      1  0.4963020000000  0.4531370000000  0.5897060000000 1.0
C      1  0.6014780000000  0.5200450000000  0.5546590000000 1.0
C      1  0.3950850000000  0.5731000000000  0.4650540000000 1.0
C      1  0.5245040000000  0.6261700000000  0.4965260000000 1.0
C      1  0.5433880000000  0.4945780000000  0.3864710000000 1.0
C      1  0.6063790000000  0.5646590000000  0.5261360000000 1.0
C      1  0.5388150000000  0.4494560000000  0.5232270000000 1.0
C      1  0.5941210000000  0.5295050000000  0.4687490000000 1.0
C      1  0.5311960000000  0.6072290000000  0.4777560000000 1.0
C      1  0.5443860000000  0.5475150000000  0.5884140000000 1.0
C      1  0.4948000000000  0.4777890000000  0.5683950000000 1.0
C      1  0.5110990000000  0.4952630000000  0.5897760000000 1.0
C      1  0.4775440000000  0.4628120000000  0.4262310000000 1.0
C      1  0.4425350000000  0.4609250000000  0.4651030000000 1.0
C      1  0.4391600000000  0.4104080000000  0.4601260000000 1.0
C      1  0.5035200000000  0.5523440000000  0.4569580000000 1.0
C      1  0.5212920000000  0.4060330000000  0.5733640000000 1.0
C      1  0.4265580000000  0.4369020000000  0.4751210000000 1.0
C      1  0.3915030000000  0.4461290000000  0.5054490000000 1.0
C      1  0.4955130000000  0.5363160000000  0.3963480000000 1.0
C      1  0.4927140000000  0.4966730000000  0.4657300000000 1.0
C      1  0.4988080000000  0.5188190000000  0.6006430000000 1.0
C      1  0.4729360000000  0.5535390000000  0.4147570000000 1.0
C      1  0.5985740000000  0.4596750000000  0.4737160000000 1.0
C      1  0.5787540000000  0.5480340000000  0.5153330000000 1.0
C      1  0.4171830000000  0.4545160000000  0.5213100000000 1.0
C      1  0.5806240000000  0.5196120000000  0.4469660000000 1.0
C      1  0.5210740000000  0.4378010000000  0.5814720000000 1.0
C      1  0.4770510000000  0.5555530000000  0.5278740000000 1.0
C      1  0.5012470000000  0.4216710000000  0.5425310000000 1.0
C      1  0.5209970000000  0.5141040000000  0.3927010000000 1.0
C      1  0.5482530000000  0.6095230000000  0.5421860000000 1.0
C      1  0.4829890000000  0.4369120000000  0.5225170000000 1.0
C      1  0.3975040000000  0.4755720000000  0.4713070000000 1.0
C      1  0.5030210000000  0.5892420000000  0.5418170000000 1.0
C      1  0.5778620000000  0.4701070000000  0.5407370000000 1.0
C      1  0.3972270000000  0.4791520000000  0.5633510000000 1.0
C      1  0.5316040000000  0.4827910000000  0.4875400000000 1.0
C      1  0.5598440000000  0.4778600000000  0.4099950000000 1.0
C      1  0.5655240000000  0.5028640000000  0.5867190000000 1.0
C      1  0.4940910000000  0.4518710000000  0.4939910000000 1.0
C      1  0.4701470000000  0.4559630000000  0.5597160000000 1.0
C      1  0.5254240000000  0.4767990000000  0.5157370000000 1.0
C      1  0.4966720000000  0.3995170000000  0.5192170000000 1.0
C      1  0.5203600000000  0.5123110000000  0.4779210000000 1.0
C      1  0.4505890000000  0.4033840000000  0.4369270000000 1.0
C      1  0.5972480000000  0.6082540000000  0.5356610000000 1.0
C      1  0.5688500000000  0.4109980000000  0.5051880000000 1.0
C      1  0.5286560000000  0.5415540000000  0.4408540000000 1.0
C      1  0.4490140000000  0.4526760000000  0.4127070000000 1.0
C      1  0.4572220000000  0.4817060000000  0.4867020000000 1.0
C      1  0.4215610000000  0.5550310000000  0.5614910000000 1.0
C      1  0.4729520000000  0.5889600000000  0.5540240000000 1.0
C      1  0.4498840000000  0.4082780000000  0.4904240000000 1.0
C      1  0.4555200000000  0.4844480000000  0.5711710000000 1.0
C      1  0.4893900000000  0.5152660000000  0.4306350000000 1.0
C      1  0.5286070000000  0.5935730000000  0.5593240000000 1.0
C      1  0.4387380000000  0.5134870000000  0.4709700000000 1.0
C      1  0.4340150000000  0.4814920000000  0.5117600000000 1.0
C      1  0.5363190000000  0.5099950000000  0.4480590000000 1.0
C      1  0.4887560000000  0.5032020000000  0.3926200000000 1.0
C      1  0.4327890000000  0.4816360000000  0.5459310000000 1.0
C      1  0.5169830000000  0.5448140000000  0.5602260000000 1.0
C      1  0.5825490000000  0.4767370000000  0.4339180000000 1.0
C      1  0.5451890000000  0.4924940000000  0.5352700000000 1.0
C      1  0.5339770000000  0.4661950000000  0.4619630000000 1.0
C      1  0.4005230000000  0.5412050000000  0.5110610000000 1.0
C      1  0.4773850000000  0.4052660000000  0.4283100000000 1.0
C      1  0.3984040000000  0.4491680000000  0.4787890000000 1.0
C      1  0.5968960000000  0.4945720000000  0.5470660000000 1.0
C      1  0.5030510000000  0.4275330000000  0.4311460000000 1.0
C      1  0.5889500000000  0.4515920000000  0.4465040000000 1.0
C      1  0.5977420000000  0.5469310000000  0.5503090000000 1.0
END
