TITL C-2847948-6138-314 0.000280754924025274 125000 -564.650024879906 0 0 102 (C1) n - 1
REM
REM in /home/bkarasulu/work/CARBON/AIRSS/Generating-Clusters/AIREBO/with-SteepDescent/Only-C1/SD-CG-opt/Try1-1.4A-POS3A/HFTN-CG
REM
REM
REM
REM
REM
REM ./C.cell (11c1c37f851c82e70ff6c80c92926a4b)
REM
REM compiler GCC version 9.2.1 20190827 (Red Hat 9.2.1-1)
REM options -cpp -mtune=generic -march=x86-64 -g -O0 -fpre-include=/usr/include/finclude/math-vector-fortran.h
REM seed -661723186 -1491285192 1918405001 -285040134 1187858259 -427225202 -749413468 -1513292622 -1992308575 2136325340 -1783128320 -774868007 -1090201363 -1037701536 1635986116 1390733144 27164633 -1438352071 -383663509 -1828554580 -2030957508 76694651 -1104055824 -1516242738 234938251 1368451160 1989698133 1809182111 1618341473 2122234035 577014984 615600684 683682682
REM
CELL 1.54180   50.00000   50.00000   50.00000   90.00000   90.00000   90.00000
LATT -1
SFAC C  
C      1  0.5691090000000  0.5308050000000  0.4526210000000 1.0
C      1  0.5013920000000  0.5886110000000  0.4880800000000 1.0
C      1  0.4576420000000  0.4898730000000  0.4230880000000 1.0
C      1  0.5742980000000  0.4466150000000  0.5116490000000 1.0
C      1  0.5345770000000  0.5181710000000  0.5198640000000 1.0
C      1  0.5442480000000  0.5596470000000  0.5004450000000 1.0
C      1  0.5206850000000  0.5275560000000  0.5727690000000 1.0
C      1  0.5403180000000  0.4587350000000  0.4745550000000 1.0
C      1  0.4681040000000  0.5701760000000  0.5133560000000 1.0
C      1  0.4514080000000  0.5485490000000  0.4843110000000 1.0
C      1  0.5156590000000  0.5485930000000  0.4211400000000 1.0
C      1  0.4611960000000  0.5654480000000  0.4340300000000 1.0
C      1  0.5293870000000  0.4352660000000  0.4341730000000 1.0
C      1  0.4275830000000  0.4805820000000  0.5052700000000 1.0
C      1  0.4876110000000  0.5910240000000  0.5136670000000 1.0
C      1  0.5037370000000  0.5554650000000  0.4808590000000 1.0
C      1  0.4357290000000  0.4539070000000  0.5022350000000 1.0
C      1  0.5002960000000  0.5031930000000  0.5908430000000 1.0
C      1  0.5103470000000  0.5180220000000  0.4072330000000 1.0
C      1  0.4340050000000  0.4751900000000  0.4403550000000 1.0
C      1  0.4481240000000  0.4501560000000  0.4533830000000 1.0
C      1  0.4563920000000  0.4879110000000  0.4629760000000 1.0
C      1  0.5363690000000  0.4301970000000  0.4611450000000 1.0
C      1  0.4173230000000  0.5101220000000  0.4919040000000 1.0
C      1  0.4969880000000  0.4087890000000  0.5205880000000 1.0
C      1  0.4330890000000  0.5412630000000  0.5353080000000 1.0
C      1  0.4978120000000  0.4857470000000  0.5087740000000 1.0
C      1  0.5557990000000  0.4829980000000  0.4645640000000 1.0
C      1  0.5136540000000  0.5075220000000  0.4662310000000 1.0
C      1  0.5058960000000  0.5849160000000  0.5341600000000 1.0
C      1  0.4395390000000  0.5619010000000  0.5133620000000 1.0
C      1  0.4825460000000  0.5591140000000  0.5701130000000 1.0
C      1  0.4952320000000  0.5676330000000  0.4405520000000 1.0
C      1  0.4746010000000  0.4191290000000  0.5363250000000 1.0
C      1  0.4772560000000  0.4580230000000  0.5287810000000 1.0
C      1  0.5294390000000  0.5538400000000  0.5622030000000 1.0
C      1  0.4843190000000  0.5443820000000  0.5064790000000 1.0
C      1  0.5621130000000  0.4524000000000  0.5407160000000 1.0
C      1  0.5217200000000  0.4320930000000  0.5188440000000 1.0
C      1  0.4823080000000  0.5404600000000  0.4247370000000 1.0
C      1  0.5701570000000  0.5031740000000  0.5479490000000 1.0
C      1  0.5726610000000  0.4804520000000  0.5327250000000 1.0
C      1  0.4360060000000  0.5116290000000  0.5202840000000 1.0
C      1  0.4661860000000  0.4615050000000  0.5784010000000 1.0
C      1  0.4616650000000  0.5218080000000  0.5024090000000 1.0
C      1  0.5945830000000  0.4565290000000  0.4947630000000 1.0
C      1  0.4739560000000  0.5561010000000  0.4644400000000 1.0
C      1  0.5350320000000  0.5577700000000  0.4677360000000 1.0
C      1  0.4796440000000  0.4493580000000  0.4427120000000 1.0
C      1  0.5064900000000  0.5712580000000  0.5601640000000 1.0
C      1  0.5491200000000  0.5057760000000  0.4412010000000 1.0
C      1  0.4865220000000  0.5167020000000  0.5446850000000 1.0
C      1  0.4460230000000  0.4948400000000  0.5466330000000 1.0
C      1  0.5042060000000  0.5320160000000  0.5265300000000 1.0
C      1  0.5658820000000  0.5388380000000  0.4846210000000 1.0
C      1  0.5106540000000  0.4549730000000  0.4337300000000 1.0
C      1  0.4328610000000  0.5069400000000  0.4505120000000 1.0
C      1  0.4746120000000  0.4896750000000  0.5333250000000 1.0
C      1  0.5295770000000  0.5286740000000  0.4521670000000 1.0
C      1  0.5435390000000  0.4544970000000  0.5054990000000 1.0
C      1  0.5849810000000  0.5353650000000  0.5074340000000 1.0
C      1  0.4906790000000  0.4425070000000  0.4746050000000 1.0
C      1  0.4693060000000  0.5141610000000  0.4358020000000 1.0
C      1  0.5841770000000  0.5004650000000  0.4577610000000 1.0
C      1  0.4550130000000  0.5468320000000  0.5614950000000 1.0
C      1  0.4231910000000  0.5366560000000  0.5675110000000 1.0
C      1  0.5143480000000  0.4490160000000  0.5638550000000 1.0
C      1  0.4282080000000  0.4717690000000  0.5569660000000 1.0
C      1  0.4826090000000  0.4443740000000  0.5576620000000 1.0
C      1  0.4734760000000  0.4978270000000  0.4901730000000 1.0
C      1  0.4707050000000  0.4921640000000  0.5782420000000 1.0
C      1  0.4308810000000  0.4474530000000  0.5514080000000 1.0
C      1  0.4432710000000  0.4385750000000  0.4788070000000 1.0
C      1  0.5350360000000  0.4436900000000  0.5449940000000 1.0
C      1  0.5006350000000  0.4854370000000  0.4073030000000 1.0
C      1  0.5369170000000  0.4848120000000  0.5155750000000 1.0
C      1  0.5677690000000  0.4884090000000  0.5022370000000 1.0
C      1  0.4493100000000  0.4408740000000  0.5279440000000 1.0
C      1  0.5649360000000  0.5290720000000  0.5307640000000 1.0
C      1  0.5188540000000  0.4812770000000  0.4495560000000 1.0
C      1  0.5501910000000  0.4905560000000  0.5808560000000 1.0
C      1  0.5148440000000  0.4184620000000  0.4751940000000 1.0
C      1  0.5496920000000  0.5554300000000  0.5358940000000 1.0
C      1  0.5463340000000  0.5515500000000  0.4357080000000 1.0
C      1  0.4881200000000  0.5277610000000  0.5729120000000 1.0
C      1  0.5300170000000  0.4931850000000  0.4197230000000 1.0
C      1  0.4787910000000  0.4721710000000  0.4174920000000 1.0
C      1  0.4949480000000  0.4462880000000  0.5081250000000 1.0
C      1  0.4491050000000  0.5146160000000  0.5706250000000 1.0
C      1  0.5913290000000  0.4833510000000  0.4824330000000 1.0
C      1  0.4911930000000  0.4063010000000  0.4914790000000 1.0
C      1  0.4660200000000  0.4225570000000  0.4846560000000 1.0
C      1  0.5206990000000  0.5593960000000  0.5236200000000 1.0
C      1  0.5329730000000  0.5012240000000  0.5640090000000 1.0
C      1  0.4280170000000  0.5317330000000  0.4705680000000 1.0
C      1  0.5495250000000  0.5104210000000  0.4836680000000 1.0
C      1  0.5214660000000  0.5282290000000  0.4909160000000 1.0
C      1  0.5141860000000  0.4887970000000  0.5384660000000 1.0
C      1  0.4467320000000  0.5367450000000  0.4425160000000 1.0
C      1  0.5004090000000  0.4787980000000  0.5671560000000 1.0
C      1  0.4849080000000  0.5045550000000  0.4614170000000 1.0
C      1  0.5089690000000  0.4706000000000  0.4802980000000 1.0
END
