TITL C-2847952-8118-354 0.000323459143429422 125000 -925.291805426337 0 0 176 (C1) n - 1
REM
REM in /home/bkarasulu/work/CARBON/AIRSS/Generating-Clusters/AIREBO/with-SteepDescent/Only-C1/SD-CG-opt/Try1-1.4A-POS3A/HFTN-CG
REM
REM
REM
REM
REM
REM ./C.cell (11c1c37f851c82e70ff6c80c92926a4b)
REM
REM compiler GCC version 9.2.1 20190827 (Red Hat 9.2.1-1)
REM options -cpp -mtune=generic -march=x86-64 -g -O0 -fpre-include=/usr/include/finclude/math-vector-fortran.h
REM seed -854477630 160570928 358168931 1709386922 -2026074442 -1928574031 -752574003 2111169333 -778315331 1795463033 -1757937295 -1266630859 -302407039 -1229657697 -2113370457 -250339418 -1227506363 1790506701 -965587195 646888288 -617907630 -1153700241 -1988263277 -1413041750 -1849405119 1547380498 1906885539 1461170566 164251268 -1717871598 1168246826 1027120729 -2007458220
REM
CELL 1.54180   50.00000   50.00000   50.00000   90.00000   90.00000   90.00000
LATT -1
SFAC C  
C      1  0.4168390000000  0.5628120000000  0.4964410000000 1.0
C      1  0.5925140000000  0.4805070000000  0.4683120000000 1.0
C      1  0.5682370000000  0.5296780000000  0.5790750000000 1.0
C      1  0.5312530000000  0.4813250000000  0.5041690000000 1.0
C      1  0.5596640000000  0.5759630000000  0.5595830000000 1.0
C      1  0.4911510000000  0.5922860000000  0.5142170000000 1.0
C      1  0.4373690000000  0.5154700000000  0.4215820000000 1.0
C      1  0.5569970000000  0.5305890000000  0.4082720000000 1.0
C      1  0.4193860000000  0.4968540000000  0.4768960000000 1.0
C      1  0.4305940000000  0.5298450000000  0.5811040000000 1.0
C      1  0.4874220000000  0.5520170000000  0.5398380000000 1.0
C      1  0.5009340000000  0.5676780000000  0.4440420000000 1.0
C      1  0.3946700000000  0.5132770000000  0.4935530000000 1.0
C      1  0.4678500000000  0.5006090000000  0.6036380000000 1.0
C      1  0.4912860000000  0.5095380000000  0.4809450000000 1.0
C      1  0.5474220000000  0.4063210000000  0.5373540000000 1.0
C      1  0.5268830000000  0.5389510000000  0.4003190000000 1.0
C      1  0.5253710000000  0.5386930000000  0.6215390000000 1.0
C      1  0.4596170000000  0.4876690000000  0.4474760000000 1.0
C      1  0.4905880000000  0.4952620000000  0.4534680000000 1.0
C      1  0.4591650000000  0.3981320000000  0.4498470000000 1.0
C      1  0.4526640000000  0.5760380000000  0.4605810000000 1.0
C      1  0.4035940000000  0.4877950000000  0.5474590000000 1.0
C      1  0.4723630000000  0.5151660000000  0.5419430000000 1.0
C      1  0.3836230000000  0.4978840000000  0.5218270000000 1.0
C      1  0.4677670000000  0.4647530000000  0.4924040000000 1.0
C      1  0.5121710000000  0.4828160000000  0.5790920000000 1.0
C      1  0.4726420000000  0.6275510000000  0.4852150000000 1.0
C      1  0.5544360000000  0.5681520000000  0.4429240000000 1.0
C      1  0.5933880000000  0.5332420000000  0.4742590000000 1.0
C      1  0.4572830000000  0.5174670000000  0.5690700000000 1.0
C      1  0.4011260000000  0.5398490000000  0.5081630000000 1.0
C      1  0.5834810000000  0.5278920000000  0.5203780000000 1.0
C      1  0.6016880000000  0.5040350000000  0.4823630000000 1.0
C      1  0.5412670000000  0.5066160000000  0.5227530000000 1.0
C      1  0.5302220000000  0.4316870000000  0.4916100000000 1.0
C      1  0.4576730000000  0.4842990000000  0.5765880000000 1.0
C      1  0.5702550000000  0.4736320000000  0.4178470000000 1.0
C      1  0.4952850000000  0.5007930000000  0.6020620000000 1.0
C      1  0.5352620000000  0.4001640000000  0.4828100000000 1.0
C      1  0.4344800000000  0.5250180000000  0.4651730000000 1.0
C      1  0.5484630000000  0.4546470000000  0.5042270000000 1.0
C      1  0.5354540000000  0.5128880000000  0.4800020000000 1.0
C      1  0.4197590000000  0.4866530000000  0.5093330000000 1.0
C      1  0.4285580000000  0.5892990000000  0.5427620000000 1.0
C      1  0.5184110000000  0.4389520000000  0.4087640000000 1.0
C      1  0.4353020000000  0.5524560000000  0.5565510000000 1.0
C      1  0.5203030000000  0.3999420000000  0.5261830000000 1.0
C      1  0.5612060000000  0.6104390000000  0.4633900000000 1.0
C      1  0.4934760000000  0.5585590000000  0.4885420000000 1.0
C      1  0.5806240000000  0.5665390000000  0.5345190000000 1.0
C      1  0.4072260000000  0.5424090000000  0.5401060000000 1.0
C      1  0.4544400000000  0.4477340000000  0.5148540000000 1.0
C      1  0.4510520000000  0.4232250000000  0.4416760000000 1.0
C      1  0.5724120000000  0.5017230000000  0.4175040000000 1.0
C      1  0.5374400000000  0.4784430000000  0.4398610000000 1.0
C      1  0.4182090000000  0.5711910000000  0.5256750000000 1.0
C      1  0.4555160000000  0.5506770000000  0.5355180000000 1.0
C      1  0.5618490000000  0.4355190000000  0.4540440000000 1.0
C      1  0.5164030000000  0.5599580000000  0.4145510000000 1.0
C      1  0.5543240000000  0.5299880000000  0.5025590000000 1.0
C      1  0.5768790000000  0.4626230000000  0.4451660000000 1.0
C      1  0.4246990000000  0.4773140000000  0.5720450000000 1.0
C      1  0.4433110000000  0.4847830000000  0.4177770000000 1.0
C      1  0.5568430000000  0.5454530000000  0.5443420000000 1.0
C      1  0.5069990000000  0.4823850000000  0.5396900000000 1.0
C      1  0.5881380000000  0.5371380000000  0.5523540000000 1.0
C      1  0.4842310000000  0.5898240000000  0.5446690000000 1.0
C      1  0.5196200000000  0.4874290000000  0.4639600000000 1.0
C      1  0.5439100000000  0.4289820000000  0.4259020000000 1.0
C      1  0.4387470000000  0.4493800000000  0.5795270000000 1.0
C      1  0.4412220000000  0.4669860000000  0.5365250000000 1.0
C      1  0.5625420000000  0.4691910000000  0.4767970000000 1.0
C      1  0.5969380000000  0.4915780000000  0.5474910000000 1.0
C      1  0.5167850000000  0.4589680000000  0.5995340000000 1.0
C      1  0.4408770000000  0.4326930000000  0.5569240000000 1.0
C      1  0.5775130000000  0.4256280000000  0.4769830000000 1.0
C      1  0.5636450000000  0.5361520000000  0.4643810000000 1.0
C      1  0.4367180000000  0.4405410000000  0.4662950000000 1.0
C      1  0.5127570000000  0.5201840000000  0.5124220000000 1.0
C      1  0.4416100000000  0.4270340000000  0.4962710000000 1.0
C      1  0.4200760000000  0.4403400000000  0.5369560000000 1.0
C      1  0.5228360000000  0.5882820000000  0.4290710000000 1.0
C      1  0.4735740000000  0.4728130000000  0.4085340000000 1.0
C      1  0.5406200000000  0.4515610000000  0.5372900000000 1.0
C      1  0.4645230000000  0.5413570000000  0.4932600000000 1.0
C      1  0.5439510000000  0.5615710000000  0.4980470000000 1.0
C      1  0.4001120000000  0.4654090000000  0.4921830000000 1.0
C      1  0.3954970000000  0.5132380000000  0.4590730000000 1.0
C      1  0.5951620000000  0.5389330000000  0.4408160000000 1.0
C      1  0.4398410000000  0.5303550000000  0.3974660000000 1.0
C      1  0.4702320000000  0.4408260000000  0.4720870000000 1.0
C      1  0.5461810000000  0.5038020000000  0.5782000000000 1.0
C      1  0.5108360000000  0.5348890000000  0.4717860000000 1.0
C      1  0.4846640000000  0.5314330000000  0.5164530000000 1.0
C      1  0.5122170000000  0.5170630000000  0.3909110000000 1.0
C      1  0.4856360000000  0.5351810000000  0.5758300000000 1.0
C      1  0.5723100000000  0.5750560000000  0.5035250000000 1.0
C      1  0.4212940000000  0.5154740000000  0.5517920000000 1.0
C      1  0.4932620000000  0.5345640000000  0.4426530000000 1.0
C      1  0.5181820000000  0.5773550000000  0.5389590000000 1.0
C      1  0.5386660000000  0.5221510000000  0.5505630000000 1.0
C      1  0.4911510000000  0.4443780000000  0.5907220000000 1.0
C      1  0.5418560000000  0.4635390000000  0.4101220000000 1.0
C      1  0.5677140000000  0.4922730000000  0.5298350000000 1.0
C      1  0.4548780000000  0.5124160000000  0.4968270000000 1.0
C      1  0.4920990000000  0.4265670000000  0.4025740000000 1.0
C      1  0.4157920000000  0.4646740000000  0.4647460000000 1.0
C      1  0.4928500000000  0.4529530000000  0.5301350000000 1.0
C      1  0.5341190000000  0.4031160000000  0.4430180000000 1.0
C      1  0.5478590000000  0.5967280000000  0.4427040000000 1.0
C      1  0.5381290000000  0.5545980000000  0.4670050000000 1.0
C      1  0.6001430000000  0.4636940000000  0.5111470000000 1.0
C      1  0.5171790000000  0.5726870000000  0.5076980000000 1.0
C      1  0.5717880000000  0.5517030000000  0.4282860000000 1.0
C      1  0.3987080000000  0.4629810000000  0.4395540000000 1.0
C      1  0.4396900000000  0.5551550000000  0.4793780000000 1.0
C      1  0.4817700000000  0.6022910000000  0.4902490000000 1.0
C      1  0.5053420000000  0.4518410000000  0.4530840000000 1.0
C      1  0.5386810000000  0.5931200000000  0.5510060000000 1.0
C      1  0.4666250000000  0.4405910000000  0.4169350000000 1.0
C      1  0.4378940000000  0.5965020000000  0.5954330000000 1.0
C      1  0.4686290000000  0.4948870000000  0.5186190000000 1.0
C      1  0.5730060000000  0.6011160000000  0.4864370000000 1.0
C      1  0.4377940000000  0.4988540000000  0.5303040000000 1.0
C      1  0.5296180000000  0.5650260000000  0.6081000000000 1.0
C      1  0.5458440000000  0.4766940000000  0.5987570000000 1.0
C      1  0.4705040000000  0.4698920000000  0.5493870000000 1.0
C      1  0.5927350000000  0.5503450000000  0.5000080000000 1.0
C      1  0.4474800000000  0.5580490000000  0.4252840000000 1.0
C      1  0.4682450000000  0.4006440000000  0.5252060000000 1.0
C      1  0.5577100000000  0.4976060000000  0.4587340000000 1.0
C      1  0.4030110000000  0.4632510000000  0.5253390000000 1.0
C      1  0.5701860000000  0.4725510000000  0.5563420000000 1.0
C      1  0.5498840000000  0.5550510000000  0.5823710000000 1.0
C      1  0.5969440000000  0.4974870000000  0.5132530000000 1.0
C      1  0.5039550000000  0.4657160000000  0.4220690000000 1.0
C      1  0.4864530000000  0.4960430000000  0.3872850000000 1.0
C      1  0.5221060000000  0.5161140000000  0.5988190000000 1.0
C      1  0.4726790000000  0.4563840000000  0.4448700000000 1.0
C      1  0.4735440000000  0.5509940000000  0.4203290000000 1.0
C      1  0.4690290000000  0.4310730000000  0.5406680000000 1.0
C      1  0.5747150000000  0.4433770000000  0.5564900000000 1.0
C      1  0.5174280000000  0.5475000000000  0.5499340000000 1.0
C      1  0.5850290000000  0.5101790000000  0.4428370000000 1.0
C      1  0.4654200000000  0.4556080000000  0.5936750000000 1.0
C      1  0.5791640000000  0.4402380000000  0.5057080000000 1.0
C      1  0.4830550000000  0.5810840000000  0.4666360000000 1.0
C      1  0.4922510000000  0.4246940000000  0.5646790000000 1.0
C      1  0.5369370000000  0.4797390000000  0.5559880000000 1.0
C      1  0.5211680000000  0.4899650000000  0.4060170000000 1.0
C      1  0.5457460000000  0.5225090000000  0.4388770000000 1.0
C      1  0.4517200000000  0.4866170000000  0.4793140000000 1.0
C      1  0.4738280000000  0.5664420000000  0.5671320000000 1.0
C      1  0.4985810000000  0.4896410000000  0.5075440000000 1.0
C      1  0.4940170000000  0.5042860000000  0.5622560000000 1.0
C      1  0.5266350000000  0.3838500000000  0.5005700000000 1.0
C      1  0.4544100000000  0.4017720000000  0.5004050000000 1.0
C      1  0.5461930000000  0.4279550000000  0.5611250000000 1.0
C      1  0.4707500000000  0.3945270000000  0.4758520000000 1.0
C      1  0.4869830000000  0.4188230000000  0.4849260000000 1.0
C      1  0.5302980000000  0.3778970000000  0.4421010000000 1.0
C      1  0.4980910000000  0.4679190000000  0.4813770000000 1.0
C      1  0.5275620000000  0.4319410000000  0.4598180000000 1.0
C      1  0.5174480000000  0.4431510000000  0.5608230000000 1.0
C      1  0.4937750000000  0.3999220000000  0.5425310000000 1.0
C      1  0.4269700000000  0.5482840000000  0.4415360000000 1.0
C      1  0.4617180000000  0.5215380000000  0.4451070000000 1.0
C      1  0.5171960000000  0.5456460000000  0.5830160000000 1.0
C      1  0.5170060000000  0.5134290000000  0.4303100000000 1.0
C      1  0.4864290000000  0.5016040000000  0.4212730000000 1.0
C      1  0.5042070000000  0.4263880000000  0.5120350000000 1.0
C      1  0.4075960000000  0.5236420000000  0.4358440000000 1.0
C      1  0.4439700000000  0.5806870000000  0.5708780000000 1.0
C      1  0.5724630000000  0.4246980000000  0.5315910000000 1.0
C      1  0.4476480000000  0.5193810000000  0.6078340000000 1.0
END
