TITL C-2847959-7740-394 0.00135107997202847 125000 -456.036803245646 0 0 89 (C1) n - 1
REM
REM in /home/bkarasulu/work/CARBON/AIRSS/Generating-Clusters/AIREBO/with-SteepDescent/Only-C1/SD-CG-opt/Try1-1.4A-POS3A/HFTN-CG
REM
REM
REM
REM
REM
REM ./C.cell (11c1c37f851c82e70ff6c80c92926a4b)
REM
REM compiler GCC version 9.2.1 20190827 (Red Hat 9.2.1-1)
REM options -cpp -mtune=generic -march=x86-64 -g -O0 -fpre-include=/usr/include/finclude/math-vector-fortran.h
REM seed -1136469797 -370747311 922198066 -667073216 1786038837 879159117 1685753614 935337123 -1786262374 -887462918 1270177616 769891351 1788142928 -392144127 -214162729 -1951798980 -1888085562 -824309525 -1189157755 -452685915 1765605476 -2093853938 -1794321011 -1879993423 246809698 -2023568286 -881658150 -1144167713 -1866713368 -1941539788 1408234458 1610618345 -434428832
REM
CELL 1.54180   50.00000   50.00000   50.00000   90.00000   90.00000   90.00000
LATT -1
SFAC C  
C      1  0.5703910000000  0.4981830000000  0.4940250000000 1.0
C      1  0.5127810000000  0.4812810000000  0.6150150000000 1.0
C      1  0.4402170000000  0.4695040000000  0.4859460000000 1.0
C      1  0.5476040000000  0.5474120000000  0.4807520000000 1.0
C      1  0.5154190000000  0.4561860000000  0.5155980000000 1.0
C      1  0.5746470000000  0.5078470000000  0.4428200000000 1.0
C      1  0.4317790000000  0.4909620000000  0.5359180000000 1.0
C      1  0.5051170000000  0.4642110000000  0.4604360000000 1.0
C      1  0.5156990000000  0.5730970000000  0.5564180000000 1.0
C      1  0.5590240000000  0.4269940000000  0.5010260000000 1.0
C      1  0.4490240000000  0.5769760000000  0.5026150000000 1.0
C      1  0.5506550000000  0.5400480000000  0.5138720000000 1.0
C      1  0.4447110000000  0.5784610000000  0.4754320000000 1.0
C      1  0.5695820000000  0.5122260000000  0.5188850000000 1.0
C      1  0.5198230000000  0.5336610000000  0.5594730000000 1.0
C      1  0.5218690000000  0.5082510000000  0.4490320000000 1.0
C      1  0.4677940000000  0.5147050000000  0.5732380000000 1.0
C      1  0.4829700000000  0.4481150000000  0.5093660000000 1.0
C      1  0.4364280000000  0.4594810000000  0.5335720000000 1.0
C      1  0.4827130000000  0.5042240000000  0.5336640000000 1.0
C      1  0.5258280000000  0.5541100000000  0.5323820000000 1.0
C      1  0.5666100000000  0.4947510000000  0.5431690000000 1.0
C      1  0.5137020000000  0.4432590000000  0.5452140000000 1.0
C      1  0.5289170000000  0.4686940000000  0.4199670000000 1.0
C      1  0.5667970000000  0.5114670000000  0.5685420000000 1.0
C      1  0.4947300000000  0.5829000000000  0.4814030000000 1.0
C      1  0.5469350000000  0.5513690000000  0.4318600000000 1.0
C      1  0.4997810000000  0.5278230000000  0.5174650000000 1.0
C      1  0.5380790000000  0.4768510000000  0.5436450000000 1.0
C      1  0.4792000000000  0.4619240000000  0.4799700000000 1.0
C      1  0.4203910000000  0.5526640000000  0.5193440000000 1.0
C      1  0.5720530000000  0.5604010000000  0.5215680000000 1.0
C      1  0.4759580000000  0.5441260000000  0.5674540000000 1.0
C      1  0.4992690000000  0.5067340000000  0.5631290000000 1.0
C      1  0.4435120000000  0.5002950000000  0.4336320000000 1.0
C      1  0.5264930000000  0.5163790000000  0.5103310000000 1.0
C      1  0.4848100000000  0.5756680000000  0.5582140000000 1.0
C      1  0.5343760000000  0.4843260000000  0.5132350000000 1.0
C      1  0.4478770000000  0.5510190000000  0.4563940000000 1.0
C      1  0.5091880000000  0.4473220000000  0.4245220000000 1.0
C      1  0.4079910000000  0.5425100000000  0.4966470000000 1.0
C      1  0.4443400000000  0.5439420000000  0.5264960000000 1.0
C      1  0.5456400000000  0.4298260000000  0.4770150000000 1.0
C      1  0.4755480000000  0.5627610000000  0.5099540000000 1.0
C      1  0.5050930000000  0.5537940000000  0.5819360000000 1.0
C      1  0.5237560000000  0.4367220000000  0.4637810000000 1.0
C      1  0.4861590000000  0.4708780000000  0.4329650000000 1.0
C      1  0.5595730000000  0.4353610000000  0.5284500000000 1.0
C      1  0.5074500000000  0.4901690000000  0.5916740000000 1.0
C      1  0.5099850000000  0.5364360000000  0.4621730000000 1.0
C      1  0.5475920000000  0.5268270000000  0.5727160000000 1.0
C      1  0.4760240000000  0.5437450000000  0.5359020000000 1.0
C      1  0.5666170000000  0.4611610000000  0.5376920000000 1.0
C      1  0.4530570000000  0.5280900000000  0.4328420000000 1.0
C      1  0.4257200000000  0.4606610000000  0.4576970000000 1.0
C      1  0.4563980000000  0.4733650000000  0.4492250000000 1.0
C      1  0.5170890000000  0.4944090000000  0.4237640000000 1.0
C      1  0.5414630000000  0.4046540000000  0.5632450000000 1.0
C      1  0.4931920000000  0.5491360000000  0.4842780000000 1.0
C      1  0.4933550000000  0.4109390000000  0.4750720000000 1.0
C      1  0.5567460000000  0.4685110000000  0.4168390000000 1.0
C      1  0.4444520000000  0.5040590000000  0.5635490000000 1.0
C      1  0.5886310000000  0.4817310000000  0.4825660000000 1.0
C      1  0.4901020000000  0.4964410000000  0.4126870000000 1.0
C      1  0.4954060000000  0.4858540000000  0.5072080000000 1.0
C      1  0.5387850000000  0.4682200000000  0.4854620000000 1.0
C      1  0.5304220000000  0.5592930000000  0.4553120000000 1.0
C      1  0.4719710000000  0.5210470000000  0.4991340000000 1.0
C      1  0.4886490000000  0.5117300000000  0.4710050000000 1.0
C      1  0.4529760000000  0.5127650000000  0.5254830000000 1.0
C      1  0.4689470000000  0.4418260000000  0.4564610000000 1.0
C      1  0.5100340000000  0.4751250000000  0.5566730000000 1.0
C      1  0.4956580000000  0.4279450000000  0.4467610000000 1.0
C      1  0.5092960000000  0.5669270000000  0.5083460000000 1.0
C      1  0.4722210000000  0.5746430000000  0.4617500000000 1.0
C      1  0.5437820000000  0.5075830000000  0.4824050000000 1.0
C      1  0.4152700000000  0.5135340000000  0.4905030000000 1.0
C      1  0.4645840000000  0.4904980000000  0.4774330000000 1.0
C      1  0.4907360000000  0.4277440000000  0.5511770000000 1.0
C      1  0.5742140000000  0.4882200000000  0.4241790000000 1.0
C      1  0.4215500000000  0.5317950000000  0.4641740000000 1.0
C      1  0.4838640000000  0.4702730000000  0.5351520000000 1.0
C      1  0.4494710000000  0.4521800000000  0.5102460000000 1.0
C      1  0.4178590000000  0.5114070000000  0.4416830000000 1.0
C      1  0.5388930000000  0.4254020000000  0.5456610000000 1.0
C      1  0.4867550000000  0.4177030000000  0.4983020000000 1.0
C      1  0.5142510000000  0.4909620000000  0.4793530000000 1.0
C      1  0.5507430000000  0.5251070000000  0.4552630000000 1.0
C      1  0.4249360000000  0.4921820000000  0.5031630000000 1.0
END
