TITL C-2848497-6229-139 -0.000698639681365941 125000 -663.027054325721 0 0 129 (C1) n - 1
REM
REM in /home/bkarasulu/work/CARBON/AIRSS/Generating-Clusters/AIREBO/with-SteepDescent/Only-C1/SD-CG-opt/Try1-1.4A-POS3A/HFTN-CG
REM
REM
REM
REM
REM
REM ./C.cell (11c1c37f851c82e70ff6c80c92926a4b)
REM
REM compiler GCC version 9.2.1 20190827 (Red Hat 9.2.1-1)
REM options -cpp -mtune=generic -march=x86-64 -g -O0 -fpre-include=/usr/include/finclude/math-vector-fortran.h
REM seed -2048332850 -986711900 995605255 -1580287433 -1837347419 -585170122 -162523050 186876971 -60446236 -820375197 -1167540608 -762727565 1740850740 901016098 532611920 -842535655 467260793 -1294929757 1508156844 -1518663533 -2004325635 1645219530 -1485651586 1384260258 1042891987 1236614822 -2067106231 46396807 1998542092 708537015 -491061164 1405526389 2014231997
REM
CELL 1.54180   50.00000   50.00000   50.00000   90.00000   90.00000   90.00000
LATT -1
SFAC C  
C      1  0.5441290000000  0.4999580000000  0.4596430000000 1.0
C      1  0.4237040000000  0.5152960000000  0.4473940000000 1.0
C      1  0.5112660000000  0.4598390000000  0.5268810000000 1.0
C      1  0.5127160000000  0.5644530000000  0.4958860000000 1.0
C      1  0.4886430000000  0.5763010000000  0.5642660000000 1.0
C      1  0.4620030000000  0.5308050000000  0.4197290000000 1.0
C      1  0.4665820000000  0.3918310000000  0.4626340000000 1.0
C      1  0.5191250000000  0.5133480000000  0.4130150000000 1.0
C      1  0.5273590000000  0.4638970000000  0.4601400000000 1.0
C      1  0.4732750000000  0.5439330000000  0.4908940000000 1.0
C      1  0.5262560000000  0.5468870000000  0.5194520000000 1.0
C      1  0.5862320000000  0.4813960000000  0.4941730000000 1.0
C      1  0.4392810000000  0.5451510000000  0.4946150000000 1.0
C      1  0.5835400000000  0.5028290000000  0.4607360000000 1.0
C      1  0.4478390000000  0.4826490000000  0.5597820000000 1.0
C      1  0.5260050000000  0.4921590000000  0.5908390000000 1.0
C      1  0.5554070000000  0.4549560000000  0.4332130000000 1.0
C      1  0.4760420000000  0.4614920000000  0.4685610000000 1.0
C      1  0.4601030000000  0.5769980000000  0.5557100000000 1.0
C      1  0.4420110000000  0.5081300000000  0.4251440000000 1.0
C      1  0.4546530000000  0.4834940000000  0.4281730000000 1.0
C      1  0.4515360000000  0.5548680000000  0.5313330000000 1.0
C      1  0.4525790000000  0.5216440000000  0.5240600000000 1.0
C      1  0.4681640000000  0.5097860000000  0.5862060000000 1.0
C      1  0.4990670000000  0.5418550000000  0.5392380000000 1.0
C      1  0.4455440000000  0.4608800000000  0.4745570000000 1.0
C      1  0.4829950000000  0.5661560000000  0.5250470000000 1.0
C      1  0.5320130000000  0.5777200000000  0.4656640000000 1.0
C      1  0.5114200000000  0.6038330000000  0.5331350000000 1.0
C      1  0.4523770000000  0.4059950000000  0.4817810000000 1.0
C      1  0.5302410000000  0.5365330000000  0.5636980000000 1.0
C      1  0.5238400000000  0.4130990000000  0.5138550000000 1.0
C      1  0.4151500000000  0.4691460000000  0.5404260000000 1.0
C      1  0.5133560000000  0.5067890000000  0.5628550000000 1.0
C      1  0.4800590000000  0.4847230000000  0.4455510000000 1.0
C      1  0.5632510000000  0.4810540000000  0.5327980000000 1.0
C      1  0.5976910000000  0.4971430000000  0.5210150000000 1.0
C      1  0.4931090000000  0.5488620000000  0.5713710000000 1.0
C      1  0.5597060000000  0.4963960000000  0.4872840000000 1.0
C      1  0.4666570000000  0.5080600000000  0.4751260000000 1.0
C      1  0.4562050000000  0.5320070000000  0.4532100000000 1.0
C      1  0.4358460000000  0.4293390000000  0.4732390000000 1.0
C      1  0.4370250000000  0.4624970000000  0.4355400000000 1.0
C      1  0.4459840000000  0.5164600000000  0.5630220000000 1.0
C      1  0.5261900000000  0.4660590000000  0.5907550000000 1.0
C      1  0.4976570000000  0.4767050000000  0.5651430000000 1.0
C      1  0.4760460000000  0.4163530000000  0.5350480000000 1.0
C      1  0.4892160000000  0.4620820000000  0.4126900000000 1.0
C      1  0.4960460000000  0.5919120000000  0.5070880000000 1.0
C      1  0.5973500000000  0.5127990000000  0.4901740000000 1.0
C      1  0.5415960000000  0.4650710000000  0.5134370000000 1.0
C      1  0.4275510000000  0.4989750000000  0.5297920000000 1.0
C      1  0.5238570000000  0.4561290000000  0.5582950000000 1.0
C      1  0.4159090000000  0.5343880000000  0.5158270000000 1.0
C      1  0.5138010000000  0.5854290000000  0.5532110000000 1.0
C      1  0.5410920000000  0.5273380000000  0.4307360000000 1.0
C      1  0.4370080000000  0.4794900000000  0.4966780000000 1.0
C      1  0.5809020000000  0.4561470000000  0.4764490000000 1.0
C      1  0.4529740000000  0.4377810000000  0.5416770000000 1.0
C      1  0.5531690000000  0.4732210000000  0.5625210000000 1.0
C      1  0.5774340000000  0.4515620000000  0.5557140000000 1.0
C      1  0.4953770000000  0.4374220000000  0.5658100000000 1.0
C      1  0.5293800000000  0.4350180000000  0.4422580000000 1.0
C      1  0.4260870000000  0.5395050000000  0.5478760000000 1.0
C      1  0.5097940000000  0.5048140000000  0.5290770000000 1.0
C      1  0.5331140000000  0.4976160000000  0.5084460000000 1.0
C      1  0.5481890000000  0.4582560000000  0.4837330000000 1.0
C      1  0.4912400000000  0.5261110000000  0.5101290000000 1.0
C      1  0.4828850000000  0.5571970000000  0.4225930000000 1.0
C      1  0.4752820000000  0.5184830000000  0.5458780000000 1.0
C      1  0.5926170000000  0.4646430000000  0.5296710000000 1.0
C      1  0.4165130000000  0.5095600000000  0.4733020000000 1.0
C      1  0.5614630000000  0.5546830000000  0.4523710000000 1.0
C      1  0.4533340000000  0.5595820000000  0.4600850000000 1.0
C      1  0.4666700000000  0.4480780000000  0.5130610000000 1.0
C      1  0.4208680000000  0.4432820000000  0.5005940000000 1.0
C      1  0.5136810000000  0.4855850000000  0.4088040000000 1.0
C      1  0.5154340000000  0.4365180000000  0.4907580000000 1.0
C      1  0.5671320000000  0.5658860000000  0.5115310000000 1.0
C      1  0.5012630000000  0.5435310000000  0.4715670000000 1.0
C      1  0.4789500000000  0.4917860000000  0.5261200000000 1.0
C      1  0.5612120000000  0.5813790000000  0.4817450000000 1.0
C      1  0.4917870000000  0.5240150000000  0.5827110000000 1.0
C      1  0.5493660000000  0.4324960000000  0.5193610000000 1.0
C      1  0.4423770000000  0.5113130000000  0.4933150000000 1.0
C      1  0.4944170000000  0.5253500000000  0.4251280000000 1.0
C      1  0.4806920000000  0.4435750000000  0.4400120000000 1.0
C      1  0.5456360000000  0.5108350000000  0.5529540000000 1.0
C      1  0.4255150000000  0.4458040000000  0.5291750000000 1.0
C      1  0.5029720000000  0.5644900000000  0.4448460000000 1.0
C      1  0.5347270000000  0.5602070000000  0.4366420000000 1.0
C      1  0.5660160000000  0.4749220000000  0.4523050000000 1.0
C      1  0.5020550000000  0.6152190000000  0.4830620000000 1.0
C      1  0.5148100000000  0.4937590000000  0.4704850000000 1.0
C      1  0.5721500000000  0.5190800000000  0.4380040000000 1.0
C      1  0.4633760000000  0.6013260000000  0.5063750000000 1.0
C      1  0.4505190000000  0.5740810000000  0.5032830000000 1.0
C      1  0.5403610000000  0.4284210000000  0.4717580000000 1.0
C      1  0.4998930000000  0.5890050000000  0.4674060000000 1.0
C      1  0.4750460000000  0.4832170000000  0.5890710000000 1.0
C      1  0.5315700000000  0.5305490000000  0.4632190000000 1.0
C      1  0.5453460000000  0.5277550000000  0.5072660000000 1.0
C      1  0.5682920000000  0.5014860000000  0.5741100000000 1.0
C      1  0.5816250000000  0.5372210000000  0.5006410000000 1.0
C      1  0.5385380000000  0.5813990000000  0.5038940000000 1.0
C      1  0.3924090000000  0.4653910000000  0.4644250000000 1.0
C      1  0.5349370000000  0.5624890000000  0.5469050000000 1.0
C      1  0.4489370000000  0.4375690000000  0.4426840000000 1.0
C      1  0.5646010000000  0.5463080000000  0.5392400000000 1.0
C      1  0.4520590000000  0.4755630000000  0.5267830000000 1.0
C      1  0.5571500000000  0.5416540000000  0.4798080000000 1.0
C      1  0.5771450000000  0.4450650000000  0.5078720000000 1.0
C      1  0.5685130000000  0.5143470000000  0.5282420000000 1.0
C      1  0.4045250000000  0.4717980000000  0.4939470000000 1.0
C      1  0.4696020000000  0.4585250000000  0.5590060000000 1.0
C      1  0.4925570000000  0.5146380000000  0.4558500000000 1.0
C      1  0.4049340000000  0.5041980000000  0.5049150000000 1.0
C      1  0.5014100000000  0.4216220000000  0.4426530000000 1.0
C      1  0.4709840000000  0.4152630000000  0.5036670000000 1.0
C      1  0.5084280000000  0.4721460000000  0.4376270000000 1.0
C      1  0.4935470000000  0.4613590000000  0.4978570000000 1.0
C      1  0.4917640000000  0.4952010000000  0.4948030000000 1.0
C      1  0.4192730000000  0.4733210000000  0.4568250000000 1.0
C      1  0.4940490000000  0.4011950000000  0.4612050000000 1.0
C      1  0.4991520000000  0.4088650000000  0.4906500000000 1.0
C      1  0.5795860000000  0.5283740000000  0.5639960000000 1.0
C      1  0.5497900000000  0.4356670000000  0.5502190000000 1.0
C      1  0.4729500000000  0.5752900000000  0.4777460000000 1.0
C      1  0.5063430000000  0.4276030000000  0.5365140000000 1.0
END
