TITL C-2847947-6848-603 0.00024047343778153 125000 -799.801494950023 0 0 152 (C1) n - 1
REM
REM in /home/bkarasulu/work/CARBON/AIRSS/Generating-Clusters/AIREBO/with-SteepDescent/Only-C1/SD-CG-opt/Try1-1.4A-POS3A/HFTN-CG
REM
REM
REM
REM
REM
REM ./C.cell (11c1c37f851c82e70ff6c80c92926a4b)
REM
REM compiler GCC version 9.2.1 20190827 (Red Hat 9.2.1-1)
REM options -cpp -mtune=generic -march=x86-64 -g -O0 -fpre-include=/usr/include/finclude/math-vector-fortran.h
REM seed 1280289344 -52064384 1220961182 1937846139 137160374 -567586715 -680054915 -1180279919 1565087228 -1689629055 1344077151 -745887108 1560641923 1749038055 -1581500062 -1443441151 1497328935 -157299912 -667205389 -1038640773 -1137099607 1632019802 1009721129 524699352 -4852604 1653151665 1271614632 -870605092 -1130729260 -275870608 60446296 2000814907 -714078445
REM
CELL 1.54180   50.00000   50.00000   50.00000   90.00000   90.00000   90.00000
LATT -1
SFAC C  
C      1  0.5252060000000  0.5939800000000  0.5144560000000 1.0
C      1  0.5369640000000  0.4076120000000  0.5041910000000 1.0
C      1  0.4228380000000  0.4428750000000  0.4964910000000 1.0
C      1  0.5364650000000  0.5042510000000  0.5975750000000 1.0
C      1  0.4716240000000  0.5701680000000  0.5533470000000 1.0
C      1  0.4474580000000  0.4357840000000  0.5712460000000 1.0
C      1  0.4812570000000  0.5623520000000  0.5215960000000 1.0
C      1  0.5047400000000  0.4151760000000  0.5033330000000 1.0
C      1  0.4872870000000  0.5947090000000  0.5264070000000 1.0
C      1  0.5721410000000  0.5134850000000  0.5092830000000 1.0
C      1  0.5350460000000  0.5411910000000  0.5259530000000 1.0
C      1  0.5852990000000  0.4697740000000  0.4553730000000 1.0
C      1  0.5531800000000  0.4405300000000  0.4029590000000 1.0
C      1  0.4882030000000  0.3842990000000  0.4845950000000 1.0
C      1  0.5614780000000  0.4166180000000  0.5090310000000 1.0
C      1  0.5388570000000  0.5283550000000  0.5753210000000 1.0
C      1  0.5841850000000  0.5152500000000  0.5647190000000 1.0
C      1  0.4612540000000  0.4463550000000  0.5114280000000 1.0
C      1  0.5179440000000  0.4464960000000  0.5045230000000 1.0
C      1  0.5340100000000  0.4552730000000  0.4543490000000 1.0
C      1  0.5336470000000  0.6020120000000  0.5365490000000 1.0
C      1  0.5014220000000  0.5065060000000  0.4723450000000 1.0
C      1  0.5284450000000  0.5826420000000  0.4348890000000 1.0
C      1  0.4302560000000  0.4570690000000  0.5475820000000 1.0
C      1  0.5732460000000  0.5230430000000  0.4270790000000 1.0
C      1  0.5129330000000  0.4883420000000  0.3859370000000 1.0
C      1  0.4574740000000  0.4150670000000  0.5245210000000 1.0
C      1  0.4408280000000  0.4709600000000  0.5222320000000 1.0
C      1  0.4733400000000  0.4662820000000  0.4601480000000 1.0
C      1  0.5627360000000  0.5430850000000  0.5099440000000 1.0
C      1  0.5296200000000  0.4727930000000  0.5540420000000 1.0
C      1  0.5677510000000  0.5377480000000  0.5709220000000 1.0
C      1  0.4564590000000  0.5764840000000  0.4741010000000 1.0
C      1  0.4738640000000  0.4149250000000  0.4881350000000 1.0
C      1  0.5239370000000  0.5575900000000  0.4218230000000 1.0
C      1  0.5548540000000  0.4430240000000  0.5632020000000 1.0
C      1  0.4916180000000  0.4312310000000  0.4543820000000 1.0
C      1  0.5332470000000  0.5047610000000  0.5513860000000 1.0
C      1  0.5481320000000  0.5006320000000  0.4318930000000 1.0
C      1  0.5819550000000  0.4755500000000  0.5369200000000 1.0
C      1  0.4697930000000  0.4543630000000  0.5433590000000 1.0
C      1  0.5350190000000  0.4435610000000  0.4224430000000 1.0
C      1  0.5099960000000  0.5655410000000  0.5036740000000 1.0
C      1  0.4578920000000  0.5274330000000  0.4795060000000 1.0
C      1  0.5010630000000  0.4672040000000  0.6006480000000 1.0
C      1  0.5361830000000  0.5268710000000  0.4138410000000 1.0
C      1  0.4027240000000  0.5159220000000  0.5347510000000 1.0
C      1  0.5309960000000  0.4882930000000  0.5134130000000 1.0
C      1  0.5060300000000  0.4990240000000  0.6016520000000 1.0
C      1  0.5178350000000  0.5162740000000  0.3918090000000 1.0
C      1  0.4837760000000  0.6060580000000  0.4729930000000 1.0
C      1  0.4233710000000  0.4858310000000  0.4793230000000 1.0
C      1  0.5962940000000  0.4614860000000  0.4318720000000 1.0
C      1  0.4233770000000  0.5419590000000  0.5419490000000 1.0
C      1  0.4297100000000  0.5137920000000  0.4927730000000 1.0
C      1  0.4798040000000  0.5126810000000  0.4960800000000 1.0
C      1  0.5501530000000  0.5918470000000  0.4795770000000 1.0
C      1  0.4562680000000  0.4542950000000  0.4260830000000 1.0
C      1  0.4383240000000  0.5303860000000  0.5669590000000 1.0
C      1  0.5378510000000  0.5807700000000  0.5598410000000 1.0
C      1  0.4925570000000  0.5283410000000  0.3898380000000 1.0
C      1  0.4983720000000  0.4961780000000  0.4419390000000 1.0
C      1  0.5051310000000  0.5772870000000  0.5496920000000 1.0
C      1  0.4874530000000  0.4814920000000  0.3979730000000 1.0
C      1  0.4202950000000  0.5420260000000  0.4634500000000 1.0
C      1  0.4940080000000  0.4784180000000  0.5233000000000 1.0
C      1  0.5319010000000  0.5171760000000  0.5022550000000 1.0
C      1  0.5508920000000  0.4579920000000  0.5935270000000 1.0
C      1  0.5016520000000  0.4474990000000  0.5343620000000 1.0
C      1  0.5016310000000  0.4991770000000  0.5442870000000 1.0
C      1  0.4414920000000  0.5924970000000  0.5197710000000 1.0
C      1  0.4319180000000  0.5030730000000  0.5229250000000 1.0
C      1  0.4033240000000  0.4847750000000  0.5208080000000 1.0
C      1  0.5010670000000  0.3996430000000  0.4631650000000 1.0
C      1  0.4309540000000  0.4237370000000  0.5440700000000 1.0
C      1  0.5617150000000  0.5571260000000  0.4647560000000 1.0
C      1  0.5576450000000  0.4855720000000  0.5970330000000 1.0
C      1  0.4617820000000  0.5082910000000  0.4547320000000 1.0
C      1  0.5059830000000  0.4451160000000  0.4268700000000 1.0
C      1  0.4817990000000  0.5693930000000  0.4408070000000 1.0
C      1  0.5918570000000  0.5141210000000  0.5369910000000 1.0
C      1  0.4643960000000  0.4857680000000  0.5546100000000 1.0
C      1  0.4371260000000  0.4222180000000  0.4623070000000 1.0
C      1  0.4731390000000  0.4227520000000  0.5537080000000 1.0
C      1  0.4824890000000  0.3933190000000  0.5168820000000 1.0
C      1  0.5662080000000  0.5622350000000  0.5566590000000 1.0
C      1  0.5640540000000  0.4406000000000  0.5307200000000 1.0
C      1  0.4127480000000  0.5455160000000  0.5101040000000 1.0
C      1  0.4478080000000  0.5365970000000  0.4304480000000 1.0
C      1  0.3977570000000  0.5253760000000  0.4917880000000 1.0
C      1  0.4687500000000  0.5069220000000  0.3985090000000 1.0
C      1  0.4668900000000  0.4853700000000  0.5057950000000 1.0
C      1  0.4611580000000  0.4319560000000  0.4436910000000 1.0
C      1  0.5802620000000  0.4656880000000  0.5624770000000 1.0
C      1  0.4880480000000  0.5247290000000  0.5332830000000 1.0
C      1  0.4315240000000  0.4733500000000  0.5735290000000 1.0
C      1  0.5905020000000  0.5447560000000  0.4679530000000 1.0
C      1  0.4851010000000  0.5204310000000  0.5873290000000 1.0
C      1  0.5192990000000  0.5282040000000  0.4531780000000 1.0
C      1  0.5030370000000  0.5919420000000  0.4487240000000 1.0
C      1  0.5966900000000  0.4920620000000  0.4862240000000 1.0
C      1  0.4582990000000  0.5140120000000  0.5365470000000 1.0
C      1  0.4439520000000  0.5682590000000  0.5347250000000 1.0
C      1  0.5058540000000  0.4825840000000  0.4926840000000 1.0
C      1  0.4891850000000  0.4925920000000  0.5723980000000 1.0
C      1  0.5918720000000  0.4586180000000  0.4843200000000 1.0
C      1  0.4772660000000  0.5194220000000  0.4288650000000 1.0
C      1  0.4958510000000  0.4537240000000  0.4797010000000 1.0
C      1  0.4385420000000  0.5021570000000  0.5692260000000 1.0
C      1  0.5636180000000  0.4859290000000  0.4912020000000 1.0
C      1  0.5036980000000  0.5322060000000  0.5060320000000 1.0
C      1  0.5675390000000  0.4984570000000  0.4597370000000 1.0
C      1  0.5398130000000  0.4626310000000  0.4840680000000 1.0
C      1  0.4773850000000  0.5504490000000  0.4686950000000 1.0
C      1  0.5262520000000  0.4813680000000  0.4376640000000 1.0
C      1  0.4319040000000  0.4749350000000  0.4273450000000 1.0
C      1  0.4050720000000  0.5164200000000  0.4614550000000 1.0
C      1  0.4552170000000  0.4876680000000  0.4766800000000 1.0
C      1  0.4496800000000  0.5630620000000  0.4431910000000 1.0
C      1  0.4285280000000  0.4549810000000  0.4546860000000 1.0
C      1  0.4514550000000  0.4482220000000  0.4788990000000 1.0
C      1  0.5500470000000  0.5382190000000  0.4445560000000 1.0
C      1  0.5219740000000  0.4340350000000  0.5578660000000 1.0
C      1  0.5393660000000  0.4587150000000  0.5279450000000 1.0
C      1  0.4110380000000  0.4847770000000  0.4507330000000 1.0
C      1  0.5245070000000  0.4225750000000  0.4541580000000 1.0
C      1  0.4089120000000  0.4673280000000  0.4984210000000 1.0
C      1  0.4405630000000  0.4136380000000  0.4950390000000 1.0
C      1  0.5241180000000  0.5494060000000  0.5975850000000 1.0
C      1  0.4993540000000  0.4145350000000  0.5602700000000 1.0
C      1  0.4947120000000  0.5388310000000  0.5603940000000 1.0
C      1  0.4962910000000  0.5749850000000  0.4774230000000 1.0
C      1  0.4415520000000  0.5059290000000  0.4171610000000 1.0
C      1  0.5219250000000  0.4559630000000  0.5813730000000 1.0
C      1  0.4643780000000  0.5446680000000  0.5746490000000 1.0
C      1  0.5514180000000  0.5856810000000  0.4502620000000 1.0
C      1  0.4380630000000  0.5528310000000  0.4903650000000 1.0
C      1  0.5799780000000  0.4899090000000  0.5793740000000 1.0
C      1  0.4980970000000  0.5424550000000  0.4341060000000 1.0
C      1  0.5405150000000  0.5135370000000  0.4738330000000 1.0
C      1  0.4662320000000  0.5968500000000  0.4996500000000 1.0
C      1  0.4558850000000  0.5419330000000  0.5172100000000 1.0
C      1  0.5284950000000  0.4728350000000  0.3705930000000 1.0
C      1  0.5938130000000  0.5179590000000  0.4689840000000 1.0
C      1  0.5835190000000  0.4397820000000  0.5027300000000 1.0
C      1  0.5770580000000  0.5615670000000  0.5314710000000 1.0
C      1  0.5418630000000  0.5617480000000  0.4923550000000 1.0
C      1  0.5011840000000  0.5570000000000  0.5884070000000 1.0
C      1  0.4377460000000  0.4549620000000  0.5958340000000 1.0
C      1  0.5580460000000  0.4938870000000  0.5306120000000 1.0
C      1  0.5251710000000  0.5499860000000  0.5529250000000 1.0
C      1  0.4851280000000  0.4691890000000  0.4283750000000 1.0
END
