TITL C-2848501-3133-163 0.000755037453822112 125000 -952.746285744716 0 0 177 (C1) n - 1
REM
REM in /home/bkarasulu/work/CARBON/AIRSS/Generating-Clusters/AIREBO/with-SteepDescent/Only-C1/SD-CG-opt/Try1-1.4A-POS3A/HFTN-CG
REM
REM
REM
REM
REM
REM ./C.cell (11c1c37f851c82e70ff6c80c92926a4b)
REM
REM compiler GCC version 9.2.1 20190827 (Red Hat 9.2.1-1)
REM options -cpp -mtune=generic -march=x86-64 -g -O0 -fpre-include=/usr/include/finclude/math-vector-fortran.h
REM seed -829858440 -1831749650 -1721928688 822524655 -1480078815 231171045 1468447922 1275743331 1652695949 493531664 909914848 -1577068558 -30578870 -717073347 1960335651 1185624037 644324211 -1432684678 729235580 180588732 -1151679792 -1003772118 1816911978 -1644467565 1042660308 1916185554 1467550408 -652213747 -805326713 1210643581 -1755490786 -1459588377 -2039742217
REM
CELL 1.54180   50.00000   50.00000   50.00000   90.00000   90.00000   90.00000
LATT -1
SFAC C  
C      1  0.4496540000000  0.4933390000000  0.4014270000000 1.0
C      1  0.4993120000000  0.5794990000000  0.4838550000000 1.0
C      1  0.5255130000000  0.5406170000000  0.5443970000000 1.0
C      1  0.3998060000000  0.5121100000000  0.5260530000000 1.0
C      1  0.4501650000000  0.4616110000000  0.5216420000000 1.0
C      1  0.5202990000000  0.4917480000000  0.4546430000000 1.0
C      1  0.5135220000000  0.4491910000000  0.3924410000000 1.0
C      1  0.5021990000000  0.4943800000000  0.5679420000000 1.0
C      1  0.5131610000000  0.4425960000000  0.5082200000000 1.0
C      1  0.4698760000000  0.4090980000000  0.4971800000000 1.0
C      1  0.5399760000000  0.5095840000000  0.3859940000000 1.0
C      1  0.4520320000000  0.4783400000000  0.5720550000000 1.0
C      1  0.5545740000000  0.5065550000000  0.4847300000000 1.0
C      1  0.5659190000000  0.5714000000000  0.5555660000000 1.0
C      1  0.5761230000000  0.4596400000000  0.4426840000000 1.0
C      1  0.4575230000000  0.5167250000000  0.4465330000000 1.0
C      1  0.5439680000000  0.4707680000000  0.4415710000000 1.0
C      1  0.5344130000000  0.5445380000000  0.4144880000000 1.0
C      1  0.5545390000000  0.5314500000000  0.3952510000000 1.0
C      1  0.5127260000000  0.3967420000000  0.4870090000000 1.0
C      1  0.5972700000000  0.5327060000000  0.4563180000000 1.0
C      1  0.5089620000000  0.4092600000000  0.5147190000000 1.0
C      1  0.5250160000000  0.5247660000000  0.6021990000000 1.0
C      1  0.4803090000000  0.4365200000000  0.5145990000000 1.0
C      1  0.5579010000000  0.5284880000000  0.4514740000000 1.0
C      1  0.5413730000000  0.5593880000000  0.4844830000000 1.0
C      1  0.4655360000000  0.5188480000000  0.5504050000000 1.0
C      1  0.4603380000000  0.5618940000000  0.5001450000000 1.0
C      1  0.4393370000000  0.5383370000000  0.4954420000000 1.0
C      1  0.4744930000000  0.5350780000000  0.5964140000000 1.0
C      1  0.4785390000000  0.4235610000000  0.4439070000000 1.0
C      1  0.4876190000000  0.5224730000000  0.5691920000000 1.0
C      1  0.4532290000000  0.5525440000000  0.5876370000000 1.0
C      1  0.5916100000000  0.6243350000000  0.4720960000000 1.0
C      1  0.4924750000000  0.3987800000000  0.4633260000000 1.0
C      1  0.4417360000000  0.4600450000000  0.4724920000000 1.0
C      1  0.5970590000000  0.5370670000000  0.5028680000000 1.0
C      1  0.5716300000000  0.5244510000000  0.5314190000000 1.0
C      1  0.5234020000000  0.5873250000000  0.5065660000000 1.0
C      1  0.5564960000000  0.4386830000000  0.5664470000000 1.0
C      1  0.4904990000000  0.4269840000000  0.5944930000000 1.0
C      1  0.5816740000000  0.4374200000000  0.5192900000000 1.0
C      1  0.4657810000000  0.4653210000000  0.4522950000000 1.0
C      1  0.4898300000000  0.5510170000000  0.4959340000000 1.0
C      1  0.5207350000000  0.5066210000000  0.5418610000000 1.0
C      1  0.4477850000000  0.5841460000000  0.5431030000000 1.0
C      1  0.4436770000000  0.4386750000000  0.5533130000000 1.0
C      1  0.4346450000000  0.5149400000000  0.5590770000000 1.0
C      1  0.4472020000000  0.5373060000000  0.5285110000000 1.0
C      1  0.5073650000000  0.4079120000000  0.4341740000000 1.0
C      1  0.4919900000000  0.4574860000000  0.4169120000000 1.0
C      1  0.4286420000000  0.5588300000000  0.4333690000000 1.0
C      1  0.4416280000000  0.4358950000000  0.5049450000000 1.0
C      1  0.4304660000000  0.4350530000000  0.5825040000000 1.0
C      1  0.4830910000000  0.4290070000000  0.4755210000000 1.0
C      1  0.4130720000000  0.5269690000000  0.4149450000000 1.0
C      1  0.4038290000000  0.4794970000000  0.5754220000000 1.0
C      1  0.3951110000000  0.4771950000000  0.4853120000000 1.0
C      1  0.4638280000000  0.5743550000000  0.5693680000000 1.0
C      1  0.4908170000000  0.4556500000000  0.5973460000000 1.0
C      1  0.5388350000000  0.4427540000000  0.4072330000000 1.0
C      1  0.5174240000000  0.5019130000000  0.4099000000000 1.0
C      1  0.4864510000000  0.6013600000000  0.4533970000000 1.0
C      1  0.4646620000000  0.4801960000000  0.5009550000000 1.0
C      1  0.5813020000000  0.5416900000000  0.4333410000000 1.0
C      1  0.4319140000000  0.4538730000000  0.4344660000000 1.0
C      1  0.5810860000000  0.4420410000000  0.4672200000000 1.0
C      1  0.5681680000000  0.5115720000000  0.5791760000000 1.0
C      1  0.5479620000000  0.5864710000000  0.4715870000000 1.0
C      1  0.4392270000000  0.4925760000000  0.6202290000000 1.0
C      1  0.4237770000000  0.4824820000000  0.4448800000000 1.0
C      1  0.4696770000000  0.5132710000000  0.5019190000000 1.0
C      1  0.4960200000000  0.5465080000000  0.5285200000000 1.0
C      1  0.5145170000000  0.4759300000000  0.5015180000000 1.0
C      1  0.5676850000000  0.5510130000000  0.5128050000000 1.0
C      1  0.4591010000000  0.3955710000000  0.5329460000000 1.0
C      1  0.5639940000000  0.5443810000000  0.5544910000000 1.0
C      1  0.5377030000000  0.5784310000000  0.4168530000000 1.0
C      1  0.5757560000000  0.4453320000000  0.5468470000000 1.0
C      1  0.5483110000000  0.4581860000000  0.5859420000000 1.0
C      1  0.4387490000000  0.5163180000000  0.4744060000000 1.0
C      1  0.5388110000000  0.4790370000000  0.4802080000000 1.0
C      1  0.4005970000000  0.5583610000000  0.4525870000000 1.0
C      1  0.5070620000000  0.5640070000000  0.4198770000000 1.0
C      1  0.4821070000000  0.4573810000000  0.4878030000000 1.0
C      1  0.4588000000000  0.4866640000000  0.6020640000000 1.0
C      1  0.4456260000000  0.4217400000000  0.4777410000000 1.0
C      1  0.5666300000000  0.3945860000000  0.4838220000000 1.0
C      1  0.5158550000000  0.4371500000000  0.4300650000000 1.0
C      1  0.5842150000000  0.5035480000000  0.4682960000000 1.0
C      1  0.4943730000000  0.5761260000000  0.5657230000000 1.0
C      1  0.4421210000000  0.5066210000000  0.5207060000000 1.0
C      1  0.4906160000000  0.4843050000000  0.5231750000000 1.0
C      1  0.4613800000000  0.4866250000000  0.5403850000000 1.0
C      1  0.5983440000000  0.5094380000000  0.5374190000000 1.0
C      1  0.5413340000000  0.5316990000000  0.5731590000000 1.0
C      1  0.5402130000000  0.4503890000000  0.5262310000000 1.0
C      1  0.5630320000000  0.5373170000000  0.4820240000000 1.0
C      1  0.5237710000000  0.4503580000000  0.4569600000000 1.0
C      1  0.6070740000000  0.4855050000000  0.5173980000000 1.0
C      1  0.5108250000000  0.5047210000000  0.3764320000000 1.0
C      1  0.5564080000000  0.4748440000000  0.5090250000000 1.0
C      1  0.4098770000000  0.5070370000000  0.4598720000000 1.0
C      1  0.5043210000000  0.5501360000000  0.5677880000000 1.0
C      1  0.4776760000000  0.6055900000000  0.5101230000000 1.0
C      1  0.5642360000000  0.4459400000000  0.4928950000000 1.0
C      1  0.5285590000000  0.5195230000000  0.4367830000000 1.0
C      1  0.5602680000000  0.4968080000000  0.4451030000000 1.0
C      1  0.5188790000000  0.5468890000000  0.4539690000000 1.0
C      1  0.5797090000000  0.4745830000000  0.5338050000000 1.0
C      1  0.5590000000000  0.4595140000000  0.6105430000000 1.0
C      1  0.4632050000000  0.4446210000000  0.4254450000000 1.0
C      1  0.4111500000000  0.4530940000000  0.4857900000000 1.0
C      1  0.4229790000000  0.5652710000000  0.4868340000000 1.0
C      1  0.4212500000000  0.4549450000000  0.5332300000000 1.0
C      1  0.5496550000000  0.5038540000000  0.5254480000000 1.0
C      1  0.4181310000000  0.4849100000000  0.5170640000000 1.0
C      1  0.4821290000000  0.4682200000000  0.5690630000000 1.0
C      1  0.5971080000000  0.4827900000000  0.4431560000000 1.0
C      1  0.5636030000000  0.4467220000000  0.4158160000000 1.0
C      1  0.5988710000000  0.5082740000000  0.4975860000000 1.0
C      1  0.5174620000000  0.5386240000000  0.4841830000000 1.0
C      1  0.4772900000000  0.4418070000000  0.5481720000000 1.0
C      1  0.6289640000000  0.4696600000000  0.5132440000000 1.0
C      1  0.4832240000000  0.5588720000000  0.4024210000000 1.0
C      1  0.5236970000000  0.4727520000000  0.5423990000000 1.0
C      1  0.4004590000000  0.5282420000000  0.4403800000000 1.0
C      1  0.5010330000000  0.6010980000000  0.5239720000000 1.0
C      1  0.4982300000000  0.5153890000000  0.6068830000000 1.0
C      1  0.6066780000000  0.5484020000000  0.4781280000000 1.0
C      1  0.5001490000000  0.5746470000000  0.4501910000000 1.0
C      1  0.4263440000000  0.4633880000000  0.5795410000000 1.0
C      1  0.4343750000000  0.4870990000000  0.4871300000000 1.0
C      1  0.4983840000000  0.5156440000000  0.5180660000000 1.0
C      1  0.5418080000000  0.4042020000000  0.4763140000000 1.0
C      1  0.5680880000000  0.6027500000000  0.5570540000000 1.0
C      1  0.3994070000000  0.5098860000000  0.4921260000000 1.0
C      1  0.4072360000000  0.4976050000000  0.5558940000000 1.0
C      1  0.5346350000000  0.4357680000000  0.4827320000000 1.0
C      1  0.5355230000000  0.4168020000000  0.5288040000000 1.0
C      1  0.5088510000000  0.5952290000000  0.5510280000000 1.0
C      1  0.5229050000000  0.5104620000000  0.4966760000000 1.0
C      1  0.4891090000000  0.5047820000000  0.4507040000000 1.0
C      1  0.4292310000000  0.5420980000000  0.5762120000000 1.0
C      1  0.4566750000000  0.5851800000000  0.5150900000000 1.0
C      1  0.5325250000000  0.4259830000000  0.5567560000000 1.0
C      1  0.4606040000000  0.3791970000000  0.5085480000000 1.0
C      1  0.4807590000000  0.5253220000000  0.4755910000000 1.0
C      1  0.4462880000000  0.5361980000000  0.4248020000000 1.0
C      1  0.5800300000000  0.4973400000000  0.5595320000000 1.0
C      1  0.4358090000000  0.4171340000000  0.5306240000000 1.0
C      1  0.5800450000000  0.5282230000000  0.4068700000000 1.0
C      1  0.4685950000000  0.5981520000000  0.4793010000000 1.0
C      1  0.5846630000000  0.5034450000000  0.4223670000000 1.0
C      1  0.4535840000000  0.4874130000000  0.4322200000000 1.0
C      1  0.5284200000000  0.4741280000000  0.5756040000000 1.0
C      1  0.4235550000000  0.5838050000000  0.4514910000000 1.0
C      1  0.5408360000000  0.5643640000000  0.5252400000000 1.0
C      1  0.5396340000000  0.5711130000000  0.4464350000000 1.0
C      1  0.4226910000000  0.4351360000000  0.4593230000000 1.0
C      1  0.5683690000000  0.6122450000000  0.4765420000000 1.0
C      1  0.4879950000000  0.4875870000000  0.6071740000000 1.0
C      1  0.4951180000000  0.4869450000000  0.4240700000000 1.0
C      1  0.4406590000000  0.5866950000000  0.4751430000000 1.0
C      1  0.5543560000000  0.5154420000000  0.6067880000000 1.0
C      1  0.4861060000000  0.4038110000000  0.5395630000000 1.0
C      1  0.4025510000000  0.5405110000000  0.4804540000000 1.0
C      1  0.5107370000000  0.4451480000000  0.5534060000000 1.0
C      1  0.4876460000000  0.4160670000000  0.5678370000000 1.0
C      1  0.4975840000000  0.4675840000000  0.4621850000000 1.0
C      1  0.5426740000000  0.6094910000000  0.4947530000000 1.0
C      1  0.5381620000000  0.5893350000000  0.5478710000000 1.0
C      1  0.4093100000000  0.4319750000000  0.5125730000000 1.0
C      1  0.5290980000000  0.3926260000000  0.4485760000000 1.0
C      1  0.4384990000000  0.5183920000000  0.3984940000000 1.0
C      1  0.4103680000000  0.5357980000000  0.5484100000000 1.0
C      1  0.4695530000000  0.5572350000000  0.5405520000000 1.0
END
