TITL C-2848504-8560-500 -0.00278710822041004 125000 -1000.93407064625 0 0 185 (C1) n - 1
REM
REM in /home/bkarasulu/work/CARBON/AIRSS/Generating-Clusters/AIREBO/with-SteepDescent/Only-C1/SD-CG-opt/Try1-1.4A-POS3A/HFTN-CG
REM
REM
REM
REM
REM
REM ./C.cell (11c1c37f851c82e70ff6c80c92926a4b)
REM
REM compiler GCC version 9.2.1 20190827 (Red Hat 9.2.1-1)
REM options -cpp -mtune=generic -march=x86-64 -g -O0 -fpre-include=/usr/include/finclude/math-vector-fortran.h
REM seed -1752964544 407842038 2132884298 368462557 -67903497 2072015897 -1659880501 1784307779 -1393488245 1428541635 1621933046 -1133355902 -262644172 -536708781 858803262 -35419755 1977292065 -843958047 629828461 -1606746055 216588301 1960503789 -1075698348 -1074545733 -623831716 1170148502 -646731392 1296423818 -864812671 -130758912 1325194836 -299050181 1149721651
REM
CELL 1.54180   50.00000   50.00000   50.00000   90.00000   90.00000   90.00000
LATT -1
SFAC C  
C      1  0.5113960000000  0.4908600000000  0.6052850000000 1.0
C      1  0.4063290000000  0.4696270000000  0.4818220000000 1.0
C      1  0.5733640000000  0.5184650000000  0.5748310000000 1.0
C      1  0.5162420000000  0.4197480000000  0.5745820000000 1.0
C      1  0.5561880000000  0.5263440000000  0.5147820000000 1.0
C      1  0.4983570000000  0.5386330000000  0.5020680000000 1.0
C      1  0.5325190000000  0.5996710000000  0.4365110000000 1.0
C      1  0.5956580000000  0.5423480000000  0.4929050000000 1.0
C      1  0.4955660000000  0.4830380000000  0.5462170000000 1.0
C      1  0.5746740000000  0.4840880000000  0.4130400000000 1.0
C      1  0.4758650000000  0.5615770000000  0.4151100000000 1.0
C      1  0.4046040000000  0.5706930000000  0.4920810000000 1.0
C      1  0.5508110000000  0.5231220000000  0.4704710000000 1.0
C      1  0.4355900000000  0.4909990000000  0.4654440000000 1.0
C      1  0.4066490000000  0.5245890000000  0.4112380000000 1.0
C      1  0.5006330000000  0.5698190000000  0.4282070000000 1.0
C      1  0.5034910000000  0.6003680000000  0.5635490000000 1.0
C      1  0.4832010000000  0.4202520000000  0.5252780000000 1.0
C      1  0.4217640000000  0.5162160000000  0.4836670000000 1.0
C      1  0.6218980000000  0.4735890000000  0.5309350000000 1.0
C      1  0.4791040000000  0.5165770000000  0.4862970000000 1.0
C      1  0.5113530000000  0.4844570000000  0.4821700000000 1.0
C      1  0.4680750000000  0.5742890000000  0.4722230000000 1.0
C      1  0.4822750000000  0.5176020000000  0.5312900000000 1.0
C      1  0.4274270000000  0.5357050000000  0.3975070000000 1.0
C      1  0.5683810000000  0.5164870000000  0.4215120000000 1.0
C      1  0.5631240000000  0.5465270000000  0.4882710000000 1.0
C      1  0.4694550000000  0.3906450000000  0.4427300000000 1.0
C      1  0.4101740000000  0.5528080000000  0.4726990000000 1.0
C      1  0.4417630000000  0.5317100000000  0.5065540000000 1.0
C      1  0.5127980000000  0.4201810000000  0.4256360000000 1.0
C      1  0.5850510000000  0.4743330000000  0.5166800000000 1.0
C      1  0.5993490000000  0.5047730000000  0.5224890000000 1.0
C      1  0.5196640000000  0.5127450000000  0.5090920000000 1.0
C      1  0.5305750000000  0.5749430000000  0.4541450000000 1.0
C      1  0.5331410000000  0.5441860000000  0.5506170000000 1.0
C      1  0.5970290000000  0.4798570000000  0.5532660000000 1.0
C      1  0.5107590000000  0.4431560000000  0.4927620000000 1.0
C      1  0.4469580000000  0.5765400000000  0.5568390000000 1.0
C      1  0.5243340000000  0.5107240000000  0.5809070000000 1.0
C      1  0.5933210000000  0.5038460000000  0.4826050000000 1.0
C      1  0.4599490000000  0.4845070000000  0.5642280000000 1.0
C      1  0.4809100000000  0.4764010000000  0.4828040000000 1.0
C      1  0.4581050000000  0.5354350000000  0.4673000000000 1.0
C      1  0.4112790000000  0.4405900000000  0.5256340000000 1.0
C      1  0.4579480000000  0.5165280000000  0.6319500000000 1.0
C      1  0.4017400000000  0.4978990000000  0.5309850000000 1.0
C      1  0.4935720000000  0.3931750000000  0.4555000000000 1.0
C      1  0.5647520000000  0.5319740000000  0.5478260000000 1.0
C      1  0.5524840000000  0.5977580000000  0.4929610000000 1.0
C      1  0.4939710000000  0.4789010000000  0.4307180000000 1.0
C      1  0.4003930000000  0.5152110000000  0.4346350000000 1.0
C      1  0.4782420000000  0.4335900000000  0.4960110000000 1.0
C      1  0.4317730000000  0.4260590000000  0.4284370000000 1.0
C      1  0.6036740000000  0.4917280000000  0.4420320000000 1.0
C      1  0.5373610000000  0.4648850000000  0.4723310000000 1.0
C      1  0.4404450000000  0.5371250000000  0.5891840000000 1.0
C      1  0.5014450000000  0.4717190000000  0.3987350000000 1.0
C      1  0.4873090000000  0.4679140000000  0.6026580000000 1.0
C      1  0.5027420000000  0.4351820000000  0.5403530000000 1.0
C      1  0.4379650000000  0.5800450000000  0.4469850000000 1.0
C      1  0.5430410000000  0.4831370000000  0.6019550000000 1.0
C      1  0.5218240000000  0.5469480000000  0.4368770000000 1.0
C      1  0.4535860000000  0.4137990000000  0.4411910000000 1.0
C      1  0.4346920000000  0.5559050000000  0.4602090000000 1.0
C      1  0.4706270000000  0.5010890000000  0.4199060000000 1.0
C      1  0.5313380000000  0.4391270000000  0.4562480000000 1.0
C      1  0.5380380000000  0.3846960000000  0.5279110000000 1.0
C      1  0.4001530000000  0.5209420000000  0.5095210000000 1.0
C      1  0.5244940000000  0.5214500000000  0.3902210000000 1.0
C      1  0.4310410000000  0.4441510000000  0.5536150000000 1.0
C      1  0.5495120000000  0.4816180000000  0.3903020000000 1.0
C      1  0.4699490000000  0.5534430000000  0.5959290000000 1.0
C      1  0.5442370000000  0.5651980000000  0.5749440000000 1.0
C      1  0.4339670000000  0.4169450000000  0.5245670000000 1.0
C      1  0.6005610000000  0.4668900000000  0.4380760000000 1.0
C      1  0.4820570000000  0.5367020000000  0.5566450000000 1.0
C      1  0.5221000000000  0.5146030000000  0.4760530000000 1.0
C      1  0.4272400000000  0.4537400000000  0.4245270000000 1.0
C      1  0.4946070000000  0.5070200000000  0.5674870000000 1.0
C      1  0.5338440000000  0.4921740000000  0.5532310000000 1.0
C      1  0.4506880000000  0.6089970000000  0.5234090000000 1.0
C      1  0.5317220000000  0.5988820000000  0.5362290000000 1.0
C      1  0.5075000000000  0.3770440000000  0.5199900000000 1.0
C      1  0.5975870000000  0.5107760000000  0.5559190000000 1.0
C      1  0.4763870000000  0.5169550000000  0.4472370000000 1.0
C      1  0.5761550000000  0.5080540000000  0.4535270000000 1.0
C      1  0.5179370000000  0.4624430000000  0.5529050000000 1.0
C      1  0.5645400000000  0.4258320000000  0.5476610000000 1.0
C      1  0.4245330000000  0.5267830000000  0.5653280000000 1.0
C      1  0.4500890000000  0.5822060000000  0.4172120000000 1.0
C      1  0.5482530000000  0.4887970000000  0.4507520000000 1.0
C      1  0.4156250000000  0.5705170000000  0.5231710000000 1.0
C      1  0.5048240000000  0.4170560000000  0.3926590000000 1.0
C      1  0.5328990000000  0.5919880000000  0.5672080000000 1.0
C      1  0.4894980000000  0.4402490000000  0.5700240000000 1.0
C      1  0.4536040000000  0.4648440000000  0.5988350000000 1.0
C      1  0.4298380000000  0.5426470000000  0.5364980000000 1.0
C      1  0.5247600000000  0.3948240000000  0.4978920000000 1.0
C      1  0.5510800000000  0.4122870000000  0.4610630000000 1.0
C      1  0.5005980000000  0.4322970000000  0.4524910000000 1.0
C      1  0.5068720000000  0.5241410000000  0.4503500000000 1.0
C      1  0.4964060000000  0.5529990000000  0.5899510000000 1.0
C      1  0.4457870000000  0.5696770000000  0.5834430000000 1.0
C      1  0.4910930000000  0.5611210000000  0.5265260000000 1.0
C      1  0.3961710000000  0.5262070000000  0.4650680000000 1.0
C      1  0.5613590000000  0.5535740000000  0.4344100000000 1.0
C      1  0.4175960000000  0.4965750000000  0.5611940000000 1.0
C      1  0.5163820000000  0.4956040000000  0.4413960000000 1.0
C      1  0.5386840000000  0.4414220000000  0.5995680000000 1.0
C      1  0.4677540000000  0.4768300000000  0.4010120000000 1.0
C      1  0.4801550000000  0.6078100000000  0.5134190000000 1.0
C      1  0.5547150000000  0.5967470000000  0.5209350000000 1.0
C      1  0.5324070000000  0.4363260000000  0.5264630000000 1.0
C      1  0.4568710000000  0.4020440000000  0.5356480000000 1.0
C      1  0.4714260000000  0.4948470000000  0.5090700000000 1.0
C      1  0.5827870000000  0.4542420000000  0.4973200000000 1.0
C      1  0.4340380000000  0.5916290000000  0.5359810000000 1.0
C      1  0.5820940000000  0.4288220000000  0.5061320000000 1.0
C      1  0.4693990000000  0.5925380000000  0.4435400000000 1.0
C      1  0.5073350000000  0.4121920000000  0.4790870000000 1.0
C      1  0.5128660000000  0.5957080000000  0.4127580000000 1.0
C      1  0.6014700000000  0.5357060000000  0.5184400000000 1.0
C      1  0.4337110000000  0.4796910000000  0.4962660000000 1.0
C      1  0.5710140000000  0.4615490000000  0.4687870000000 1.0
C      1  0.4672680000000  0.5516110000000  0.4957730000000 1.0
C      1  0.4065900000000  0.4223970000000  0.4793040000000 1.0
C      1  0.5346680000000  0.4631760000000  0.5063940000000 1.0
C      1  0.5258110000000  0.5407410000000  0.5897190000000 1.0
C      1  0.5185990000000  0.6264730000000  0.4455530000000 1.0
C      1  0.4558880000000  0.4989610000000  0.5394130000000 1.0
C      1  0.5417860000000  0.5361700000000  0.4136380000000 1.0
C      1  0.5149230000000  0.5177390000000  0.5423890000000 1.0
C      1  0.5460320000000  0.4414720000000  0.4225780000000 1.0
C      1  0.5476760000000  0.5752750000000  0.4787220000000 1.0
C      1  0.4868960000000  0.5995200000000  0.4817650000000 1.0
C      1  0.4935190000000  0.6081530000000  0.4366620000000 1.0
C      1  0.5528210000000  0.4017420000000  0.4856670000000 1.0
C      1  0.5655490000000  0.4869930000000  0.5767260000000 1.0
C      1  0.4008330000000  0.4436330000000  0.4956210000000 1.0
C      1  0.4986820000000  0.5921590000000  0.5308900000000 1.0
C      1  0.4177790000000  0.4705500000000  0.5393130000000 1.0
C      1  0.5647800000000  0.4897470000000  0.4867570000000 1.0
C      1  0.4843990000000  0.3880620000000  0.5272790000000 1.0
C      1  0.5048150000000  0.5595020000000  0.5576330000000 1.0
C      1  0.4630280000000  0.4324880000000  0.4654250000000 1.0
C      1  0.5180250000000  0.4452260000000  0.4032410000000 1.0
C      1  0.4905850000000  0.6303700000000  0.4902060000000 1.0
C      1  0.5690850000000  0.4586050000000  0.4349100000000 1.0
C      1  0.5470560000000  0.4935620000000  0.5155390000000 1.0
C      1  0.4336570000000  0.4182570000000  0.4749950000000 1.0
C      1  0.4739440000000  0.4655030000000  0.5271900000000 1.0
C      1  0.5467520000000  0.5576160000000  0.5229810000000 1.0
C      1  0.4332340000000  0.4698130000000  0.5758660000000 1.0
C      1  0.5550890000000  0.4123630000000  0.5178980000000 1.0
C      1  0.4583090000000  0.5162410000000  0.6057650000000 1.0
C      1  0.4481500000000  0.5528310000000  0.4016720000000 1.0
C      1  0.5047430000000  0.4388410000000  0.6003820000000 1.0
C      1  0.6180350000000  0.4886740000000  0.5004330000000 1.0
C      1  0.5648270000000  0.4829470000000  0.5426300000000 1.0
C      1  0.5057200000000  0.4758240000000  0.5145780000000 1.0
C      1  0.4998430000000  0.5748100000000  0.4621750000000 1.0
C      1  0.5353630000000  0.4172770000000  0.5544790000000 1.0
C      1  0.4775750000000  0.4569650000000  0.4482150000000 1.0
C      1  0.5681800000000  0.4521180000000  0.5566060000000 1.0
C      1  0.4633320000000  0.4519910000000  0.5565490000000 1.0
C      1  0.3960460000000  0.4926170000000  0.4598010000000 1.0
C      1  0.4654420000000  0.4875090000000  0.4571670000000 1.0
C      1  0.5276280000000  0.4645020000000  0.5810280000000 1.0
C      1  0.5872460000000  0.5507370000000  0.5369700000000 1.0
C      1  0.3933370000000  0.5452890000000  0.5203540000000 1.0
C      1  0.4751260000000  0.4970740000000  0.5897800000000 1.0
C      1  0.5212360000000  0.4939250000000  0.3855910000000 1.0
C      1  0.4422950000000  0.4651460000000  0.4031830000000 1.0
C      1  0.5714180000000  0.5739490000000  0.5290680000000 1.0
C      1  0.4609660000000  0.5537240000000  0.5402950000000 1.0
C      1  0.5444860000000  0.4106530000000  0.4319500000000 1.0
C      1  0.5726680000000  0.5534950000000  0.4563770000000 1.0
C      1  0.5595320000000  0.5400480000000  0.5921370000000 1.0
C      1  0.5390390000000  0.4894230000000  0.4207590000000 1.0
C      1  0.4331860000000  0.5008490000000  0.5183920000000 1.0
C      1  0.4563230000000  0.4594110000000  0.4990170000000 1.0
C      1  0.4173510000000  0.4702740000000  0.4468940000000 1.0
C      1  0.4489160000000  0.4167120000000  0.4993470000000 1.0
C      1  0.5655270000000  0.4544440000000  0.5865910000000 1.0
END
