TITL C-2848508-1660-645 -0.000663774662711875 125000 -1060.23971022361 0 0 193 (C1) n - 1
REM
REM in /home/bkarasulu/work/CARBON/AIRSS/Generating-Clusters/AIREBO/with-SteepDescent/Only-C1/SD-CG-opt/Try1-1.4A-POS3A/HFTN-CG
REM
REM
REM
REM
REM
REM ./C.cell (11c1c37f851c82e70ff6c80c92926a4b)
REM
REM compiler GCC version 9.2.1 20190827 (Red Hat 9.2.1-1)
REM options -cpp -mtune=generic -march=x86-64 -g -O0 -fpre-include=/usr/include/finclude/math-vector-fortran.h
REM seed 1672505317 2098323816 -654491156 242973390 107254691 -1237593759 914943273 -109135429 954054688 -1242610330 1798369513 -1335754112 1347698554 1668582537 -1075879784 1977446304 -126719122 -2201620 -1942334870 -1519518200 -1759997004 -2068663487 665162559 253466793 -1767101046 649413397 1561637280 1442861406 -1781587142 931751210 -1653527238 -775026974 68540970
REM
CELL 1.54180   50.00000   50.00000   50.00000   90.00000   90.00000   90.00000
LATT -1
SFAC C  
C      1  0.4372130000000  0.4428530000000  0.5650870000000 1.0
C      1  0.5635930000000  0.4096930000000  0.5440730000000 1.0
C      1  0.4293420000000  0.4329550000000  0.4703200000000 1.0
C      1  0.4237410000000  0.5042770000000  0.5061950000000 1.0
C      1  0.4097930000000  0.5577640000000  0.5391060000000 1.0
C      1  0.5852840000000  0.5057500000000  0.5854080000000 1.0
C      1  0.4487720000000  0.4982600000000  0.5434530000000 1.0
C      1  0.4769400000000  0.4847090000000  0.5851530000000 1.0
C      1  0.4639900000000  0.5311450000000  0.6096930000000 1.0
C      1  0.5835650000000  0.4818090000000  0.4513320000000 1.0
C      1  0.4245230000000  0.5234870000000  0.5782620000000 1.0
C      1  0.5862970000000  0.4250370000000  0.5434540000000 1.0
C      1  0.5336610000000  0.3889950000000  0.4986110000000 1.0
C      1  0.5446140000000  0.5479930000000  0.5331610000000 1.0
C      1  0.5112220000000  0.4780200000000  0.5491250000000 1.0
C      1  0.4823970000000  0.5360800000000  0.4123440000000 1.0
C      1  0.4902900000000  0.6004490000000  0.4855980000000 1.0
C      1  0.4476380000000  0.5699450000000  0.4559640000000 1.0
C      1  0.3856990000000  0.5198960000000  0.4518930000000 1.0
C      1  0.5451060000000  0.4766810000000  0.4865250000000 1.0
C      1  0.4178540000000  0.5360080000000  0.4692610000000 1.0
C      1  0.5532880000000  0.5915980000000  0.5293280000000 1.0
C      1  0.4682160000000  0.4728370000000  0.5549400000000 1.0
C      1  0.4413080000000  0.5689710000000  0.5060990000000 1.0
C      1  0.4901910000000  0.3837230000000  0.4875210000000 1.0
C      1  0.5308320000000  0.5089520000000  0.3997090000000 1.0
C      1  0.5762370000000  0.5460850000000  0.5207920000000 1.0
C      1  0.6033070000000  0.5327020000000  0.4477880000000 1.0
C      1  0.4898070000000  0.4359580000000  0.4760940000000 1.0
C      1  0.5533750000000  0.4747990000000  0.4564920000000 1.0
C      1  0.5536220000000  0.4291170000000  0.4645250000000 1.0
C      1  0.5708730000000  0.5058720000000  0.5216050000000 1.0
C      1  0.6024240000000  0.5143600000000  0.5218260000000 1.0
C      1  0.4187300000000  0.4552150000000  0.5419100000000 1.0
C      1  0.5363800000000  0.4843260000000  0.5714120000000 1.0
C      1  0.5033620000000  0.4523140000000  0.4018560000000 1.0
C      1  0.3874690000000  0.4716950000000  0.4842440000000 1.0
C      1  0.5305000000000  0.5214180000000  0.4844770000000 1.0
C      1  0.4620570000000  0.4249130000000  0.4147230000000 1.0
C      1  0.4552090000000  0.5654610000000  0.5635250000000 1.0
C      1  0.5809450000000  0.4608130000000  0.5266410000000 1.0
C      1  0.5308380000000  0.4158690000000  0.4801300000000 1.0
C      1  0.5027540000000  0.5610900000000  0.5862040000000 1.0
C      1  0.4609840000000  0.5938470000000  0.5359430000000 1.0
C      1  0.4773420000000  0.5019310000000  0.4508600000000 1.0
C      1  0.4686270000000  0.4402610000000  0.5549920000000 1.0
C      1  0.6078780000000  0.4295620000000  0.5265810000000 1.0
C      1  0.5320530000000  0.4154730000000  0.5398310000000 1.0
C      1  0.4532700000000  0.4203460000000  0.4436220000000 1.0
C      1  0.5088960000000  0.3822680000000  0.5098190000000 1.0
C      1  0.4244920000000  0.4934590000000  0.5796040000000 1.0
C      1  0.5212660000000  0.5026730000000  0.5278500000000 1.0
C      1  0.5131740000000  0.4248020000000  0.5630710000000 1.0
C      1  0.5743290000000  0.4420760000000  0.4797150000000 1.0
C      1  0.5269910000000  0.5809100000000  0.5781690000000 1.0
C      1  0.5900100000000  0.5673250000000  0.4993520000000 1.0
C      1  0.5529680000000  0.5014370000000  0.5950810000000 1.0
C      1  0.5145490000000  0.5233660000000  0.5892370000000 1.0
C      1  0.4491940000000  0.4995560000000  0.3977680000000 1.0
C      1  0.4404000000000  0.5907220000000  0.4806780000000 1.0
C      1  0.4795990000000  0.5586400000000  0.5105670000000 1.0
C      1  0.4957230000000  0.4502700000000  0.5370140000000 1.0
C      1  0.5635680000000  0.5826500000000  0.4999770000000 1.0
C      1  0.5797500000000  0.5563720000000  0.5502220000000 1.0
C      1  0.4846730000000  0.5512700000000  0.5627050000000 1.0
C      1  0.5140210000000  0.4512190000000  0.4325440000000 1.0
C      1  0.4579370000000  0.4415410000000  0.4840170000000 1.0
C      1  0.3904840000000  0.5239220000000  0.4854400000000 1.0
C      1  0.4713570000000  0.5125230000000  0.5645100000000 1.0
C      1  0.4528530000000  0.5239150000000  0.3863790000000 1.0
C      1  0.4821090000000  0.5016040000000  0.4835500000000 1.0
C      1  0.6222870000000  0.4975590000000  0.4831370000000 1.0
C      1  0.4977910000000  0.4291780000000  0.4478260000000 1.0
C      1  0.4326900000000  0.4567290000000  0.5153870000000 1.0
C      1  0.5136050000000  0.4717180000000  0.4587610000000 1.0
C      1  0.4634080000000  0.4756310000000  0.3933150000000 1.0
C      1  0.5786760000000  0.4903670000000  0.4020620000000 1.0
C      1  0.4627010000000  0.3979940000000  0.5277230000000 1.0
C      1  0.4523170000000  0.4332020000000  0.5129540000000 1.0
C      1  0.4817840000000  0.5492930000000  0.4574210000000 1.0
C      1  0.5398850000000  0.4644040000000  0.5369150000000 1.0
C      1  0.5144660000000  0.4914650000000  0.4864330000000 1.0
C      1  0.3931670000000  0.4988180000000  0.5032140000000 1.0
C      1  0.4639080000000  0.3936950000000  0.4940160000000 1.0
C      1  0.5766900000000  0.5372410000000  0.5769780000000 1.0
C      1  0.5449600000000  0.4478710000000  0.4428030000000 1.0
C      1  0.5475860000000  0.5709900000000  0.4475980000000 1.0
C      1  0.5375040000000  0.4944460000000  0.4362620000000 1.0
C      1  0.5465510000000  0.4885660000000  0.5170220000000 1.0
C      1  0.4588620000000  0.4541190000000  0.4414700000000 1.0
C      1  0.5790610000000  0.5056160000000  0.5530320000000 1.0
C      1  0.5022230000000  0.4005340000000  0.5332520000000 1.0
C      1  0.5424470000000  0.5886970000000  0.4762290000000 1.0
C      1  0.4468870000000  0.4836720000000  0.6000610000000 1.0
C      1  0.5944760000000  0.4600430000000  0.4698090000000 1.0
C      1  0.4566090000000  0.5523680000000  0.4013800000000 1.0
C      1  0.4819370000000  0.4636380000000  0.4613040000000 1.0
C      1  0.4792410000000  0.5903600000000  0.5589920000000 1.0
C      1  0.5626030000000  0.5810400000000  0.5536920000000 1.0
C      1  0.4137920000000  0.4762400000000  0.4368330000000 1.0
C      1  0.5516740000000  0.5597350000000  0.5780020000000 1.0
C      1  0.3958550000000  0.4977880000000  0.5339640000000 1.0
C      1  0.4904920000000  0.5798780000000  0.4332570000000 1.0
C      1  0.5038190000000  0.5005480000000  0.6101750000000 1.0
C      1  0.5853550000000  0.5397990000000  0.4823620000000 1.0
C      1  0.4544520000000  0.4533370000000  0.4077710000000 1.0
C      1  0.5225200000000  0.5532620000000  0.4755700000000 1.0
C      1  0.4162940000000  0.5331930000000  0.5531930000000 1.0
C      1  0.4162470000000  0.5699840000000  0.4686190000000 1.0
C      1  0.5483600000000  0.5331810000000  0.4108670000000 1.0
C      1  0.5828770000000  0.4516360000000  0.5592230000000 1.0
C      1  0.5404580000000  0.5600010000000  0.5036950000000 1.0
C      1  0.4503900000000  0.5136280000000  0.4859120000000 1.0
C      1  0.6101850000000  0.5204680000000  0.4952630000000 1.0
C      1  0.4010360000000  0.4935100000000  0.4619700000000 1.0
C      1  0.5357510000000  0.4383110000000  0.5186850000000 1.0
C      1  0.4356160000000  0.5740910000000  0.5377360000000 1.0
C      1  0.5292700000000  0.5134910000000  0.5653000000000 1.0
C      1  0.4340220000000  0.4912230000000  0.4699290000000 1.0
C      1  0.5126110000000  0.5447490000000  0.4458810000000 1.0
C      1  0.4517190000000  0.4847360000000  0.4460210000000 1.0
C      1  0.4917640000000  0.4751850000000  0.3895790000000 1.0
C      1  0.5095110000000  0.5645790000000  0.5116130000000 1.0
C      1  0.4835910000000  0.4530760000000  0.5957370000000 1.0
C      1  0.4332470000000  0.5535600000000  0.4229470000000 1.0
C      1  0.5094900000000  0.4551500000000  0.5742350000000 1.0
C      1  0.5008510000000  0.5171890000000  0.5508460000000 1.0
C      1  0.5528770000000  0.5271370000000  0.5548550000000 1.0
C      1  0.6121520000000  0.4607970000000  0.5154390000000 1.0
C      1  0.5060440000000  0.4690620000000  0.5106200000000 1.0
C      1  0.4078390000000  0.4543620000000  0.4621840000000 1.0
C      1  0.4617780000000  0.5722100000000  0.4285120000000 1.0
C      1  0.5026800000000  0.5280410000000  0.3788440000000 1.0
C      1  0.4337700000000  0.4990140000000  0.4238060000000 1.0
C      1  0.4074320000000  0.4254000000000  0.5452770000000 1.0
C      1  0.4599300000000  0.6113560000000  0.4814310000000 1.0
C      1  0.3879280000000  0.5514270000000  0.4644270000000 1.0
C      1  0.4779130000000  0.4075850000000  0.5565880000000 1.0
C      1  0.5113720000000  0.5213280000000  0.4224070000000 1.0
C      1  0.5037140000000  0.3985470000000  0.4362600000000 1.0
C      1  0.5229650000000  0.5929280000000  0.5247340000000 1.0
C      1  0.4020020000000  0.5505710000000  0.5129490000000 1.0
C      1  0.4649540000000  0.4728020000000  0.4892280000000 1.0
C      1  0.5859740000000  0.5020530000000  0.4263010000000 1.0
C      1  0.5844870000000  0.5104180000000  0.4652660000000 1.0
C      1  0.4850460000000  0.5152190000000  0.5144020000000 1.0
C      1  0.5512750000000  0.5145860000000  0.4589820000000 1.0
C      1  0.4386610000000  0.4187150000000  0.5399350000000 1.0
C      1  0.4481040000000  0.4046950000000  0.4727500000000 1.0
C      1  0.5083110000000  0.5812810000000  0.5513740000000 1.0
C      1  0.4331580000000  0.5281960000000  0.4413330000000 1.0
C      1  0.4716690000000  0.5396350000000  0.5334840000000 1.0
C      1  0.5451390000000  0.4534770000000  0.4104710000000 1.0
C      1  0.5487320000000  0.4841070000000  0.4055950000000 1.0
C      1  0.5674200000000  0.5258880000000  0.4326020000000 1.0
C      1  0.5132200000000  0.5310370000000  0.5116960000000 1.0
C      1  0.5099850000000  0.4719770000000  0.6038140000000 1.0
C      1  0.5075290000000  0.3951910000000  0.4664460000000 1.0
C      1  0.4720990000000  0.5032720000000  0.6132560000000 1.0
C      1  0.4310130000000  0.4585840000000  0.5896710000000 1.0
C      1  0.4528000000000  0.5360720000000  0.5805670000000 1.0
C      1  0.5303980000000  0.5493460000000  0.6021800000000 1.0
C      1  0.5595740000000  0.5253860000000  0.5000690000000 1.0
C      1  0.4748110000000  0.5899220000000  0.5114810000000 1.0
C      1  0.5681000000000  0.4503990000000  0.5962120000000 1.0
C      1  0.4413010000000  0.5294470000000  0.5321460000000 1.0
C      1  0.4638840000000  0.5584750000000  0.4829250000000 1.0
C      1  0.5525830000000  0.4583390000000  0.5669180000000 1.0
C      1  0.4178380000000  0.4853150000000  0.5491710000000 1.0
C      1  0.5077170000000  0.5535500000000  0.3990440000000 1.0
C      1  0.5044240000000  0.4958370000000  0.4391470000000 1.0
C      1  0.4846810000000  0.4875140000000  0.5295830000000 1.0
C      1  0.5850600000000  0.4739060000000  0.5842130000000 1.0
C      1  0.5147540000000  0.5480650000000  0.5476200000000 1.0
C      1  0.4995230000000  0.5765770000000  0.4658700000000 1.0
C      1  0.5760520000000  0.5526680000000  0.4517010000000 1.0
C      1  0.6138920000000  0.4703250000000  0.4870140000000 1.0
C      1  0.4925740000000  0.4226880000000  0.4148600000000 1.0
C      1  0.4208660000000  0.4680930000000  0.4895100000000 1.0
C      1  0.4827630000000  0.4248290000000  0.5212640000000 1.0
C      1  0.5204540000000  0.5977960000000  0.4922380000000 1.0
C      1  0.5615280000000  0.4534720000000  0.5053400000000 1.0
C      1  0.5330680000000  0.5178840000000  0.6159880000000 1.0
C      1  0.4890000000000  0.4227080000000  0.5843010000000 1.0
C      1  0.5225750000000  0.5915070000000  0.4370660000000 1.0
C      1  0.6013750000000  0.4853590000000  0.5366700000000 1.0
C      1  0.4484460000000  0.4846140000000  0.5131870000000 1.0
C      1  0.5314720000000  0.5558170000000  0.4217390000000 1.0
C      1  0.5093010000000  0.5850810000000  0.4065280000000 1.0
C      1  0.5118950000000  0.4386920000000  0.4967920000000 1.0
C      1  0.4307370000000  0.5371020000000  0.5007250000000 1.0
C      1  0.5049970000000  0.4990470000000  0.3829190000000 1.0
C      1  0.4670550000000  0.5286550000000  0.4408830000000 1.0
END
