TITL C-2847948-6138-645 -0.00486579116221238 125000 -313.010120706565 0 0 59 (C1) n - 1
REM
REM in /home/bkarasulu/work/CARBON/AIRSS/Generating-Clusters/AIREBO/with-SteepDescent/Only-C1/SD-CG-opt/Try1-1.4A-POS3A/HFTN-CG
REM
REM
REM
REM
REM
REM ./C.cell (11c1c37f851c82e70ff6c80c92926a4b)
REM
REM compiler GCC version 9.2.1 20190827 (Red Hat 9.2.1-1)
REM options -cpp -mtune=generic -march=x86-64 -g -O0 -fpre-include=/usr/include/finclude/math-vector-fortran.h
REM seed 1737385446 1751114076 -1607876072 -1357393072 -49056631 1280579217 2053398114 -685957015 -1364252106 802948496 1433288775 217630072 -1420931694 1107956835 -1635790333 -1199117802 -896795421 -1629123059 1838488560 -487649284 163210778 -234484706 917035571 1421780236 1134058892 681815001 583089276 -1820903436 -1183847891 -1198755840 -2077265020 601352815 1116170622
REM
CELL 1.54180   50.00000   50.00000   50.00000   90.00000   90.00000   90.00000
LATT -1
SFAC C  
C      1  0.4884440000000  0.4584450000000  0.4735470000000 1.0
C      1  0.4407460000000  0.5225160000000  0.4791560000000 1.0
C      1  0.4787480000000  0.5783530000000  0.5230120000000 1.0
C      1  0.5455100000000  0.4812970000000  0.5375680000000 1.0
C      1  0.5153530000000  0.4897330000000  0.5276330000000 1.0
C      1  0.5279160000000  0.5187240000000  0.4282390000000 1.0
C      1  0.4651890000000  0.4425600000000  0.4912550000000 1.0
C      1  0.5719880000000  0.4938580000000  0.5199330000000 1.0
C      1  0.4921790000000  0.5623300000000  0.4796190000000 1.0
C      1  0.4983440000000  0.5421710000000  0.4588120000000 1.0
C      1  0.4776450000000  0.5281350000000  0.4417620000000 1.0
C      1  0.4548530000000  0.5564380000000  0.5323020000000 1.0
C      1  0.5020700000000  0.5363400000000  0.5556830000000 1.0
C      1  0.4880950000000  0.4966500000000  0.4625400000000 1.0
C      1  0.4723800000000  0.4935310000000  0.5114500000000 1.0
C      1  0.5496580000000  0.5506890000000  0.4677990000000 1.0
C      1  0.4782230000000  0.4903070000000  0.5718490000000 1.0
C      1  0.4837930000000  0.5390660000000  0.5271070000000 1.0
C      1  0.4572530000000  0.4787510000000  0.5590220000000 1.0
C      1  0.4933740000000  0.4319830000000  0.5029950000000 1.0
C      1  0.4716340000000  0.5104770000000  0.5362520000000 1.0
C      1  0.4297750000000  0.5130510000000  0.5024660000000 1.0
C      1  0.4555850000000  0.4662010000000  0.5112600000000 1.0
C      1  0.4550110000000  0.5078510000000  0.4572130000000 1.0
C      1  0.5571830000000  0.5173280000000  0.4470580000000 1.0
C      1  0.5251910000000  0.4435960000000  0.4685250000000 1.0
C      1  0.4573880000000  0.5436560000000  0.4837100000000 1.0
C      1  0.5228700000000  0.5181250000000  0.5136440000000 1.0
C      1  0.4984720000000  0.5038840000000  0.4309640000000 1.0
C      1  0.4333560000000  0.4882940000000  0.5182710000000 1.0
C      1  0.5415350000000  0.5401870000000  0.4987950000000 1.0
C      1  0.5056310000000  0.5637400000000  0.5355210000000 1.0
C      1  0.5405160000000  0.4887590000000  0.4509110000000 1.0
C      1  0.5440740000000  0.5307000000000  0.5371970000000 1.0
C      1  0.4449660000000  0.4324540000000  0.5336540000000 1.0
C      1  0.5420510000000  0.4644070000000  0.4825760000000 1.0
C      1  0.5609810000000  0.5101000000000  0.5444030000000 1.0
C      1  0.4863770000000  0.5347700000000  0.4962170000000 1.0
C      1  0.4662780000000  0.4551050000000  0.5415690000000 1.0
C      1  0.5182130000000  0.4788730000000  0.4366750000000 1.0
C      1  0.5274410000000  0.5249810000000  0.4616650000000 1.0
C      1  0.4617830000000  0.4752880000000  0.4625060000000 1.0
C      1  0.4367640000000  0.4948570000000  0.5474480000000 1.0
C      1  0.5758230000000  0.4981810000000  0.4928550000000 1.0
C      1  0.5079870000000  0.4558300000000  0.4482590000000 1.0
C      1  0.5450600000000  0.4512830000000  0.5112500000000 1.0
C      1  0.4423100000000  0.5246960000000  0.5318680000000 1.0
C      1  0.5714680000000  0.4756150000000  0.4778190000000 1.0
C      1  0.4425170000000  0.4284920000000  0.5085970000000 1.0
C      1  0.5338870000000  0.5583070000000  0.5260500000000 1.0
C      1  0.4991690000000  0.5036330000000  0.5521090000000 1.0
C      1  0.5626380000000  0.5218540000000  0.4803170000000 1.0
C      1  0.5031980000000  0.4706760000000  0.5016820000000 1.0
C      1  0.4974280000000  0.4513010000000  0.5290240000000 1.0
C      1  0.4995640000000  0.5035290000000  0.4936240000000 1.0
C      1  0.5284140000000  0.4528560000000  0.5353930000000 1.0
C      1  0.4827720000000  0.5839850000000  0.4950900000000 1.0
C      1  0.5127760000000  0.4249590000000  0.4856200000000 1.0
C      1  0.5301540000000  0.4962450000000  0.4806650000000 1.0
END
