TITL C-2848505-4874-19 0.000779045613670666 125000 -792.863191240196 0 0 141 (C1) n - 1
REM
REM in /home/bkarasulu/work/CARBON/AIRSS/Generating-Clusters/AIREBO/with-SteepDescent/Only-C1/SD-CG-opt/Try1-1.4A-POS3A/HFTN-CG
REM
REM
REM
REM
REM
REM ./C.cell (11c1c37f851c82e70ff6c80c92926a4b)
REM
REM compiler GCC version 9.2.1 20190827 (Red Hat 9.2.1-1)
REM options -cpp -mtune=generic -march=x86-64 -g -O0 -fpre-include=/usr/include/finclude/math-vector-fortran.h
REM seed -953765827 -2113831159 -1925785618 1850154504 788578896 132788970 -13790675 454729460 1425647448 1227826155 -60445167 -618114861 1682398850 -1037395598 254706373 2064547245 -1376915154 1280379239 -1323648218 453990656 415867323 -530595507 -1492268269 1179297078 -124843193 -1236641621 122375990 908562761 754689343 -269206993 1553103552 -1005946230 705711159
REM
CELL 1.54180   50.00000   50.00000   50.00000   90.00000   90.00000   90.00000
LATT -1
SFAC C  
C      1  0.4369940000000  0.5716300000000  0.5478330000000 1.0
C      1  0.5125910000000  0.5341450000000  0.5407180000000 1.0
C      1  0.4689920000000  0.4081710000000  0.4645630000000 1.0
C      1  0.5365200000000  0.5617790000000  0.4623070000000 1.0
C      1  0.5284900000000  0.5732350000000  0.5120180000000 1.0
C      1  0.5571800000000  0.5097030000000  0.4341480000000 1.0
C      1  0.4418260000000  0.5581130000000  0.4798820000000 1.0
C      1  0.5194070000000  0.4132220000000  0.5457350000000 1.0
C      1  0.4880830000000  0.5003700000000  0.5227810000000 1.0
C      1  0.5176290000000  0.4604250000000  0.5583630000000 1.0
C      1  0.4847010000000  0.4912700000000  0.4632630000000 1.0
C      1  0.4138260000000  0.5583160000000  0.4899420000000 1.0
C      1  0.5900600000000  0.5390290000000  0.5451740000000 1.0
C      1  0.4280650000000  0.4296280000000  0.4776420000000 1.0
C      1  0.5195130000000  0.5077450000000  0.4454920000000 1.0
C      1  0.4134110000000  0.5153300000000  0.5079980000000 1.0
C      1  0.5551010000000  0.4948240000000  0.4646600000000 1.0
C      1  0.5206420000000  0.4589990000000  0.4173620000000 1.0
C      1  0.5418290000000  0.5464520000000  0.5284410000000 1.0
C      1  0.5851730000000  0.5585980000000  0.5018150000000 1.0
C      1  0.5464520000000  0.5407850000000  0.5616510000000 1.0
C      1  0.5404250000000  0.4368150000000  0.5215230000000 1.0
C      1  0.4335570000000  0.4543890000000  0.4598280000000 1.0
C      1  0.4550440000000  0.4615190000000  0.4134270000000 1.0
C      1  0.5044540000000  0.4768670000000  0.5099350000000 1.0
C      1  0.3897010000000  0.5207500000000  0.4682550000000 1.0
C      1  0.5480390000000  0.4656140000000  0.5726700000000 1.0
C      1  0.4198170000000  0.4806810000000  0.4768740000000 1.0
C      1  0.4646420000000  0.5228190000000  0.5234330000000 1.0
C      1  0.4990670000000  0.4095500000000  0.4637090000000 1.0
C      1  0.5438730000000  0.4919270000000  0.5842110000000 1.0
C      1  0.4970680000000  0.5578520000000  0.5602370000000 1.0
C      1  0.4936480000000  0.4912700000000  0.4307870000000 1.0
C      1  0.4106430000000  0.4912010000000  0.5531880000000 1.0
C      1  0.5307840000000  0.5362770000000  0.4783450000000 1.0
C      1  0.5879980000000  0.4564640000000  0.5180740000000 1.0
C      1  0.4441640000000  0.5125750000000  0.5026770000000 1.0
C      1  0.5777410000000  0.4836330000000  0.4418930000000 1.0
C      1  0.4982700000000  0.4380650000000  0.4218350000000 1.0
C      1  0.4829700000000  0.4443940000000  0.4738890000000 1.0
C      1  0.5137930000000  0.4302060000000  0.5734740000000 1.0
C      1  0.4569470000000  0.5714330000000  0.4579320000000 1.0
C      1  0.4099370000000  0.5430780000000  0.5146540000000 1.0
C      1  0.4827050000000  0.5465690000000  0.5132790000000 1.0
C      1  0.4658590000000  0.5565690000000  0.4086520000000 1.0
C      1  0.5079220000000  0.4289890000000  0.4877650000000 1.0
C      1  0.4581710000000  0.5037060000000  0.4172080000000 1.0
C      1  0.4732760000000  0.4943940000000  0.6026230000000 1.0
C      1  0.4520170000000  0.4822960000000  0.4660270000000 1.0
C      1  0.5330170000000  0.5848500000000  0.5424790000000 1.0
C      1  0.4922390000000  0.5713950000000  0.4171870000000 1.0
C      1  0.4890930000000  0.4093320000000  0.5308100000000 1.0
C      1  0.4978650000000  0.5373880000000  0.4868390000000 1.0
C      1  0.5282680000000  0.5497210000000  0.4243010000000 1.0
C      1  0.5448030000000  0.4195240000000  0.4971480000000 1.0
C      1  0.5003690000000  0.4976900000000  0.5509220000000 1.0
C      1  0.4792650000000  0.5282480000000  0.4070100000000 1.0
C      1  0.5124910000000  0.4150480000000  0.4398060000000 1.0
C      1  0.5555050000000  0.4686330000000  0.4815570000000 1.0
C      1  0.5719480000000  0.5905810000000  0.4572500000000 1.0
C      1  0.4461020000000  0.5582820000000  0.4294120000000 1.0
C      1  0.4796150000000  0.5929730000000  0.4657720000000 1.0
C      1  0.5928490000000  0.4837970000000  0.4715170000000 1.0
C      1  0.4606560000000  0.5326530000000  0.5747940000000 1.0
C      1  0.5525630000000  0.4209400000000  0.5447050000000 1.0
C      1  0.5066190000000  0.5880060000000  0.4654860000000 1.0
C      1  0.5298540000000  0.4899970000000  0.5468440000000 1.0
C      1  0.4185500000000  0.5479140000000  0.5409040000000 1.0
C      1  0.5244770000000  0.4577350000000  0.4901980000000 1.0
C      1  0.4662470000000  0.4644590000000  0.4912480000000 1.0
C      1  0.4505050000000  0.4137420000000  0.4847250000000 1.0
C      1  0.5166520000000  0.5754540000000  0.4386600000000 1.0
C      1  0.4913260000000  0.5527510000000  0.5907250000000 1.0
C      1  0.5126020000000  0.5302230000000  0.4111760000000 1.0
C      1  0.4836250000000  0.4596800000000  0.5620950000000 1.0
C      1  0.4570690000000  0.5603220000000  0.5716790000000 1.0
C      1  0.4549100000000  0.5133880000000  0.5511650000000 1.0
C      1  0.4821800000000  0.4446710000000  0.5138520000000 1.0
C      1  0.5636570000000  0.4868560000000  0.5266740000000 1.0
C      1  0.5606570000000  0.4304050000000  0.4521210000000 1.0
C      1  0.5307670000000  0.5046700000000  0.4135520000000 1.0
C      1  0.4269650000000  0.4675620000000  0.5472880000000 1.0
C      1  0.4740970000000  0.4359710000000  0.5457160000000 1.0
C      1  0.4086910000000  0.4337720000000  0.4964690000000 1.0
C      1  0.4818910000000  0.4672430000000  0.4155630000000 1.0
C      1  0.4963860000000  0.5724860000000  0.5231870000000 1.0
C      1  0.5709770000000  0.4674730000000  0.5524960000000 1.0
C      1  0.5055100000000  0.5207830000000  0.5715850000000 1.0
C      1  0.4287730000000  0.5047480000000  0.5859430000000 1.0
C      1  0.4461640000000  0.4446880000000  0.5304460000000 1.0
C      1  0.5408920000000  0.4135280000000  0.4399410000000 1.0
C      1  0.4477410000000  0.4458250000000  0.4346250000000 1.0
C      1  0.4244740000000  0.5965000000000  0.5483640000000 1.0
C      1  0.4001780000000  0.5021710000000  0.4868010000000 1.0
C      1  0.4173160000000  0.4526970000000  0.5182690000000 1.0
C      1  0.4236890000000  0.5223360000000  0.5572640000000 1.0
C      1  0.4851060000000  0.5231120000000  0.4391950000000 1.0
C      1  0.4508890000000  0.5272790000000  0.4768850000000 1.0
C      1  0.5130870000000  0.4490060000000  0.5273930000000 1.0
C      1  0.5538090000000  0.5103990000000  0.5600420000000 1.0
C      1  0.4708910000000  0.5723140000000  0.5440510000000 1.0
C      1  0.4609000000000  0.4183370000000  0.5130540000000 1.0
C      1  0.5776980000000  0.5452850000000  0.4794960000000 1.0
C      1  0.5984150000000  0.4804730000000  0.5651580000000 1.0
C      1  0.5750910000000  0.5534520000000  0.5274990000000 1.0
C      1  0.5318970000000  0.5859690000000  0.4855100000000 1.0
C      1  0.4334120000000  0.4805090000000  0.5072530000000 1.0
C      1  0.4073380000000  0.5426450000000  0.4642800000000 1.0
C      1  0.5168860000000  0.4065510000000  0.5116880000000 1.0
C      1  0.5188120000000  0.5044720000000  0.4794070000000 1.0
C      1  0.4509050000000  0.4877860000000  0.5867230000000 1.0
C      1  0.5680090000000  0.5594310000000  0.4543070000000 1.0
C      1  0.4579200000000  0.4796730000000  0.5544570000000 1.0
C      1  0.5785170000000  0.4524660000000  0.4918130000000 1.0
C      1  0.4738870000000  0.4337870000000  0.4444360000000 1.0
C      1  0.5589370000000  0.4574980000000  0.4434130000000 1.0
C      1  0.5954640000000  0.4893030000000  0.5236890000000 1.0
C      1  0.4963750000000  0.4533480000000  0.5912830000000 1.0
C      1  0.5512580000000  0.5159840000000  0.5167970000000 1.0
C      1  0.5757090000000  0.4393700000000  0.5401590000000 1.0
C      1  0.5538600000000  0.5410130000000  0.4328590000000 1.0
C      1  0.5592830000000  0.5192540000000  0.4857920000000 1.0
C      1  0.4635360000000  0.4793170000000  0.5209200000000 1.0
C      1  0.4454050000000  0.5059420000000  0.4424150000000 1.0
C      1  0.5179330000000  0.4974320000000  0.5915100000000 1.0
C      1  0.5122670000000  0.5199590000000  0.5097730000000 1.0
C      1  0.5656950000000  0.4274840000000  0.4805100000000 1.0
C      1  0.5140040000000  0.4741000000000  0.4648510000000 1.0
C      1  0.4828710000000  0.5552710000000  0.4445860000000 1.0
C      1  0.5865070000000  0.5083570000000  0.5509360000000 1.0
C      1  0.4792910000000  0.5226530000000  0.4699640000000 1.0
C      1  0.4814790000000  0.5220410000000  0.5954860000000 1.0
C      1  0.4980300000000  0.4796890000000  0.6025470000000 1.0
C      1  0.5278930000000  0.5649800000000  0.5609810000000 1.0
C      1  0.5364110000000  0.4790870000000  0.5153040000000 1.0
C      1  0.5872690000000  0.5012630000000  0.4928630000000 1.0
C      1  0.5256810000000  0.4783960000000  0.3993660000000 1.0
C      1  0.4332350000000  0.5347250000000  0.4487730000000 1.0
C      1  0.5570460000000  0.6021810000000  0.4743840000000 1.0
C      1  0.5099770000000  0.6026040000000  0.5316330000000 1.0
C      1  0.5320070000000  0.4650190000000  0.4417960000000 1.0
END
