TITL C-2848496-4490-329 0.00440391066872746 125000 -529.569090688273 0 0 98 (C1) n - 1
REM
REM in /home/bkarasulu/work/CARBON/AIRSS/Generating-Clusters/AIREBO/with-SteepDescent/Only-C1/SD-CG-opt/Try1-1.4A-POS3A/HFTN-CG
REM
REM
REM
REM
REM
REM ./C.cell (11c1c37f851c82e70ff6c80c92926a4b)
REM
REM compiler GCC version 9.2.1 20190827 (Red Hat 9.2.1-1)
REM options -cpp -mtune=generic -march=x86-64 -g -O0 -fpre-include=/usr/include/finclude/math-vector-fortran.h
REM seed -1624208746 1759319132 -1745626476 1678196612 -1284722574 -2117576773 194654634 2004488943 -292134480 -1898019113 1621311537 -1783946572 -1177594489 -291169806 -2137157169 -811499973 2024555826 570730872 -682022133 -763739083 -1770847020 -814383583 1915403414 -1287076842 999973391 -326249078 -592020444 1176577814 -974520589 -401789649 -1118509087 -6074476 806546165
REM
CELL 1.54180   50.00000   50.00000   50.00000   90.00000   90.00000   90.00000
LATT -1
SFAC C  
C      1  0.5138620000000  0.4102940000000  0.4676460000000 1.0
C      1  0.5912070000000  0.4420930000000  0.5106700000000 1.0
C      1  0.5086990000000  0.5392110000000  0.5396760000000 1.0
C      1  0.5081720000000  0.5069650000000  0.4199270000000 1.0
C      1  0.5538280000000  0.4682520000000  0.4753970000000 1.0
C      1  0.5087540000000  0.5798360000000  0.5247350000000 1.0
C      1  0.5249060000000  0.4813790000000  0.4348410000000 1.0
C      1  0.4205270000000  0.5498320000000  0.4835240000000 1.0
C      1  0.4955240000000  0.5572230000000  0.5936810000000 1.0
C      1  0.4550770000000  0.5296630000000  0.4696110000000 1.0
C      1  0.4650650000000  0.4953510000000  0.5293950000000 1.0
C      1  0.5614350000000  0.5613690000000  0.4687710000000 1.0
C      1  0.4371340000000  0.5020270000000  0.5584900000000 1.0
C      1  0.5338290000000  0.5390120000000  0.5167550000000 1.0
C      1  0.5816200000000  0.4308000000000  0.4875690000000 1.0
C      1  0.4734630000000  0.4459210000000  0.4641280000000 1.0
C      1  0.4636810000000  0.5074330000000  0.5674510000000 1.0
C      1  0.5546860000000  0.4841000000000  0.4265250000000 1.0
C      1  0.5265970000000  0.5671190000000  0.5472640000000 1.0
C      1  0.5205820000000  0.5365180000000  0.4225410000000 1.0
C      1  0.4826950000000  0.5753670000000  0.4409710000000 1.0
C      1  0.5415800000000  0.5404620000000  0.4411460000000 1.0
C      1  0.5676840000000  0.5346840000000  0.4561780000000 1.0
C      1  0.5789690000000  0.4899840000000  0.4830420000000 1.0
C      1  0.4421360000000  0.4542920000000  0.4629180000000 1.0
C      1  0.5576950000000  0.5649210000000  0.5477160000000 1.0
C      1  0.5320880000000  0.4720870000000  0.5300830000000 1.0
C      1  0.4592680000000  0.4274680000000  0.5820810000000 1.0
C      1  0.5425880000000  0.5640710000000  0.5107770000000 1.0
C      1  0.5589430000000  0.4388970000000  0.4731940000000 1.0
C      1  0.5157830000000  0.4473340000000  0.5136370000000 1.0
C      1  0.5293510000000  0.5639450000000  0.4607510000000 1.0
C      1  0.5330870000000  0.5183550000000  0.5509610000000 1.0
C      1  0.4688620000000  0.4455970000000  0.4975140000000 1.0
C      1  0.4158140000000  0.5039760000000  0.5757950000000 1.0
C      1  0.4687540000000  0.5233140000000  0.5103780000000 1.0
C      1  0.5765120000000  0.5486320000000  0.5248710000000 1.0
C      1  0.4916260000000  0.5172420000000  0.4543610000000 1.0
C      1  0.4217830000000  0.5290550000000  0.4621370000000 1.0
C      1  0.5040160000000  0.4058480000000  0.4955030000000 1.0
C      1  0.5606650000000  0.4636090000000  0.5416620000000 1.0
C      1  0.5097680000000  0.5395180000000  0.4687340000000 1.0
C      1  0.4587350000000  0.5556840000000  0.5132210000000 1.0
C      1  0.4917540000000  0.4742760000000  0.5296100000000 1.0
C      1  0.4773210000000  0.4937650000000  0.5884430000000 1.0
C      1  0.5063450000000  0.5554190000000  0.5708800000000 1.0
C      1  0.4311890000000  0.4906560000000  0.5288440000000 1.0
C      1  0.5042140000000  0.5601570000000  0.4208710000000 1.0
C      1  0.5682280000000  0.5151480000000  0.4757430000000 1.0
C      1  0.5276390000000  0.4980050000000  0.5745040000000 1.0
C      1  0.4912910000000  0.5557620000000  0.5150960000000 1.0
C      1  0.4451700000000  0.4998240000000  0.4787110000000 1.0
C      1  0.5532890000000  0.4833730000000  0.5844540000000 1.0
C      1  0.5127630000000  0.5085430000000  0.5990900000000 1.0
C      1  0.4907350000000  0.4697420000000  0.5804470000000 1.0
C      1  0.4828180000000  0.5183300000000  0.5471190000000 1.0
C      1  0.4830220000000  0.5411910000000  0.4852130000000 1.0
C      1  0.4156610000000  0.5352490000000  0.5081520000000 1.0
C      1  0.4959410000000  0.5064820000000  0.5069040000000 1.0
C      1  0.4651990000000  0.4678240000000  0.5498390000000 1.0
C      1  0.4590950000000  0.4780060000000  0.5008790000000 1.0
C      1  0.4845570000000  0.4893500000000  0.4372990000000 1.0
C      1  0.5147030000000  0.4547270000000  0.4225950000000 1.0
C      1  0.5631780000000  0.4630330000000  0.5693140000000 1.0
C      1  0.5864930000000  0.4905530000000  0.5111090000000 1.0
C      1  0.5441050000000  0.4858340000000  0.5014010000000 1.0
C      1  0.5826130000000  0.4653590000000  0.5240710000000 1.0
C      1  0.4511590000000  0.3934870000000  0.4963690000000 1.0
C      1  0.4450280000000  0.5647600000000  0.4856040000000 1.0
C      1  0.4066030000000  0.5066670000000  0.4714870000000 1.0
C      1  0.5866800000000  0.5157990000000  0.5252290000000 1.0
C      1  0.4239700000000  0.4494530000000  0.4847830000000 1.0
C      1  0.4462560000000  0.4821930000000  0.4057480000000 1.0
C      1  0.4954600000000  0.4292520000000  0.5085770000000 1.0
C      1  0.4413200000000  0.4811740000000  0.4542730000000 1.0
C      1  0.5056690000000  0.6047580000000  0.5183080000000 1.0
C      1  0.4556770000000  0.4866110000000  0.4310350000000 1.0
C      1  0.4851340000000  0.4155380000000  0.4616100000000 1.0
C      1  0.5618960000000  0.5255260000000  0.5450910000000 1.0
C      1  0.5220920000000  0.4792870000000  0.4686780000000 1.0
C      1  0.4660010000000  0.4137140000000  0.4860240000000 1.0
C      1  0.4313840000000  0.5468170000000  0.5279220000000 1.0
C      1  0.4610590000000  0.5611710000000  0.4582880000000 1.0
C      1  0.4293830000000  0.4652360000000  0.5063290000000 1.0
C      1  0.4930820000000  0.4670690000000  0.4558230000000 1.0
C      1  0.5681350000000  0.5641740000000  0.4957840000000 1.0
C      1  0.5111510000000  0.4755320000000  0.5566670000000 1.0
C      1  0.5392540000000  0.4212740000000  0.4637840000000 1.0
C      1  0.5130690000000  0.5830590000000  0.4431610000000 1.0
C      1  0.4209560000000  0.5041110000000  0.5022060000000 1.0
C      1  0.4695000000000  0.4498300000000  0.5724710000000 1.0
C      1  0.4388780000000  0.3733550000000  0.5078080000000 1.0
C      1  0.5433520000000  0.5177130000000  0.4965950000000 1.0
C      1  0.5246260000000  0.5118670000000  0.4730680000000 1.0
C      1  0.5071620000000  0.4762740000000  0.4991180000000 1.0
C      1  0.4610000000000  0.5442780000000  0.4287790000000 1.0
C      1  0.4818110000000  0.5274810000000  0.4263060000000 1.0
C      1  0.5188860000000  0.5031950000000  0.5262610000000 1.0
END
