TITL C-2848506-1665-509 0.000264732217413252 125000 -1054.13680536484 0 0 192 (C1) n - 1
REM
REM in /home/bkarasulu/work/CARBON/AIRSS/Generating-Clusters/AIREBO/with-SteepDescent/Only-C1/SD-CG-opt/Try1-1.4A-POS3A/HFTN-CG
REM
REM
REM
REM
REM
REM ./C.cell (11c1c37f851c82e70ff6c80c92926a4b)
REM
REM compiler GCC version 9.2.1 20190827 (Red Hat 9.2.1-1)
REM options -cpp -mtune=generic -march=x86-64 -g -O0 -fpre-include=/usr/include/finclude/math-vector-fortran.h
REM seed -1566007276 -1189766534 1211309668 2047370575 -1881839379 1686228295 -932320992 143599220 -1621723900 -398648095 -577380756 950919514 1413681972 -1990832304 155587829 1901539708 1247586914 -1922811510 -916536131 -289282782 -756904251 -5985944 1208265723 2030164737 443330960 1676100940 1207486990 1779194129 1728556691 -1619368531 -289826766 -666777278 -398528297
REM
CELL 1.54180   50.00000   50.00000   50.00000   90.00000   90.00000   90.00000
LATT -1
SFAC C  
C      1  0.5611540000000  0.4926140000000  0.5863400000000 1.0
C      1  0.4053170000000  0.4705850000000  0.5531220000000 1.0
C      1  0.4580800000000  0.4088900000000  0.5589180000000 1.0
C      1  0.5157360000000  0.4649300000000  0.5527800000000 1.0
C      1  0.4464610000000  0.4400220000000  0.5663030000000 1.0
C      1  0.5980170000000  0.4717090000000  0.4831140000000 1.0
C      1  0.4706380000000  0.4917010000000  0.5610160000000 1.0
C      1  0.5860830000000  0.5342530000000  0.4925630000000 1.0
C      1  0.5714790000000  0.5414260000000  0.4340200000000 1.0
C      1  0.4562410000000  0.4748470000000  0.5277630000000 1.0
C      1  0.5367610000000  0.4065140000000  0.4350130000000 1.0
C      1  0.5038590000000  0.4322190000000  0.5945110000000 1.0
C      1  0.4836910000000  0.4761890000000  0.4626740000000 1.0
C      1  0.5361860000000  0.5347540000000  0.5253440000000 1.0
C      1  0.4639590000000  0.4780100000000  0.4977880000000 1.0
C      1  0.4838890000000  0.4727300000000  0.4062040000000 1.0
C      1  0.5038930000000  0.5813960000000  0.4161460000000 1.0
C      1  0.4421240000000  0.4187530000000  0.4658420000000 1.0
C      1  0.4893380000000  0.5251240000000  0.5916990000000 1.0
C      1  0.4742510000000  0.4430600000000  0.4167700000000 1.0
C      1  0.4977700000000  0.5045350000000  0.4501850000000 1.0
C      1  0.4315780000000  0.4744520000000  0.6023470000000 1.0
C      1  0.3941030000000  0.5077140000000  0.5281620000000 1.0
C      1  0.5161980000000  0.5904600000000  0.5042400000000 1.0
C      1  0.5774310000000  0.5744950000000  0.4346060000000 1.0
C      1  0.4445540000000  0.4991790000000  0.4350110000000 1.0
C      1  0.5353370000000  0.5445050000000  0.6076370000000 1.0
C      1  0.5040760000000  0.5818430000000  0.5705430000000 1.0
C      1  0.4938610000000  0.4348540000000  0.4415450000000 1.0
C      1  0.4853550000000  0.4692840000000  0.5400840000000 1.0
C      1  0.4171840000000  0.4866900000000  0.4476240000000 1.0
C      1  0.5734610000000  0.4433190000000  0.5308040000000 1.0
C      1  0.4970410000000  0.5909150000000  0.5423760000000 1.0
C      1  0.5415100000000  0.4474580000000  0.5199070000000 1.0
C      1  0.4942250000000  0.4663040000000  0.5767870000000 1.0
C      1  0.4547800000000  0.5093600000000  0.4084630000000 1.0
C      1  0.5602890000000  0.5154180000000  0.5231880000000 1.0
C      1  0.5626100000000  0.4134940000000  0.4401420000000 1.0
C      1  0.5678630000000  0.5115270000000  0.4750190000000 1.0
C      1  0.4666240000000  0.4157450000000  0.5065860000000 1.0
C      1  0.5069870000000  0.5438410000000  0.4029790000000 1.0
C      1  0.4293450000000  0.5208400000000  0.5549100000000 1.0
C      1  0.4530840000000  0.5827260000000  0.5554370000000 1.0
C      1  0.5575550000000  0.5917670000000  0.5134550000000 1.0
C      1  0.5910650000000  0.4779260000000  0.5130130000000 1.0
C      1  0.5919720000000  0.5500690000000  0.5415210000000 1.0
C      1  0.4364010000000  0.5487330000000  0.4249800000000 1.0
C      1  0.5219420000000  0.5047430000000  0.5261560000000 1.0
C      1  0.4614070000000  0.5234570000000  0.5520080000000 1.0
C      1  0.4391960000000  0.5285910000000  0.4484200000000 1.0
C      1  0.4140420000000  0.5299200000000  0.4666260000000 1.0
C      1  0.5287160000000  0.5157550000000  0.4463580000000 1.0
C      1  0.4842870000000  0.5445820000000  0.5383150000000 1.0
C      1  0.4558130000000  0.5656510000000  0.4853020000000 1.0
C      1  0.5922740000000  0.5085400000000  0.5139310000000 1.0
C      1  0.5531740000000  0.4345040000000  0.4728150000000 1.0
C      1  0.5726910000000  0.5637970000000  0.5561770000000 1.0
C      1  0.4604160000000  0.4501570000000  0.4874150000000 1.0
C      1  0.4272500000000  0.5754260000000  0.5542590000000 1.0
C      1  0.3823220000000  0.4890950000000  0.4867560000000 1.0
C      1  0.4660840000000  0.4910510000000  0.3920470000000 1.0
C      1  0.4576620000000  0.6055780000000  0.5133040000000 1.0
C      1  0.5889460000000  0.4774280000000  0.4174520000000 1.0
C      1  0.4512270000000  0.5004800000000  0.4833520000000 1.0
C      1  0.5411370000000  0.4973170000000  0.4250960000000 1.0
C      1  0.3981760000000  0.5300150000000  0.5608650000000 1.0
C      1  0.5753750000000  0.5725780000000  0.4952190000000 1.0
C      1  0.5007810000000  0.4530400000000  0.4810810000000 1.0
C      1  0.4647600000000  0.4912740000000  0.3647410000000 1.0
C      1  0.4127460000000  0.4215540000000  0.4855800000000 1.0
C      1  0.4440990000000  0.4459510000000  0.4247350000000 1.0
C      1  0.4373470000000  0.4530430000000  0.5360310000000 1.0
C      1  0.5889030000000  0.4808340000000  0.5723240000000 1.0
C      1  0.4241810000000  0.5796090000000  0.4569940000000 1.0
C      1  0.5407020000000  0.4711430000000  0.6003390000000 1.0
C      1  0.4192280000000  0.5240690000000  0.5866870000000 1.0
C      1  0.5098530000000  0.5456230000000  0.4722440000000 1.0
C      1  0.4770440000000  0.4382400000000  0.5778900000000 1.0
C      1  0.5140610000000  0.4583630000000  0.4439620000000 1.0
C      1  0.3953980000000  0.4967830000000  0.5540710000000 1.0
C      1  0.5854130000000  0.5950410000000  0.4516870000000 1.0
C      1  0.4562160000000  0.4703440000000  0.4451050000000 1.0
C      1  0.5094820000000  0.4772460000000  0.6018140000000 1.0
C      1  0.5654480000000  0.4852140000000  0.4382260000000 1.0
C      1  0.5305060000000  0.5648160000000  0.4059640000000 1.0
C      1  0.5725800000000  0.5972280000000  0.4753730000000 1.0
C      1  0.4295250000000  0.5677510000000  0.5152890000000 1.0
C      1  0.4310760000000  0.5984630000000  0.5150900000000 1.0
C      1  0.4849990000000  0.5001360000000  0.6067450000000 1.0
C      1  0.4888040000000  0.5348300000000  0.4515610000000 1.0
C      1  0.5361280000000  0.4032750000000  0.4907450000000 1.0
C      1  0.5549480000000  0.5421180000000  0.4073260000000 1.0
C      1  0.5561420000000  0.5819470000000  0.5391970000000 1.0
C      1  0.4907080000000  0.3900770000000  0.4667600000000 1.0
C      1  0.5925260000000  0.4929210000000  0.4664150000000 1.0
C      1  0.5081480000000  0.3847250000000  0.4899340000000 1.0
C      1  0.5299530000000  0.4669910000000  0.4715820000000 1.0
C      1  0.4142790000000  0.4341930000000  0.4238040000000 1.0
C      1  0.5871600000000  0.5114000000000  0.4383710000000 1.0
C      1  0.5662540000000  0.4092380000000  0.4914370000000 1.0
C      1  0.5347650000000  0.5601350000000  0.5444350000000 1.0
C      1  0.4802370000000  0.4030240000000  0.5337940000000 1.0
C      1  0.4089130000000  0.5522340000000  0.5374460000000 1.0
C      1  0.4551310000000  0.5083730000000  0.5222150000000 1.0
C      1  0.4768840000000  0.5646340000000  0.5647750000000 1.0
C      1  0.5331310000000  0.5136400000000  0.4779620000000 1.0
C      1  0.4624550000000  0.5387360000000  0.4653250000000 1.0
C      1  0.4037580000000  0.5392420000000  0.5064420000000 1.0
C      1  0.3894140000000  0.5247700000000  0.4478770000000 1.0
C      1  0.5951280000000  0.5581820000000  0.5149650000000 1.0
C      1  0.5332240000000  0.4376530000000  0.5514870000000 1.0
C      1  0.5047780000000  0.4073450000000  0.5150940000000 1.0
C      1  0.4714970000000  0.5779740000000  0.4284640000000 1.0
C      1  0.4895110000000  0.5145580000000  0.5232300000000 1.0
C      1  0.4803550000000  0.4458050000000  0.5146370000000 1.0
C      1  0.4313570000000  0.5061350000000  0.6033690000000 1.0
C      1  0.5939530000000  0.5226880000000  0.5435490000000 1.0
C      1  0.4000910000000  0.4274360000000  0.5093200000000 1.0
C      1  0.5341440000000  0.4910640000000  0.5507320000000 1.0
C      1  0.4919900000000  0.4125870000000  0.5617890000000 1.0
C      1  0.5800650000000  0.5439500000000  0.5980510000000 1.0
C      1  0.5190490000000  0.4910670000000  0.4009630000000 1.0
C      1  0.5549520000000  0.5468050000000  0.5797020000000 1.0
C      1  0.5126870000000  0.4376720000000  0.5089860000000 1.0
C      1  0.4220780000000  0.5583500000000  0.4834670000000 1.0
C      1  0.4670290000000  0.4403440000000  0.4567860000000 1.0
C      1  0.6110600000000  0.5390600000000  0.4726280000000 1.0
C      1  0.4288790000000  0.4487760000000  0.4747660000000 1.0
C      1  0.5275050000000  0.5661260000000  0.5741820000000 1.0
C      1  0.4082830000000  0.4561860000000  0.5236420000000 1.0
C      1  0.4800810000000  0.5959090000000  0.4560460000000 1.0
C      1  0.5583920000000  0.4538730000000  0.5778200000000 1.0
C      1  0.4400510000000  0.5750160000000  0.4348070000000 1.0
C      1  0.5622040000000  0.4655840000000  0.4998340000000 1.0
C      1  0.5923900000000  0.4452380000000  0.4781680000000 1.0
C      1  0.4949290000000  0.6068740000000  0.4993200000000 1.0
C      1  0.5498540000000  0.5160300000000  0.3995370000000 1.0
C      1  0.5564200000000  0.5492110000000  0.4848910000000 1.0
C      1  0.5062820000000  0.5872190000000  0.4455080000000 1.0
C      1  0.5610830000000  0.4668300000000  0.4658130000000 1.0
C      1  0.4728510000000  0.5501240000000  0.5914710000000 1.0
C      1  0.4201970000000  0.4989320000000  0.4792210000000 1.0
C      1  0.5275770000000  0.5512620000000  0.4993700000000 1.0
C      1  0.5479230000000  0.5736670000000  0.4308370000000 1.0
C      1  0.5042260000000  0.4823240000000  0.4285660000000 1.0
C      1  0.4704380000000  0.5989780000000  0.5377050000000 1.0
C      1  0.5515540000000  0.4960120000000  0.5000140000000 1.0
C      1  0.5803740000000  0.4345850000000  0.4524120000000 1.0
C      1  0.5407690000000  0.5887630000000  0.4839110000000 1.0
C      1  0.5829630000000  0.4314310000000  0.5008910000000 1.0
C      1  0.4693110000000  0.5940410000000  0.4841790000000 1.0
C      1  0.5083610000000  0.5642960000000  0.5245030000000 1.0
C      1  0.4937830000000  0.4461300000000  0.3890150000000 1.0
C      1  0.4623810000000  0.4019460000000  0.4808760000000 1.0
C      1  0.4912860000000  0.4904020000000  0.4914330000000 1.0
C      1  0.5590650000000  0.4679210000000  0.5493810000000 1.0
C      1  0.5299780000000  0.5698830000000  0.4594770000000 1.0
C      1  0.4976570000000  0.4844490000000  0.6316730000000 1.0
C      1  0.4640730000000  0.3721120000000  0.4674730000000 1.0
C      1  0.6045130000000  0.4991060000000  0.4106200000000 1.0
C      1  0.5216390000000  0.4279520000000  0.4714040000000 1.0
C      1  0.5483940000000  0.5416860000000  0.4546890000000 1.0
C      1  0.4628960000000  0.5617460000000  0.6125980000000 1.0
C      1  0.5111460000000  0.5197200000000  0.3904840000000 1.0
C      1  0.5877830000000  0.4471420000000  0.5678860000000 1.0
C      1  0.4281600000000  0.4639980000000  0.5733220000000 1.0
C      1  0.4094050000000  0.4698040000000  0.4930790000000 1.0
C      1  0.4601600000000  0.4906540000000  0.5935960000000 1.0
C      1  0.4187590000000  0.4570770000000  0.4461560000000 1.0
C      1  0.3911260000000  0.5012010000000  0.4377460000000 1.0
C      1  0.5284720000000  0.3830560000000  0.5172410000000 1.0
C      1  0.5047960000000  0.5193240000000  0.4932070000000 1.0
C      1  0.3831200000000  0.5126310000000  0.5006770000000 1.0
C      1  0.4595300000000  0.5517780000000  0.5161240000000 1.0
C      1  0.4389290000000  0.4909800000000  0.5598720000000 1.0
C      1  0.4229120000000  0.5114730000000  0.5107200000000 1.0
C      1  0.6140630000000  0.5273180000000  0.4506680000000 1.0
C      1  0.5163550000000  0.4647860000000  0.3837890000000 1.0
C      1  0.5200920000000  0.4118680000000  0.5617850000000 1.0
C      1  0.5200330000000  0.5283320000000  0.5851620000000 1.0
C      1  0.4846630000000  0.5471210000000  0.4228220000000 1.0
C      1  0.4604120000000  0.5275360000000  0.4946190000000 1.0
C      1  0.5872380000000  0.4205080000000  0.5519300000000 1.0
C      1  0.5984080000000  0.4668040000000  0.5422610000000 1.0
C      1  0.5732660000000  0.4972670000000  0.5469970000000 1.0
C      1  0.5076990000000  0.4083770000000  0.4493640000000 1.0
C      1  0.5201350000000  0.4830170000000  0.4999290000000 1.0
C      1  0.4987810000000  0.5220220000000  0.5592310000000 1.0
C      1  0.4463270000000  0.4231620000000  0.5305960000000 1.0
C      1  0.4579060000000  0.5368990000000  0.4101590000000 1.0
C      1  0.5276490000000  0.4437200000000  0.5844890000000 1.0
C      1  0.5455270000000  0.5150180000000  0.5720870000000 1.0
END
