TITL C-2848500-1637-483 0.00140729645354932 125000 -653.15166751574 0 0 120 (C1) n - 1
REM
REM in /home/bkarasulu/work/CARBON/AIRSS/Generating-Clusters/AIREBO/with-SteepDescent/Only-C1/SD-CG-opt/Try1-1.4A-POS3A/HFTN-CG
REM
REM
REM
REM
REM
REM ./C.cell (11c1c37f851c82e70ff6c80c92926a4b)
REM
REM compiler GCC version 9.2.1 20190827 (Red Hat 9.2.1-1)
REM options -cpp -mtune=generic -march=x86-64 -g -O0 -fpre-include=/usr/include/finclude/math-vector-fortran.h
REM seed -1116030905 1810153597 -1299671581 -1299008832 -666138071 1186463002 -1543502179 1636845876 1089433415 -1537578508 1531947869 2109199260 -3750779 712454491 -1603916581 -567903106 809059339 989560403 -756094902 -114529466 -1341198312 1332459578 -1105418707 -418418251 1298246577 -233527762 -445449098 -469469232 -789416605 -257988664 -587220528 -531621830 1606519142
REM
CELL 1.54180   50.00000   50.00000   50.00000   90.00000   90.00000   90.00000
LATT -1
SFAC C  
C      1  0.4734770000000  0.5145590000000  0.5284170000000 1.0
C      1  0.5283980000000  0.5543260000000  0.4518860000000 1.0
C      1  0.4578220000000  0.4652450000000  0.4362500000000 1.0
C      1  0.6046720000000  0.5351870000000  0.4752060000000 1.0
C      1  0.4208580000000  0.5467870000000  0.5159830000000 1.0
C      1  0.5202150000000  0.4281600000000  0.4414850000000 1.0
C      1  0.4539640000000  0.5033680000000  0.4671560000000 1.0
C      1  0.4255910000000  0.4967750000000  0.5123420000000 1.0
C      1  0.4573870000000  0.5867160000000  0.5245280000000 1.0
C      1  0.5286070000000  0.5659910000000  0.5601880000000 1.0
C      1  0.4865140000000  0.4563780000000  0.4207620000000 1.0
C      1  0.5162250000000  0.5427150000000  0.5306380000000 1.0
C      1  0.4353010000000  0.4434640000000  0.4732080000000 1.0
C      1  0.5388860000000  0.4893670000000  0.5437010000000 1.0
C      1  0.4720090000000  0.5223330000000  0.5673650000000 1.0
C      1  0.5018170000000  0.5821020000000  0.5732080000000 1.0
C      1  0.4891040000000  0.5118210000000  0.4298740000000 1.0
C      1  0.4758870000000  0.4699260000000  0.5050280000000 1.0
C      1  0.4250390000000  0.4993600000000  0.5458090000000 1.0
C      1  0.5063020000000  0.4334040000000  0.4889470000000 1.0
C      1  0.5908340000000  0.5103170000000  0.4565740000000 1.0
C      1  0.5430090000000  0.5380010000000  0.5658470000000 1.0
C      1  0.5629420000000  0.4523580000000  0.4431900000000 1.0
C      1  0.4586770000000  0.5740980000000  0.4870500000000 1.0
C      1  0.5515620000000  0.4701850000000  0.4841610000000 1.0
C      1  0.4503640000000  0.4781680000000  0.5235170000000 1.0
C      1  0.5393230000000  0.4707680000000  0.4310230000000 1.0
C      1  0.4092760000000  0.4785070000000  0.4921120000000 1.0
C      1  0.5701550000000  0.4552530000000  0.5307000000000 1.0
C      1  0.4776490000000  0.4491910000000  0.5266850000000 1.0
C      1  0.4218700000000  0.4744910000000  0.5565340000000 1.0
C      1  0.4619540000000  0.4534260000000  0.5718640000000 1.0
C      1  0.5233570000000  0.5747990000000  0.5249390000000 1.0
C      1  0.5645140000000  0.4479870000000  0.5044500000000 1.0
C      1  0.4512720000000  0.5597290000000  0.5235210000000 1.0
C      1  0.4847200000000  0.5016780000000  0.4593840000000 1.0
C      1  0.4598100000000  0.4116100000000  0.4486910000000 1.0
C      1  0.4121380000000  0.5108960000000  0.4472510000000 1.0
C      1  0.6152710000000  0.4826260000000  0.4881690000000 1.0
C      1  0.5330180000000  0.5368930000000  0.4163250000000 1.0
C      1  0.4788390000000  0.4881420000000  0.4113590000000 1.0
C      1  0.5441540000000  0.5145470000000  0.5256910000000 1.0
C      1  0.5848630000000  0.5036030000000  0.5221300000000 1.0
C      1  0.4387650000000  0.5323460000000  0.4678820000000 1.0
C      1  0.4214160000000  0.5244120000000  0.4961240000000 1.0
C      1  0.4525580000000  0.4261080000000  0.5251250000000 1.0
C      1  0.5386530000000  0.5134390000000  0.4748320000000 1.0
C      1  0.4594840000000  0.4097850000000  0.5005260000000 1.0
C      1  0.4673570000000  0.5418850000000  0.4521240000000 1.0
C      1  0.5600670000000  0.5966660000000  0.5010860000000 1.0
C      1  0.5684530000000  0.4831440000000  0.5339930000000 1.0
C      1  0.4791290000000  0.5108260000000  0.5980510000000 1.0
C      1  0.5069840000000  0.5939630000000  0.4608100000000 1.0
C      1  0.5814230000000  0.5335450000000  0.5353130000000 1.0
C      1  0.4971920000000  0.4501850000000  0.5532550000000 1.0
C      1  0.4699830000000  0.5407240000000  0.5069880000000 1.0
C      1  0.5517780000000  0.4433950000000  0.5499480000000 1.0
C      1  0.4859880000000  0.4564340000000  0.4795320000000 1.0
C      1  0.4985510000000  0.5034910000000  0.5574890000000 1.0
C      1  0.4242120000000  0.5366490000000  0.4374420000000 1.0
C      1  0.5524230000000  0.5344960000000  0.4437490000000 1.0
C      1  0.4411240000000  0.5203890000000  0.5558530000000 1.0
C      1  0.5278510000000  0.4282600000000  0.4677510000000 1.0
C      1  0.4858740000000  0.4926150000000  0.3818500000000 1.0
C      1  0.5499320000000  0.5463440000000  0.5336190000000 1.0
C      1  0.4726740000000  0.4844250000000  0.5812270000000 1.0
C      1  0.5156980000000  0.4531780000000  0.5150650000000 1.0
C      1  0.4598540000000  0.5687220000000  0.4400650000000 1.0
C      1  0.4988670000000  0.5375680000000  0.4498750000000 1.0
C      1  0.4765790000000  0.5117490000000  0.4904440000000 1.0
C      1  0.5283320000000  0.5771010000000  0.4704240000000 1.0
C      1  0.5440510000000  0.4875990000000  0.5772620000000 1.0
C      1  0.5074750000000  0.4780760000000  0.5367250000000 1.0
C      1  0.5112980000000  0.5325680000000  0.4799600000000 1.0
C      1  0.4877230000000  0.5569120000000  0.4829120000000 1.0
C      1  0.5169770000000  0.5205210000000  0.5076550000000 1.0
C      1  0.5930780000000  0.4955370000000  0.4935710000000 1.0
C      1  0.4384070000000  0.5655380000000  0.4742490000000 1.0
C      1  0.4421080000000  0.4525310000000  0.5442710000000 1.0
C      1  0.5149250000000  0.4501910000000  0.5785350000000 1.0
C      1  0.5051550000000  0.3816560000000  0.5135960000000 1.0
C      1  0.5236180000000  0.4748100000000  0.4912490000000 1.0
C      1  0.4696010000000  0.4279810000000  0.4287830000000 1.0
C      1  0.4748230000000  0.3800940000000  0.5035000000000 1.0
C      1  0.5069630000000  0.5941670000000  0.5442150000000 1.0
C      1  0.4836710000000  0.5779300000000  0.4564470000000 1.0
C      1  0.5094450000000  0.5302330000000  0.4121620000000 1.0
C      1  0.5085980000000  0.5220960000000  0.5996560000000 1.0
C      1  0.5733940000000  0.5367510000000  0.5642750000000 1.0
C      1  0.5670070000000  0.4945110000000  0.4749870000000 1.0
C      1  0.5301190000000  0.4903680000000  0.4550950000000 1.0
C      1  0.4465840000000  0.4160350000000  0.4739120000000 1.0
C      1  0.4889290000000  0.5394950000000  0.5433490000000 1.0
C      1  0.5579310000000  0.5253730000000  0.4983720000000 1.0
C      1  0.4455490000000  0.4905700000000  0.4166230000000 1.0
C      1  0.4925820000000  0.4091610000000  0.4976520000000 1.0
C      1  0.4196560000000  0.4667220000000  0.4699310000000 1.0
C      1  0.5713280000000  0.5352130000000  0.4687030000000 1.0
C      1  0.5411110000000  0.4568790000000  0.5730070000000 1.0
C      1  0.4623400000000  0.4507770000000  0.4624860000000 1.0
C      1  0.5160140000000  0.4509260000000  0.4261900000000 1.0
C      1  0.5796490000000  0.5042490000000  0.4280370000000 1.0
C      1  0.4358680000000  0.5601270000000  0.4255530000000 1.0
C      1  0.4701710000000  0.4877650000000  0.5474270000000 1.0
C      1  0.4346100000000  0.4868310000000  0.4486200000000 1.0
C      1  0.4794670000000  0.5569320000000  0.5709620000000 1.0
C      1  0.4995240000000  0.4931340000000  0.5072880000000 1.0
C      1  0.4007820000000  0.5154710000000  0.4720710000000 1.0
C      1  0.5249090000000  0.5149190000000  0.5709380000000 1.0
C      1  0.5494410000000  0.5033300000000  0.4303280000000 1.0
C      1  0.4717730000000  0.4276030000000  0.5531350000000 1.0
C      1  0.5309570000000  0.4321930000000  0.5337300000000 1.0
C      1  0.5095780000000  0.5501140000000  0.5841000000000 1.0
C      1  0.5562360000000  0.4396710000000  0.4725080000000 1.0
C      1  0.5352100000000  0.5021480000000  0.6067360000000 1.0
C      1  0.5904510000000  0.5340890000000  0.5034980000000 1.0
C      1  0.4328410000000  0.5446540000000  0.5455450000000 1.0
C      1  0.5371790000000  0.5819310000000  0.4984980000000 1.0
C      1  0.5030000000000  0.4792020000000  0.4664430000000 1.0
C      1  0.4890490000000  0.4573140000000  0.5916670000000 1.0
END
