TITL C-2847952-8118-610 -5.39162341250167e-06 125000 -14.3476679561721 0 0 4 (D2h) n - 1
REM
REM in /home/bkarasulu/work/CARBON/AIRSS/Generating-Clusters/AIREBO/with-SteepDescent/Only-C1/SD-CG-opt/Try1-1.4A-POS3A/HFTN-CG
REM
REM
REM
REM
REM
REM ./C.cell (11c1c37f851c82e70ff6c80c92926a4b)
REM
REM compiler GCC version 9.2.1 20190827 (Red Hat 9.2.1-1)
REM options -cpp -mtune=generic -march=x86-64 -g -O0 -fpre-include=/usr/include/finclude/math-vector-fortran.h
REM seed -486608243 -1206466370 -372614055 -262006704 833869012 -1942630145 -1516033554 1455124015 -929489081 1310376528 -1568950118 -463166997 309434295 2070091104 -334413507 -1053601536 -1118296355 314249416 358084404 -1095974932 -162717835 -1834046671 100730520 -460102672 -551132048 -190067189 1211964967 1515520616 1463534330 -9206380 1553327095 694811042 1553685759
REM
CELL 1.54180   50.00000   50.00000   50.00000   90.00000   90.00000   90.00000
LATT -1
SFAC C  
C      1  0.5014380000000  0.5230450000000  0.4925280000000 1.0
C      1  0.5171630000000  0.4959880000000  0.4909280000000 1.0
C      1  0.4828370000000  0.5040120000000  0.5090720000000 1.0
C      1  0.4985620000000  0.4769550000000  0.5074720000000 1.0
END
