TITL C-2847949-8115-379 -0.000278673042515719 125000 -781.517884273546 0 0 144 (C1) n - 1
REM
REM in /home/bkarasulu/work/CARBON/AIRSS/Generating-Clusters/AIREBO/with-SteepDescent/Only-C1/SD-CG-opt/Try1-1.4A-POS3A/HFTN-CG
REM
REM
REM
REM
REM
REM ./C.cell (11c1c37f851c82e70ff6c80c92926a4b)
REM
REM compiler GCC version 9.2.1 20190827 (Red Hat 9.2.1-1)
REM options -cpp -mtune=generic -march=x86-64 -g -O0 -fpre-include=/usr/include/finclude/math-vector-fortran.h
REM seed 1390843661 -1794768807 -92342295 -366747953 -1489605065 -2116225309 -706226605 -446668207 1945223417 -435314361 -1909468519 1519730272 1546036591 1013977151 1568617699 -1956190017 1357770177 1769338783 -1526730234 -1300013668 192913567 -879549332 -1317359118 1256656584 -972794165 992819769 -1647339042 -1183441894 -1724182653 87099365 1720085242 1785082632 -1693374725
REM
CELL 1.54180   50.00000   50.00000   50.00000   90.00000   90.00000   90.00000
LATT -1
SFAC C  
C      1  0.4512960000000  0.4201970000000  0.5438260000000 1.0
C      1  0.5853920000000  0.4205430000000  0.4538910000000 1.0
C      1  0.4720050000000  0.5656360000000  0.4777460000000 1.0
C      1  0.4758880000000  0.5142350000000  0.5173880000000 1.0
C      1  0.5380670000000  0.4412870000000  0.4717670000000 1.0
C      1  0.4192590000000  0.5453470000000  0.4636610000000 1.0
C      1  0.5492940000000  0.5052300000000  0.4596280000000 1.0
C      1  0.4635320000000  0.5225480000000  0.5479570000000 1.0
C      1  0.5747640000000  0.4761780000000  0.4900210000000 1.0
C      1  0.5454550000000  0.5959020000000  0.4732210000000 1.0
C      1  0.4895150000000  0.6054460000000  0.4909740000000 1.0
C      1  0.5009790000000  0.5790700000000  0.4760240000000 1.0
C      1  0.5577200000000  0.4170620000000  0.5043440000000 1.0
C      1  0.4342460000000  0.4864540000000  0.4436060000000 1.0
C      1  0.3949790000000  0.4705830000000  0.5660390000000 1.0
C      1  0.5487360000000  0.5542780000000  0.4637520000000 1.0
C      1  0.4561950000000  0.4523590000000  0.5795330000000 1.0
C      1  0.4879780000000  0.5179490000000  0.4782110000000 1.0
C      1  0.5197190000000  0.5163190000000  0.5321880000000 1.0
C      1  0.4655190000000  0.4676970000000  0.5074590000000 1.0
C      1  0.5788410000000  0.4680300000000  0.4450830000000 1.0
C      1  0.4662370000000  0.4914280000000  0.4445830000000 1.0
C      1  0.5196110000000  0.4524060000000  0.4351190000000 1.0
C      1  0.4728280000000  0.5050040000000  0.4133920000000 1.0
C      1  0.4786760000000  0.5745870000000  0.5776870000000 1.0
C      1  0.5250090000000  0.5858440000000  0.4575930000000 1.0
C      1  0.5635200000000  0.4888390000000  0.4354980000000 1.0
C      1  0.4251770000000  0.5406680000000  0.5690190000000 1.0
C      1  0.5661430000000  0.5370560000000  0.5098520000000 1.0
C      1  0.5922320000000  0.5102060000000  0.5238300000000 1.0
C      1  0.5675260000000  0.5061130000000  0.5427240000000 1.0
C      1  0.5234250000000  0.5549700000000  0.4127110000000 1.0
C      1  0.4632980000000  0.5345390000000  0.4836360000000 1.0
C      1  0.4874980000000  0.4530300000000  0.4239430000000 1.0
C      1  0.4974880000000  0.4695410000000  0.4751730000000 1.0
C      1  0.5525880000000  0.4640960000000  0.5866440000000 1.0
C      1  0.4614540000000  0.6095960000000  0.4878120000000 1.0
C      1  0.5724300000000  0.5821470000000  0.4798260000000 1.0
C      1  0.6082200000000  0.5061500000000  0.4653960000000 1.0
C      1  0.4947060000000  0.4325500000000  0.5620780000000 1.0
C      1  0.4499440000000  0.5721460000000  0.5750830000000 1.0
C      1  0.4782120000000  0.5309000000000  0.3692250000000 1.0
C      1  0.4981720000000  0.5394300000000  0.5225140000000 1.0
C      1  0.5863450000000  0.5060300000000  0.4929990000000 1.0
C      1  0.4319630000000  0.4725100000000  0.4147620000000 1.0
C      1  0.5333360000000  0.4789640000000  0.5628750000000 1.0
C      1  0.5233140000000  0.5169980000000  0.6138320000000 1.0
C      1  0.4222060000000  0.5530580000000  0.5198570000000 1.0
C      1  0.5151660000000  0.5301610000000  0.4023160000000 1.0
C      1  0.5482380000000  0.4422090000000  0.5673570000000 1.0
C      1  0.5444210000000  0.5851970000000  0.5362730000000 1.0
C      1  0.5217990000000  0.4584500000000  0.4962000000000 1.0
C      1  0.3972180000000  0.5279110000000  0.4700080000000 1.0
C      1  0.5233850000000  0.4752020000000  0.4566290000000 1.0
C      1  0.4186770000000  0.4894660000000  0.3962560000000 1.0
C      1  0.4742480000000  0.5608530000000  0.5113370000000 1.0
C      1  0.5307990000000  0.5001580000000  0.5066350000000 1.0
C      1  0.4634430000000  0.4725050000000  0.4098350000000 1.0
C      1  0.4762120000000  0.4630300000000  0.4539900000000 1.0
C      1  0.5017430000000  0.4912100000000  0.6087330000000 1.0
C      1  0.5959360000000  0.5426330000000  0.5262970000000 1.0
C      1  0.4788550000000  0.4836420000000  0.5329840000000 1.0
C      1  0.5954780000000  0.5332260000000  0.4639390000000 1.0
C      1  0.5459220000000  0.4837070000000  0.5324800000000 1.0
C      1  0.4906910000000  0.5128430000000  0.4486620000000 1.0
C      1  0.5021060000000  0.4658050000000  0.5599500000000 1.0
C      1  0.4431800000000  0.4986850000000  0.4740640000000 1.0
C      1  0.5840200000000  0.4608740000000  0.5135610000000 1.0
C      1  0.4053170000000  0.4185340000000  0.5173140000000 1.0
C      1  0.5112630000000  0.5904950000000  0.5324690000000 1.0
C      1  0.5467220000000  0.5300860000000  0.5364310000000 1.0
C      1  0.4212710000000  0.4463780000000  0.4147900000000 1.0
C      1  0.5381620000000  0.4947350000000  0.5926210000000 1.0
C      1  0.4891270000000  0.5826770000000  0.5509060000000 1.0
C      1  0.4878260000000  0.4391640000000  0.5237320000000 1.0
C      1  0.5670840000000  0.4401040000000  0.5195550000000 1.0
C      1  0.5449150000000  0.5569340000000  0.5538720000000 1.0
C      1  0.5476640000000  0.5802780000000  0.5031300000000 1.0
C      1  0.4906250000000  0.5169910000000  0.3899540000000 1.0
C      1  0.4966790000000  0.5394440000000  0.6113060000000 1.0
C      1  0.4701990000000  0.4106950000000  0.5241270000000 1.0
C      1  0.4456850000000  0.4947470000000  0.5520410000000 1.0
C      1  0.4695980000000  0.4752890000000  0.5631280000000 1.0
C      1  0.4836320000000  0.4001450000000  0.5021720000000 1.0
C      1  0.5994470000000  0.4781010000000  0.5287450000000 1.0
C      1  0.5034590000000  0.6130550000000  0.5129660000000 1.0
C      1  0.4662240000000  0.5298510000000  0.4337910000000 1.0
C      1  0.5192720000000  0.5645440000000  0.5134980000000 1.0
C      1  0.4084630000000  0.4579050000000  0.5120980000000 1.0
C      1  0.5822400000000  0.5600630000000  0.4631140000000 1.0
C      1  0.4462040000000  0.5151200000000  0.5014860000000 1.0
C      1  0.5038630000000  0.4692900000000  0.5937360000000 1.0
C      1  0.5155520000000  0.5250170000000  0.4896610000000 1.0
C      1  0.5436300000000  0.4500260000000  0.5372590000000 1.0
C      1  0.5418950000000  0.3988100000000  0.4847150000000 1.0
C      1  0.4736150000000  0.4382770000000  0.4945070000000 1.0
C      1  0.4660280000000  0.4286790000000  0.5668360000000 1.0
C      1  0.5403640000000  0.4053600000000  0.4552720000000 1.0
C      1  0.5240120000000  0.5546840000000  0.4825890000000 1.0
C      1  0.5392560000000  0.5281460000000  0.5864960000000 1.0
C      1  0.5693750000000  0.5624980000000  0.5315460000000 1.0
C      1  0.4171050000000  0.4333690000000  0.4922390000000 1.0
C      1  0.4863370000000  0.5145100000000  0.5993980000000 1.0
C      1  0.5016780000000  0.4635720000000  0.3948920000000 1.0
C      1  0.5657600000000  0.4406490000000  0.4519200000000 1.0
C      1  0.5433630000000  0.4815570000000  0.4834070000000 1.0
C      1  0.5061830000000  0.4650150000000  0.5257250000000 1.0
C      1  0.5124150000000  0.4216230000000  0.4611930000000 1.0
C      1  0.5078760000000  0.4152140000000  0.5371640000000 1.0
C      1  0.4295550000000  0.4442760000000  0.4697490000000 1.0
C      1  0.4471060000000  0.5863820000000  0.4840060000000 1.0
C      1  0.5628490000000  0.5172510000000  0.5706690000000 1.0
C      1  0.4353290000000  0.5549180000000  0.4892390000000 1.0
C      1  0.5534990000000  0.4973850000000  0.4110030000000 1.0
C      1  0.4574270000000  0.4437640000000  0.4688140000000 1.0
C      1  0.5319340000000  0.5657190000000  0.4367270000000 1.0
C      1  0.4369750000000  0.5453690000000  0.4421200000000 1.0
C      1  0.4157700000000  0.4686390000000  0.5512470000000 1.0
C      1  0.4358040000000  0.5606280000000  0.5462730000000 1.0
C      1  0.5648220000000  0.5272300000000  0.4773710000000 1.0
C      1  0.4987820000000  0.5606720000000  0.5927870000000 1.0
C      1  0.4196230000000  0.5242160000000  0.5100420000000 1.0
C      1  0.4967130000000  0.4857360000000  0.3846270000000 1.0
C      1  0.5040200000000  0.4227390000000  0.4911360000000 1.0
C      1  0.4857290000000  0.5156630000000  0.5700120000000 1.0
C      1  0.5194790000000  0.5045850000000  0.4432830000000 1.0
C      1  0.4419480000000  0.4688200000000  0.5303570000000 1.0
C      1  0.4866480000000  0.4911580000000  0.4948410000000 1.0
C      1  0.4648570000000  0.5604420000000  0.4462830000000 1.0
C      1  0.4015500000000  0.5098030000000  0.4925080000000 1.0
C      1  0.4060830000000  0.4805890000000  0.4905490000000 1.0
C      1  0.5394980000000  0.4315990000000  0.4336440000000 1.0
C      1  0.5950050000000  0.4785220000000  0.4656170000000 1.0
C      1  0.4921330000000  0.4221230000000  0.4373410000000 1.0
C      1  0.4687190000000  0.5565090000000  0.5434410000000 1.0
C      1  0.4304960000000  0.5163930000000  0.5696310000000 1.0
C      1  0.5240980000000  0.3963220000000  0.5134230000000 1.0
C      1  0.5288390000000  0.5095910000000  0.4148250000000 1.0
C      1  0.4967100000000  0.5428870000000  0.5571220000000 1.0
C      1  0.4177390000000  0.4700540000000  0.4655060000000 1.0
C      1  0.5073520000000  0.4995290000000  0.5557050000000 1.0
C      1  0.5227550000000  0.5515420000000  0.5733370000000 1.0
C      1  0.5279400000000  0.4302270000000  0.5141550000000 1.0
C      1  0.4303570000000  0.4381610000000  0.5293170000000 1.0
END
