TITL C-2848500-1637-305 0.000138972279920618 125000 -1038.55634451172 0 0 196 (C1) n - 1
REM
REM in /home/bkarasulu/work/CARBON/AIRSS/Generating-Clusters/AIREBO/with-SteepDescent/Only-C1/SD-CG-opt/Try1-1.4A-POS3A/HFTN-CG
REM
REM
REM
REM
REM
REM ./C.cell (11c1c37f851c82e70ff6c80c92926a4b)
REM
REM compiler GCC version 9.2.1 20190827 (Red Hat 9.2.1-1)
REM options -cpp -mtune=generic -march=x86-64 -g -O0 -fpre-include=/usr/include/finclude/math-vector-fortran.h
REM seed 1326168491 1262410718 -394456746 1028586271 -1283604490 -1832293682 661931982 -668569630 1889849942 1384724937 357415589 -1222250121 -270920849 -2142161609 5203895 -1674483579 380134829 665729633 -1753370190 252855605 -1945346309 533091631 1766845457 -1590337774 -850356084 960279873 -1375055279 -1653955981 970924017 -1424837046 1978316120 539489593 -1694670414
REM
CELL 1.54180   50.00000   50.00000   50.00000   90.00000   90.00000   90.00000
LATT -1
SFAC C  
C      1  0.5186430000000  0.5565460000000  0.4044100000000 1.0
C      1  0.5177650000000  0.4187950000000  0.4920610000000 1.0
C      1  0.5327160000000  0.4512970000000  0.5457470000000 1.0
C      1  0.4677210000000  0.6125140000000  0.4584470000000 1.0
C      1  0.5951910000000  0.5602720000000  0.5154840000000 1.0
C      1  0.5293020000000  0.6119460000000  0.5144740000000 1.0
C      1  0.3914320000000  0.5311950000000  0.4608730000000 1.0
C      1  0.4278050000000  0.5098630000000  0.4053620000000 1.0
C      1  0.5731120000000  0.5097810000000  0.5766480000000 1.0
C      1  0.5642390000000  0.4851740000000  0.4655610000000 1.0
C      1  0.4734040000000  0.5799800000000  0.5272100000000 1.0
C      1  0.6139020000000  0.4294530000000  0.5020090000000 1.0
C      1  0.5468080000000  0.4780770000000  0.4372350000000 1.0
C      1  0.5219740000000  0.4080350000000  0.4236520000000 1.0
C      1  0.5675180000000  0.5528680000000  0.4737580000000 1.0
C      1  0.5112740000000  0.3766780000000  0.5314550000000 1.0
C      1  0.3953200000000  0.4981340000000  0.4637390000000 1.0
C      1  0.5421630000000  0.5340000000000  0.4272910000000 1.0
C      1  0.4732350000000  0.4497910000000  0.4894210000000 1.0
C      1  0.4539500000000  0.5749790000000  0.5026740000000 1.0
C      1  0.5207010000000  0.5610290000000  0.5144360000000 1.0
C      1  0.5370400000000  0.4832310000000  0.5487540000000 1.0
C      1  0.5543850000000  0.4576340000000  0.5811830000000 1.0
C      1  0.5028290000000  0.5189530000000  0.5986270000000 1.0
C      1  0.6149870000000  0.5138970000000  0.5200280000000 1.0
C      1  0.3848100000000  0.5531700000000  0.5358960000000 1.0
C      1  0.4950800000000  0.4696940000000  0.5936460000000 1.0
C      1  0.4490770000000  0.4769250000000  0.4640220000000 1.0
C      1  0.5508530000000  0.5552780000000  0.5723300000000 1.0
C      1  0.5642700000000  0.4984940000000  0.4163880000000 1.0
C      1  0.4662400000000  0.4393660000000  0.5652580000000 1.0
C      1  0.4117150000000  0.5399370000000  0.4939300000000 1.0
C      1  0.4474390000000  0.5237910000000  0.5818290000000 1.0
C      1  0.4687040000000  0.4852480000000  0.6084390000000 1.0
C      1  0.4936770000000  0.4623740000000  0.5420790000000 1.0
C      1  0.4267590000000  0.4955120000000  0.5213230000000 1.0
C      1  0.5281110000000  0.4498810000000  0.5149820000000 1.0
C      1  0.4293490000000  0.5229420000000  0.4703330000000 1.0
C      1  0.5117420000000  0.5300660000000  0.3934090000000 1.0
C      1  0.5332000000000  0.4143640000000  0.5609720000000 1.0
C      1  0.5269730000000  0.5703810000000  0.5834720000000 1.0
C      1  0.4059620000000  0.5363900000000  0.5521240000000 1.0
C      1  0.4283710000000  0.4977240000000  0.4911120000000 1.0
C      1  0.4386350000000  0.4229760000000  0.4800960000000 1.0
C      1  0.4694540000000  0.4548680000000  0.4111810000000 1.0
C      1  0.5798360000000  0.5815740000000  0.5229860000000 1.0
C      1  0.5615500000000  0.5344790000000  0.5935130000000 1.0
C      1  0.5367070000000  0.4295130000000  0.4680670000000 1.0
C      1  0.4714070000000  0.4305950000000  0.5328930000000 1.0
C      1  0.4503470000000  0.4709910000000  0.4317350000000 1.0
C      1  0.4812820000000  0.5747700000000  0.4581660000000 1.0
C      1  0.5026940000000  0.5131460000000  0.4386590000000 1.0
C      1  0.6040850000000  0.4809570000000  0.4890160000000 1.0
C      1  0.5371090000000  0.4053010000000  0.4452560000000 1.0
C      1  0.4824640000000  0.6058450000000  0.5322160000000 1.0
C      1  0.5309620000000  0.5465230000000  0.4571930000000 1.0
C      1  0.6054840000000  0.4855680000000  0.4373560000000 1.0
C      1  0.5394840000000  0.5294310000000  0.6103280000000 1.0
C      1  0.5810370000000  0.4724010000000  0.5093190000000 1.0
C      1  0.5593440000000  0.4321150000000  0.5706050000000 1.0
C      1  0.5690800000000  0.4222170000000  0.4616280000000 1.0
C      1  0.4223210000000  0.4140730000000  0.5036330000000 1.0
C      1  0.4285150000000  0.5405690000000  0.4200470000000 1.0
C      1  0.5886150000000  0.4783810000000  0.5371730000000 1.0
C      1  0.5912210000000  0.5317620000000  0.4388310000000 1.0
C      1  0.4744810000000  0.4919920000000  0.4781480000000 1.0
C      1  0.4251580000000  0.4964450000000  0.4494190000000 1.0
C      1  0.3933790000000  0.4702690000000  0.5050230000000 1.0
C      1  0.4275270000000  0.4639740000000  0.5804650000000 1.0
C      1  0.4183530000000  0.5475740000000  0.4496300000000 1.0
C      1  0.5614410000000  0.5258670000000  0.5030160000000 1.0
C      1  0.4997960000000  0.5640490000000  0.4317060000000 1.0
C      1  0.5099490000000  0.6071430000000  0.5392260000000 1.0
C      1  0.5130170000000  0.5185020000000  0.5519440000000 1.0
C      1  0.4459510000000  0.4139520000000  0.4553870000000 1.0
C      1  0.5183600000000  0.5085980000000  0.4672340000000 1.0
C      1  0.5892350000000  0.5063360000000  0.4262600000000 1.0
C      1  0.4229940000000  0.5672330000000  0.5078110000000 1.0
C      1  0.4711050000000  0.4232300000000  0.4355680000000 1.0
C      1  0.5084010000000  0.6146350000000  0.4887950000000 1.0
C      1  0.4746850000000  0.5338040000000  0.5325270000000 1.0
C      1  0.5858670000000  0.4414190000000  0.4401230000000 1.0
C      1  0.4547770000000  0.5566750000000  0.4344800000000 1.0
C      1  0.5377070000000  0.4855320000000  0.3827020000000 1.0
C      1  0.4356180000000  0.4419860000000  0.5642110000000 1.0
C      1  0.5963010000000  0.5567190000000  0.4877110000000 1.0
C      1  0.4679030000000  0.5533280000000  0.4814930000000 1.0
C      1  0.4348040000000  0.4661590000000  0.5285770000000 1.0
C      1  0.5378060000000  0.5130900000000  0.4007940000000 1.0
C      1  0.5669470000000  0.5192360000000  0.4701110000000 1.0
C      1  0.4944540000000  0.5446910000000  0.5564970000000 1.0
C      1  0.5068120000000  0.4356130000000  0.5574970000000 1.0
C      1  0.4757340000000  0.5559450000000  0.4084330000000 1.0
C      1  0.5664630000000  0.4031560000000  0.5213610000000 1.0
C      1  0.4384110000000  0.4317590000000  0.4303310000000 1.0
C      1  0.5653950000000  0.4935890000000  0.5500210000000 1.0
C      1  0.5677940000000  0.4298660000000  0.5432970000000 1.0
C      1  0.4288370000000  0.4272890000000  0.5342820000000 1.0
C      1  0.4402040000000  0.4537990000000  0.4824120000000 1.0
C      1  0.4991830000000  0.4380340000000  0.4477530000000 1.0
C      1  0.4015960000000  0.4352070000000  0.4880430000000 1.0
C      1  0.5168740000000  0.4643020000000  0.4489750000000 1.0
C      1  0.4443970000000  0.4912600000000  0.5917900000000 1.0
C      1  0.4226550000000  0.5897360000000  0.4837130000000 1.0
C      1  0.5335390000000  0.5073490000000  0.4400730000000 1.0
C      1  0.5306000000000  0.4611830000000  0.3939190000000 1.0
C      1  0.4637740000000  0.6237680000000  0.5197380000000 1.0
C      1  0.4818000000000  0.5070910000000  0.6210940000000 1.0
C      1  0.5932350000000  0.5339460000000  0.5635970000000 1.0
C      1  0.4855370000000  0.5137430000000  0.3986940000000 1.0
C      1  0.4962430000000  0.5084880000000  0.5241070000000 1.0
C      1  0.4191080000000  0.5415650000000  0.5787960000000 1.0
C      1  0.4876620000000  0.5549080000000  0.5092030000000 1.0
C      1  0.4005390000000  0.5067430000000  0.5492120000000 1.0
C      1  0.4662850000000  0.5073710000000  0.5503650000000 1.0
C      1  0.4628710000000  0.5239030000000  0.4759340000000 1.0
C      1  0.4504750000000  0.5437430000000  0.5542960000000 1.0
C      1  0.3894420000000  0.5162450000000  0.4919080000000 1.0
C      1  0.4965020000000  0.4726540000000  0.4954410000000 1.0
C      1  0.4995740000000  0.5760630000000  0.4853800000000 1.0
C      1  0.4499250000000  0.6076170000000  0.4938940000000 1.0
C      1  0.5311960000000  0.5100210000000  0.5047800000000 1.0
C      1  0.5413370000000  0.5372510000000  0.5484050000000 1.0
C      1  0.4806710000000  0.4805730000000  0.3918030000000 1.0
C      1  0.4079840000000  0.4471240000000  0.5199490000000 1.0
C      1  0.5172600000000  0.3718960000000  0.4889470000000 1.0
C      1  0.4673170000000  0.4620420000000  0.5205850000000 1.0
C      1  0.6134160000000  0.4908120000000  0.5373570000000 1.0
C      1  0.5377690000000  0.5647160000000  0.4852280000000 1.0
C      1  0.5275130000000  0.5779240000000  0.4457420000000 1.0
C      1  0.5550470000000  0.3943390000000  0.4716200000000 1.0
C      1  0.5480730000000  0.4545220000000  0.4140700000000 1.0
C      1  0.4418310000000  0.5633640000000  0.5806850000000 1.0
C      1  0.4972670000000  0.4271570000000  0.4155590000000 1.0
C      1  0.5174830000000  0.5497650000000  0.6026540000000 1.0
C      1  0.5077820000000  0.5675140000000  0.5427450000000 1.0
C      1  0.4726880000000  0.4930350000000  0.4224410000000 1.0
C      1  0.5829770000000  0.5595020000000  0.5713810000000 1.0
C      1  0.4816120000000  0.5378120000000  0.4434600000000 1.0
C      1  0.5222530000000  0.4853280000000  0.4856530000000 1.0
C      1  0.4121030000000  0.4725910000000  0.4786520000000 1.0
C      1  0.4184030000000  0.4906340000000  0.5647840000000 1.0
C      1  0.4678010000000  0.4948490000000  0.5113890000000 1.0
C      1  0.4482710000000  0.4836490000000  0.5527450000000 1.0
C      1  0.5104450000000  0.4171010000000  0.5854040000000 1.0
C      1  0.5965170000000  0.5345610000000  0.5316100000000 1.0
C      1  0.5897700000000  0.4379570000000  0.4796150000000 1.0
C      1  0.5443990000000  0.6359650000000  0.5173700000000 1.0
C      1  0.4749820000000  0.4718000000000  0.5662930000000 1.0
C      1  0.5405240000000  0.4620640000000  0.4733140000000 1.0
C      1  0.5606500000000  0.5705030000000  0.4475590000000 1.0
C      1  0.5669520000000  0.5210210000000  0.5362210000000 1.0
C      1  0.5504660000000  0.5859530000000  0.5085820000000 1.0
C      1  0.4574060000000  0.5271300000000  0.4081770000000 1.0
C      1  0.4590790000000  0.5134130000000  0.4453340000000 1.0
C      1  0.5928180000000  0.4670480000000  0.4622650000000 1.0
C      1  0.5054260000000  0.5275010000000  0.4997440000000 1.0
C      1  0.5541210000000  0.4864870000000  0.5925960000000 1.0
C      1  0.4956360000000  0.4403500000000  0.6052840000000 1.0
C      1  0.4916760000000  0.4850670000000  0.4495170000000 1.0
C      1  0.4773960000000  0.4194530000000  0.5869520000000 1.0
C      1  0.4528820000000  0.5864520000000  0.4463470000000 1.0
C      1  0.5136090000000  0.4792550000000  0.5240990000000 1.0
C      1  0.4258820000000  0.5766860000000  0.4580110000000 1.0
C      1  0.4930450000000  0.3957590000000  0.4882030000000 1.0
C      1  0.4893020000000  0.4276290000000  0.4756790000000 1.0
C      1  0.5311010000000  0.5010000000000  0.6045720000000 1.0
C      1  0.4035730000000  0.4476130000000  0.4586460000000 1.0
C      1  0.4781810000000  0.5351500000000  0.5817060000000 1.0
C      1  0.5181150000000  0.5880560000000  0.5618370000000 1.0
C      1  0.5364660000000  0.3959360000000  0.5356690000000 1.0
C      1  0.4221780000000  0.4806370000000  0.4207820000000 1.0
C      1  0.5500000000000  0.5600660000000  0.4088880000000 1.0
C      1  0.4507520000000  0.4074240000000  0.5471120000000 1.0
C      1  0.5512010000000  0.5539360000000  0.5204690000000 1.0
C      1  0.5027910000000  0.5376050000000  0.4700900000000 1.0
C      1  0.5181910000000  0.5951740000000  0.4684570000000 1.0
C      1  0.5991980000000  0.5286990000000  0.4717460000000 1.0
C      1  0.5552730000000  0.4526490000000  0.5015620000000 1.0
C      1  0.5806800000000  0.4325770000000  0.5119420000000 1.0
C      1  0.6121860000000  0.5079390000000  0.4923740000000 1.0
C      1  0.5594810000000  0.4922190000000  0.4984890000000 1.0
C      1  0.3858760000000  0.5527810000000  0.5106900000000 1.0
C      1  0.5019990000000  0.4574790000000  0.4016810000000 1.0
C      1  0.5237240000000  0.4670320000000  0.5755180000000 1.0
C      1  0.5766440000000  0.5540300000000  0.4278610000000 1.0
C      1  0.4284540000000  0.5449820000000  0.5297890000000 1.0
C      1  0.4907090000000  0.3805730000000  0.5173510000000 1.0
C      1  0.5394010000000  0.3944630000000  0.5018080000000 1.0
C      1  0.4467530000000  0.5206560000000  0.5182630000000 1.0
C      1  0.3938510000000  0.4989910000000  0.5180280000000 1.0
C      1  0.4583110000000  0.3991100000000  0.5720770000000 1.0
C      1  0.4167890000000  0.4495160000000  0.4334530000000 1.0
C      1  0.4973900000000  0.4968820000000  0.5733240000000 1.0
C      1  0.5000830000000  0.4309360000000  0.5184420000000 1.0
C      1  0.4807540000000  0.6182290000000  0.4841710000000 1.0
END
