TITL C-2847956-8218-373 0.00180668869631313 125000 -620.531077000379 0 0 118 (C1) n - 1
REM
REM in /home/bkarasulu/work/CARBON/AIRSS/Generating-Clusters/AIREBO/with-SteepDescent/Only-C1/SD-CG-opt/Try1-1.4A-POS3A/HFTN-CG
REM
REM
REM
REM
REM
REM ./C.cell (11c1c37f851c82e70ff6c80c92926a4b)
REM
REM compiler GCC version 9.2.1 20190827 (Red Hat 9.2.1-1)
REM options -cpp -mtune=generic -march=x86-64 -g -O0 -fpre-include=/usr/include/finclude/math-vector-fortran.h
REM seed 1337529677 -182709560 -72002815 -472069517 -862729218 241141243 1623241957 1214338704 1047386859 -2119481194 674579497 -137337832 -350662124 -1049278485 -215740764 545561452 -1452561457 1705458707 338620276 -1353955396 1007122959 -1373269922 230347954 1713968794 -795118278 1978056283 -1708557136 147799556 -1114021172 -1230070473 -1357068087 808848546 1194275894
REM
CELL 1.54180   50.00000   50.00000   50.00000   90.00000   90.00000   90.00000
LATT -1
SFAC C  
C      1  0.4120890000000  0.4687210000000  0.5208060000000 1.0
C      1  0.5448520000000  0.5556140000000  0.5049780000000 1.0
C      1  0.5379360000000  0.5033320000000  0.5419720000000 1.0
C      1  0.5441850000000  0.4819850000000  0.5012230000000 1.0
C      1  0.5196170000000  0.4079000000000  0.5119400000000 1.0
C      1  0.4984930000000  0.5292040000000  0.4984340000000 1.0
C      1  0.5641220000000  0.5076560000000  0.5112320000000 1.0
C      1  0.4374400000000  0.4449540000000  0.5001410000000 1.0
C      1  0.5093190000000  0.5437760000000  0.5741360000000 1.0
C      1  0.4497710000000  0.5014290000000  0.5377160000000 1.0
C      1  0.5358510000000  0.5257940000000  0.5165060000000 1.0
C      1  0.5264650000000  0.4499200000000  0.5582450000000 1.0
C      1  0.3995910000000  0.5133870000000  0.4908070000000 1.0
C      1  0.5550160000000  0.4488950000000  0.4818800000000 1.0
C      1  0.5995470000000  0.4222390000000  0.5196410000000 1.0
C      1  0.4470810000000  0.4595280000000  0.4645420000000 1.0
C      1  0.5030280000000  0.4491550000000  0.5813930000000 1.0
C      1  0.5312320000000  0.4683620000000  0.5864170000000 1.0
C      1  0.5422660000000  0.5792700000000  0.4779640000000 1.0
C      1  0.4548690000000  0.4236520000000  0.5049910000000 1.0
C      1  0.4441580000000  0.5738080000000  0.5148730000000 1.0
C      1  0.5034530000000  0.5368050000000  0.4056660000000 1.0
C      1  0.5033520000000  0.6029450000000  0.4521260000000 1.0
C      1  0.4876900000000  0.4490980000000  0.5238580000000 1.0
C      1  0.4380110000000  0.5134890000000  0.5110270000000 1.0
C      1  0.5615650000000  0.5514720000000  0.4746570000000 1.0
C      1  0.5660340000000  0.5047670000000  0.4774010000000 1.0
C      1  0.4401000000000  0.5343050000000  0.4848570000000 1.0
C      1  0.4983740000000  0.5950130000000  0.5127650000000 1.0
C      1  0.4920150000000  0.4020020000000  0.4721280000000 1.0
C      1  0.5256170000000  0.4746130000000  0.4736100000000 1.0
C      1  0.3890960000000  0.4556490000000  0.5290070000000 1.0
C      1  0.4911730000000  0.5159710000000  0.4513820000000 1.0
C      1  0.5079030000000  0.4687220000000  0.4384190000000 1.0
C      1  0.5593410000000  0.4773360000000  0.4382690000000 1.0
C      1  0.4166400000000  0.5566260000000  0.5176270000000 1.0
C      1  0.5261550000000  0.4415630000000  0.4654620000000 1.0
C      1  0.5421050000000  0.4217200000000  0.4423560000000 1.0
C      1  0.5148080000000  0.5650090000000  0.4920700000000 1.0
C      1  0.4554980000000  0.4404540000000  0.5500770000000 1.0
C      1  0.4762530000000  0.4487240000000  0.5666630000000 1.0
C      1  0.5169210000000  0.4142370000000  0.4838350000000 1.0
C      1  0.4515880000000  0.4970410000000  0.4302440000000 1.0
C      1  0.5476280000000  0.4971410000000  0.5825430000000 1.0
C      1  0.5057770000000  0.5218690000000  0.5278420000000 1.0
C      1  0.5608520000000  0.4218000000000  0.4649080000000 1.0
C      1  0.5320410000000  0.5238330000000  0.5897390000000 1.0
C      1  0.5255920000000  0.4963400000000  0.4474110000000 1.0
C      1  0.4815800000000  0.5314350000000  0.5483570000000 1.0
C      1  0.5374180000000  0.4632080000000  0.4256470000000 1.0
C      1  0.5754090000000  0.5453210000000  0.5185180000000 1.0
C      1  0.4681770000000  0.5591550000000  0.4314580000000 1.0
C      1  0.4738880000000  0.4781940000000  0.5318250000000 1.0
C      1  0.5399040000000  0.5290370000000  0.5597290000000 1.0
C      1  0.5966770000000  0.5174650000000  0.4740440000000 1.0
C      1  0.4596180000000  0.4877720000000  0.4787300000000 1.0
C      1  0.5035460000000  0.4918510000000  0.5253100000000 1.0
C      1  0.5740590000000  0.5200430000000  0.5413060000000 1.0
C      1  0.4862000000000  0.4867110000000  0.4575290000000 1.0
C      1  0.5003790000000  0.4837140000000  0.4945260000000 1.0
C      1  0.5643240000000  0.5473430000000  0.5563950000000 1.0
C      1  0.4580970000000  0.4721430000000  0.4105370000000 1.0
C      1  0.5649690000000  0.4749770000000  0.4668330000000 1.0
C      1  0.4645170000000  0.5332920000000  0.5189840000000 1.0
C      1  0.4838490000000  0.5566020000000  0.5035090000000 1.0
C      1  0.4215880000000  0.5292900000000  0.4426230000000 1.0
C      1  0.4339030000000  0.5196740000000  0.5616340000000 1.0
C      1  0.4682580000000  0.5722800000000  0.4628390000000 1.0
C      1  0.5712410000000  0.4968320000000  0.5629100000000 1.0
C      1  0.5574120000000  0.4760780000000  0.5442150000000 1.0
C      1  0.4435930000000  0.5112930000000  0.4600700000000 1.0
C      1  0.4942690000000  0.5631770000000  0.5506110000000 1.0
C      1  0.4591020000000  0.5350020000000  0.5710280000000 1.0
C      1  0.5300450000000  0.4455420000000  0.5047740000000 1.0
C      1  0.4965660000000  0.5547930000000  0.4580090000000 1.0
C      1  0.4587110000000  0.4824650000000  0.5826410000000 1.0
C      1  0.5372650000000  0.5777170000000  0.5296820000000 1.0
C      1  0.4623810000000  0.5662540000000  0.5415290000000 1.0
C      1  0.5091800000000  0.5285450000000  0.4719980000000 1.0
C      1  0.5180180000000  0.4786850000000  0.5503310000000 1.0
C      1  0.4824240000000  0.5547910000000  0.4088200000000 1.0
C      1  0.4104900000000  0.5397260000000  0.4951140000000 1.0
C      1  0.5962930000000  0.5334800000000  0.4521020000000 1.0
C      1  0.5086390000000  0.4924420000000  0.5945370000000 1.0
C      1  0.5366470000000  0.5494260000000  0.4521420000000 1.0
C      1  0.5657500000000  0.5357350000000  0.4438430000000 1.0
C      1  0.4498440000000  0.4738080000000  0.5081760000000 1.0
C      1  0.5569010000000  0.4580360000000  0.5205660000000 1.0
C      1  0.5060600000000  0.5111750000000  0.4238250000000 1.0
C      1  0.5388180000000  0.5196150000000  0.4683780000000 1.0
C      1  0.4373820000000  0.4635650000000  0.5381400000000 1.0
C      1  0.4942530000000  0.4169300000000  0.5327100000000 1.0
C      1  0.4380720000000  0.5426990000000  0.5381980000000 1.0
C      1  0.4967520000000  0.5122540000000  0.5719900000000 1.0
C      1  0.4158130000000  0.4955690000000  0.4718040000000 1.0
C      1  0.4113920000000  0.4942740000000  0.5115020000000 1.0
C      1  0.4647240000000  0.4452830000000  0.4495870000000 1.0
C      1  0.4760630000000  0.5067300000000  0.5008450000000 1.0
C      1  0.4925560000000  0.5880350000000  0.4806300000000 1.0
C      1  0.5548540000000  0.5070120000000  0.4337020000000 1.0
C      1  0.4364890000000  0.4861560000000  0.5636550000000 1.0
C      1  0.5806280000000  0.4393720000000  0.5190840000000 1.0
C      1  0.4781260000000  0.4226760000000  0.4885400000000 1.0
C      1  0.5242500000000  0.4324080000000  0.5350910000000 1.0
C      1  0.5970420000000  0.5088200000000  0.5021190000000 1.0
C      1  0.4623150000000  0.4196500000000  0.5322220000000 1.0
C      1  0.4867100000000  0.4809190000000  0.5634070000000 1.0
C      1  0.5643000000000  0.5696560000000  0.5369690000000 1.0
C      1  0.4672830000000  0.5341030000000  0.4513840000000 1.0
C      1  0.5419660000000  0.4363210000000  0.4184720000000 1.0
C      1  0.4216790000000  0.4690650000000  0.4802270000000 1.0
C      1  0.4933710000000  0.4477050000000  0.4588460000000 1.0
C      1  0.4555100000000  0.5599410000000  0.4885180000000 1.0
C      1  0.5111890000000  0.5839460000000  0.5345810000000 1.0
C      1  0.4812410000000  0.4929660000000  0.4184360000000 1.0
C      1  0.4596440000000  0.4461110000000  0.4217500000000 1.0
C      1  0.5197740000000  0.5766760000000  0.4537010000000 1.0
C      1  0.4981050000000  0.4499160000000  0.4924670000000 1.0
END
