TITL C-2847945-6269-437 0.000800776549092014 125000 -655.267205406358 0 0 129 (C1) n - 1
REM
REM in /home/bkarasulu/work/CARBON/AIRSS/Generating-Clusters/AIREBO/with-SteepDescent/Only-C1/SD-CG-opt/Try1-1.4A-POS3A/HFTN-CG
REM
REM
REM
REM
REM
REM ./C.cell (11c1c37f851c82e70ff6c80c92926a4b)
REM
REM compiler GCC version 9.2.1 20190827 (Red Hat 9.2.1-1)
REM options -cpp -mtune=generic -march=x86-64 -g -O0 -fpre-include=/usr/include/finclude/math-vector-fortran.h
REM seed -161963663 -218459490 221694545 -956894846 -1225853636 2043604041 -1293306464 1624985055 226488136 2060087467 31356704 -1160795720 927733428 -1579565383 1121574679 -1457616976 805372452 -1624039476 -99450066 -1418143320 -240391036 287998271 822905568 -336838632 -2063136247 -318648885 22004966 -125681655 -1492680698 -1548684066 880486419 -1280762669 1037192084
REM
CELL 1.54180   50.00000   50.00000   50.00000   90.00000   90.00000   90.00000
LATT -1
SFAC C  
C      1  0.4607660000000  0.5524770000000  0.5550590000000 1.0
C      1  0.5057510000000  0.4129380000000  0.4398650000000 1.0
C      1  0.4244530000000  0.4388860000000  0.4959680000000 1.0
C      1  0.5163560000000  0.6044270000000  0.5109580000000 1.0
C      1  0.5443900000000  0.4582740000000  0.4833150000000 1.0
C      1  0.5063480000000  0.5391870000000  0.5567860000000 1.0
C      1  0.5400840000000  0.4511440000000  0.4503510000000 1.0
C      1  0.5339370000000  0.5701240000000  0.5200860000000 1.0
C      1  0.4814140000000  0.5341590000000  0.5111050000000 1.0
C      1  0.5760100000000  0.4511600000000  0.4897800000000 1.0
C      1  0.5221490000000  0.5213360000000  0.4069050000000 1.0
C      1  0.5992050000000  0.4890460000000  0.5135140000000 1.0
C      1  0.4080460000000  0.5352720000000  0.4955320000000 1.0
C      1  0.5303520000000  0.4866380000000  0.4181180000000 1.0
C      1  0.4625890000000  0.4547500000000  0.5841280000000 1.0
C      1  0.5117550000000  0.4558150000000  0.5048480000000 1.0
C      1  0.4490520000000  0.5115460000000  0.5161190000000 1.0
C      1  0.5916510000000  0.4872950000000  0.5401640000000 1.0
C      1  0.5532840000000  0.4207930000000  0.5406520000000 1.0
C      1  0.5087840000000  0.4657810000000  0.4156760000000 1.0
C      1  0.5315370000000  0.5139090000000  0.5778940000000 1.0
C      1  0.5428460000000  0.5195590000000  0.5199660000000 1.0
C      1  0.5125110000000  0.4574640000000  0.5543090000000 1.0
C      1  0.4426940000000  0.5585850000000  0.4581630000000 1.0
C      1  0.4199300000000  0.5263890000000  0.4651850000000 1.0
C      1  0.4297480000000  0.4818790000000  0.5497530000000 1.0
C      1  0.5238940000000  0.5682810000000  0.5587460000000 1.0
C      1  0.5113450000000  0.4240550000000  0.4719220000000 1.0
C      1  0.5627490000000  0.5649430000000  0.4936190000000 1.0
C      1  0.4899150000000  0.4840800000000  0.4571850000000 1.0
C      1  0.4711640000000  0.5514240000000  0.4203590000000 1.0
C      1  0.5191140000000  0.4753340000000  0.5824790000000 1.0
C      1  0.4521230000000  0.5513710000000  0.5163670000000 1.0
C      1  0.4522050000000  0.5024220000000  0.5859390000000 1.0
C      1  0.5924850000000  0.4981570000000  0.4543460000000 1.0
C      1  0.4352360000000  0.4981140000000  0.4303860000000 1.0
C      1  0.4534760000000  0.5263500000000  0.4595780000000 1.0
C      1  0.5649690000000  0.4674150000000  0.5175360000000 1.0
C      1  0.5372590000000  0.4022620000000  0.4686750000000 1.0
C      1  0.4991710000000  0.5352010000000  0.5871170000000 1.0
C      1  0.5085940000000  0.5136340000000  0.4379210000000 1.0
C      1  0.4326110000000  0.4519560000000  0.4655430000000 1.0
C      1  0.5026200000000  0.4319670000000  0.5741760000000 1.0
C      1  0.5140310000000  0.5361040000000  0.5127370000000 1.0
C      1  0.5961560000000  0.5154190000000  0.4977050000000 1.0
C      1  0.4048620000000  0.5561300000000  0.4719960000000 1.0
C      1  0.5026300000000  0.5675450000000  0.5065530000000 1.0
C      1  0.4852690000000  0.4957240000000  0.4277840000000 1.0
C      1  0.4676990000000  0.5158020000000  0.4886130000000 1.0
C      1  0.5624510000000  0.5177900000000  0.5739890000000 1.0
C      1  0.4336530000000  0.5070740000000  0.5655010000000 1.0
C      1  0.4788570000000  0.4839580000000  0.5801660000000 1.0
C      1  0.4865880000000  0.4784230000000  0.5475090000000 1.0
C      1  0.5143130000000  0.5471700000000  0.4806400000000 1.0
C      1  0.4654430000000  0.4293560000000  0.5405840000000 1.0
C      1  0.4429980000000  0.5749610000000  0.4805980000000 1.0
C      1  0.4526990000000  0.4353050000000  0.4474340000000 1.0
C      1  0.4739770000000  0.4436760000000  0.5042850000000 1.0
C      1  0.5847340000000  0.4633710000000  0.5520350000000 1.0
C      1  0.4995670000000  0.5563530000000  0.4323200000000 1.0
C      1  0.5131630000000  0.4453470000000  0.4381950000000 1.0
C      1  0.5418690000000  0.4526950000000  0.5377660000000 1.0
C      1  0.5651460000000  0.5466710000000  0.5563200000000 1.0
C      1  0.4775870000000  0.4684540000000  0.4097660000000 1.0
C      1  0.4636530000000  0.4140940000000  0.4597170000000 1.0
C      1  0.5524780000000  0.4738510000000  0.4359100000000 1.0
C      1  0.5030990000000  0.5037710000000  0.5914940000000 1.0
C      1  0.4577730000000  0.5712180000000  0.4359370000000 1.0
C      1  0.4133000000000  0.4648210000000  0.5035120000000 1.0
C      1  0.5855700000000  0.5209660000000  0.4710190000000 1.0
C      1  0.4586590000000  0.4962910000000  0.4067880000000 1.0
C      1  0.4974530000000  0.4997760000000  0.4928000000000 1.0
C      1  0.5266740000000  0.5595320000000  0.4363230000000 1.0
C      1  0.5793550000000  0.4402460000000  0.5320710000000 1.0
C      1  0.4648370000000  0.6007140000000  0.4852120000000 1.0
C      1  0.4449220000000  0.4296230000000  0.5132280000000 1.0
C      1  0.4981370000000  0.5931040000000  0.4845720000000 1.0
C      1  0.4034420000000  0.5036480000000  0.4536990000000 1.0
C      1  0.5880640000000  0.5358900000000  0.5336900000000 1.0
C      1  0.4186700000000  0.4739920000000  0.4470790000000 1.0
C      1  0.4583820000000  0.4641340000000  0.4374920000000 1.0
C      1  0.4939480000000  0.4520640000000  0.4635760000000 1.0
C      1  0.4998080000000  0.4065760000000  0.5090470000000 1.0
C      1  0.4248790000000  0.5330300000000  0.5186650000000 1.0
C      1  0.5356550000000  0.5321670000000  0.5488550000000 1.0
C      1  0.4972490000000  0.5854430000000  0.5349600000000 1.0
C      1  0.4936840000000  0.5641380000000  0.5852210000000 1.0
C      1  0.4807650000000  0.5466480000000  0.4588850000000 1.0
C      1  0.5366530000000  0.5864650000000  0.4903900000000 1.0
C      1  0.5636340000000  0.4660680000000  0.5716130000000 1.0
C      1  0.4825670000000  0.5720640000000  0.5606380000000 1.0
C      1  0.4817230000000  0.4169420000000  0.4847360000000 1.0
C      1  0.4749620000000  0.4314290000000  0.5731590000000 1.0
C      1  0.4096630000000  0.4829860000000  0.4784990000000 1.0
C      1  0.5624440000000  0.5554220000000  0.5238170000000 1.0
C      1  0.5586120000000  0.5392970000000  0.4730590000000 1.0
C      1  0.4840160000000  0.4022200000000  0.5319070000000 1.0
C      1  0.4704080000000  0.5245710000000  0.5395820000000 1.0
C      1  0.5465020000000  0.4842040000000  0.5486930000000 1.0
C      1  0.4352400000000  0.4832950000000  0.5189980000000 1.0
C      1  0.4326510000000  0.5650540000000  0.5406560000000 1.0
C      1  0.5258470000000  0.4274650000000  0.5024980000000 1.0
C      1  0.4570380000000  0.4927000000000  0.4559290000000 1.0
C      1  0.4958680000000  0.4403390000000  0.5300980000000 1.0
C      1  0.4569250000000  0.4619330000000  0.5453140000000 1.0
C      1  0.5811330000000  0.4706720000000  0.4622730000000 1.0
C      1  0.4772780000000  0.5805080000000  0.4608600000000 1.0
C      1  0.5415840000000  0.5107040000000  0.4395850000000 1.0
C      1  0.5410280000000  0.5396210000000  0.4234020000000 1.0
C      1  0.5676190000000  0.5097660000000  0.5411540000000 1.0
C      1  0.5285480000000  0.5955680000000  0.5419850000000 1.0
C      1  0.4575040000000  0.5244140000000  0.4258610000000 1.0
C      1  0.4333520000000  0.5326610000000  0.5516020000000 1.0
C      1  0.4693340000000  0.5706070000000  0.5003640000000 1.0
C      1  0.5413930000000  0.5145400000000  0.4863430000000 1.0
C      1  0.5360700000000  0.5635200000000  0.4650740000000 1.0
C      1  0.4636700000000  0.4595580000000  0.4771100000000 1.0
C      1  0.5509780000000  0.4281050000000  0.4689320000000 1.0
C      1  0.5711480000000  0.4905170000000  0.4944240000000 1.0
C      1  0.5570040000000  0.4296120000000  0.5080240000000 1.0
C      1  0.4348130000000  0.4581290000000  0.5718980000000 1.0
C      1  0.5214760000000  0.4840950000000  0.4632750000000 1.0
C      1  0.4865220000000  0.4752320000000  0.5136460000000 1.0
C      1  0.5212410000000  0.4878400000000  0.5299340000000 1.0
C      1  0.5545730000000  0.4918210000000  0.4647210000000 1.0
C      1  0.4426300000000  0.4848540000000  0.4857440000000 1.0
C      1  0.5008010000000  0.5220320000000  0.4672670000000 1.0
C      1  0.4991010000000  0.5095390000000  0.5419070000000 1.0
C      1  0.5277270000000  0.4847670000000  0.4966900000000 1.0
END
