TITL C-2847945-6269-137 0.00201047651728223 125000 -555.251021283064 0 0 102 (C1) n - 1
REM
REM in /home/bkarasulu/work/CARBON/AIRSS/Generating-Clusters/AIREBO/with-SteepDescent/Only-C1/SD-CG-opt/Try1-1.4A-POS3A/HFTN-CG
REM
REM
REM
REM
REM
REM ./C.cell (11c1c37f851c82e70ff6c80c92926a4b)
REM
REM compiler GCC version 9.2.1 20190827 (Red Hat 9.2.1-1)
REM options -cpp -mtune=generic -march=x86-64 -g -O0 -fpre-include=/usr/include/finclude/math-vector-fortran.h
REM seed 1300022868 -1902578365 -878562902 -697023992 -583032579 1834177739 1821771468 2136034188 512018930 -1453944455 83297161 -1645174481 1751227126 102849100 -551337328 -1477638771 1235468217 -1681955677 -1721533539 1711781432 -942869536 -1139253521 1325858140 -2120712689 -2099261545 1638815013 1495713979 -704361186 -646068674 1756243771 -521075726 -440895039 398303255
REM
CELL 1.54180   50.00000   50.00000   50.00000   90.00000   90.00000   90.00000
LATT -1
SFAC C  
C      1  0.4965180000000  0.4159870000000  0.4926030000000 1.0
C      1  0.5739640000000  0.5260750000000  0.5342180000000 1.0
C      1  0.5379750000000  0.4648930000000  0.5591970000000 1.0
C      1  0.4609140000000  0.5317920000000  0.4544860000000 1.0
C      1  0.4840740000000  0.4782070000000  0.5597130000000 1.0
C      1  0.4138790000000  0.4921120000000  0.4908540000000 1.0
C      1  0.5558700000000  0.5141510000000  0.5595030000000 1.0
C      1  0.5534600000000  0.5412120000000  0.4709110000000 1.0
C      1  0.5193590000000  0.5294660000000  0.5874890000000 1.0
C      1  0.4982540000000  0.5107170000000  0.4511430000000 1.0
C      1  0.4435430000000  0.4518000000000  0.5241760000000 1.0
C      1  0.5061000000000  0.5589500000000  0.4310950000000 1.0
C      1  0.5447450000000  0.5017670000000  0.4326750000000 1.0
C      1  0.4876850000000  0.4637510000000  0.4710360000000 1.0
C      1  0.4542410000000  0.4267700000000  0.5314920000000 1.0
C      1  0.5211940000000  0.4989250000000  0.4817120000000 1.0
C      1  0.4655710000000  0.4331910000000  0.5581520000000 1.0
C      1  0.5787310000000  0.5314940000000  0.4824620000000 1.0
C      1  0.5175350000000  0.4698190000000  0.4678840000000 1.0
C      1  0.4588160000000  0.5363130000000  0.5560360000000 1.0
C      1  0.5698710000000  0.4681770000000  0.5205180000000 1.0
C      1  0.4608970000000  0.4737550000000  0.5388970000000 1.0
C      1  0.5163840000000  0.5814840000000  0.4544190000000 1.0
C      1  0.4255760000000  0.5310170000000  0.5209370000000 1.0
C      1  0.5191440000000  0.5311840000000  0.4402330000000 1.0
C      1  0.5275450000000  0.5208100000000  0.4099230000000 1.0
C      1  0.4757170000000  0.4715250000000  0.4266810000000 1.0
C      1  0.4656640000000  0.5610680000000  0.5361670000000 1.0
C      1  0.4271940000000  0.5377060000000  0.4932110000000 1.0
C      1  0.5089600000000  0.5984240000000  0.5009570000000 1.0
C      1  0.4933600000000  0.5726090000000  0.5416900000000 1.0
C      1  0.5161740000000  0.4239120000000  0.5388270000000 1.0
C      1  0.4918310000000  0.5141150000000  0.4808810000000 1.0
C      1  0.5001650000000  0.5565470000000  0.5656620000000 1.0
C      1  0.5143720000000  0.5025860000000  0.5978310000000 1.0
C      1  0.4469360000000  0.5112130000000  0.5385020000000 1.0
C      1  0.5215690000000  0.5754830000000  0.5226640000000 1.0
C      1  0.5067940000000  0.4292980000000  0.4399920000000 1.0
C      1  0.4630810000000  0.5394970000000  0.5106990000000 1.0
C      1  0.4369680000000  0.4653640000000  0.4725500000000 1.0
C      1  0.4353000000000  0.4426640000000  0.4571140000000 1.0
C      1  0.5617350000000  0.4769240000000  0.4397490000000 1.0
C      1  0.4339720000000  0.5043750000000  0.4437660000000 1.0
C      1  0.4431830000000  0.5672440000000  0.5142540000000 1.0
C      1  0.5591420000000  0.5297230000000  0.5087820000000 1.0
C      1  0.4538240000000  0.4565140000000  0.5740530000000 1.0
C      1  0.4766360000000  0.5115250000000  0.5217170000000 1.0
C      1  0.4806780000000  0.4448900000000  0.4465480000000 1.0
C      1  0.4832430000000  0.4633980000000  0.5012530000000 1.0
C      1  0.5108290000000  0.4686760000000  0.5176910000000 1.0
C      1  0.5606310000000  0.5698960000000  0.5299270000000 1.0
C      1  0.4757680000000  0.5711190000000  0.4771330000000 1.0
C      1  0.4967430000000  0.5351660000000  0.4079990000000 1.0
C      1  0.4297540000000  0.5119240000000  0.4745060000000 1.0
C      1  0.5280080000000  0.4552980000000  0.4121300000000 1.0
C      1  0.5871670000000  0.5040850000000  0.4746560000000 1.0
C      1  0.5054110000000  0.4716170000000  0.4198590000000 1.0
C      1  0.5232590000000  0.4158180000000  0.4796380000000 1.0
C      1  0.5309460000000  0.4954860000000  0.5703030000000 1.0
C      1  0.4360480000000  0.5495460000000  0.4533770000000 1.0
C      1  0.5587060000000  0.4995500000000  0.4953810000000 1.0
C      1  0.4615590000000  0.4834420000000  0.4704790000000 1.0
C      1  0.4994830000000  0.5041720000000  0.5607590000000 1.0
C      1  0.4982930000000  0.5934260000000  0.4761550000000 1.0
C      1  0.5737580000000  0.4788760000000  0.4649870000000 1.0
C      1  0.5511920000000  0.4344710000000  0.4864650000000 1.0
C      1  0.4612970000000  0.5185760000000  0.4853420000000 1.0
C      1  0.4588040000000  0.4273550000000  0.4567510000000 1.0
C      1  0.4841870000000  0.5311360000000  0.5686760000000 1.0
C      1  0.5076060000000  0.4615200000000  0.5488100000000 1.0
C      1  0.5323560000000  0.4412510000000  0.4589590000000 1.0
C      1  0.4936440000000  0.4331280000000  0.5575460000000 1.0
C      1  0.4760140000000  0.4730990000000  0.5900100000000 1.0
C      1  0.4258980000000  0.4619620000000  0.5010090000000 1.0
C      1  0.5578400000000  0.4396700000000  0.5194890000000 1.0
C      1  0.5333080000000  0.5455940000000  0.5114670000000 1.0
C      1  0.5363180000000  0.5662290000000  0.5518700000000 1.0
C      1  0.4660530000000  0.4119050000000  0.4785200000000 1.0
C      1  0.4675970000000  0.4131690000000  0.5108010000000 1.0
C      1  0.4612960000000  0.4841170000000  0.5086950000000 1.0
C      1  0.4677630000000  0.5009130000000  0.4419580000000 1.0
C      1  0.4994290000000  0.4368830000000  0.5153540000000 1.0
C      1  0.5628560000000  0.5472880000000  0.5557860000000 1.0
C      1  0.5487950000000  0.5814180000000  0.5029950000000 1.0
C      1  0.5555710000000  0.4664430000000  0.4903370000000 1.0
C      1  0.4470120000000  0.5631240000000  0.4823690000000 1.0
C      1  0.5373210000000  0.5174600000000  0.4619350000000 1.0
C      1  0.4946020000000  0.4850590000000  0.6070970000000 1.0
C      1  0.5479880000000  0.4530570000000  0.4334830000000 1.0
C      1  0.4748280000000  0.5189900000000  0.4140190000000 1.0
C      1  0.5407220000000  0.4369210000000  0.5414960000000 1.0
C      1  0.5092720000000  0.5157880000000  0.5303770000000 1.0
C      1  0.4454750000000  0.4879930000000  0.5633420000000 1.0
C      1  0.4869620000000  0.5493670000000  0.4552860000000 1.0
C      1  0.5531880000000  0.4875230000000  0.5385180000000 1.0
C      1  0.5228330000000  0.5358870000000  0.5542800000000 1.0
C      1  0.5056710000000  0.5547190000000  0.4819140000000 1.0
C      1  0.5078920000000  0.5311030000000  0.5013230000000 1.0
C      1  0.4294720000000  0.4889320000000  0.5196710000000 1.0
C      1  0.5306860000000  0.4949360000000  0.5141280000000 1.0
C      1  0.5363610000000  0.5658870000000  0.4771140000000 1.0
C      1  0.5171810000000  0.4886050000000  0.4425140000000 1.0
END
