TITL C-2848495-5024-79 -0.000654981224795475 125000 -602.115322103548 0 0 109 (C1) n - 1
REM
REM in /home/bkarasulu/work/CARBON/AIRSS/Generating-Clusters/AIREBO/with-SteepDescent/Only-C1/SD-CG-opt/Try1-1.4A-POS3A/HFTN-CG
REM
REM
REM
REM
REM
REM ./C.cell (11c1c37f851c82e70ff6c80c92926a4b)
REM
REM compiler GCC version 9.2.1 20190827 (Red Hat 9.2.1-1)
REM options -cpp -mtune=generic -march=x86-64 -g -O0 -fpre-include=/usr/include/finclude/math-vector-fortran.h
REM seed -2023385243 1783638720 1759323494 927426959 1113749619 33248152 -220173450 -222755096 76238356 -173358988 1965851657 -520396514 1174376699 -641882661 733425520 2126921828 1380645788 -973740030 1042763518 -2107021513 511487730 -1399553563 634840891 -1553518648 -979333273 1688886488 1828467641 -1001938951 -1752057333 -1171207227 -1730831359 1630340393 593321006
REM
CELL 1.54180   50.00000   50.00000   50.00000   90.00000   90.00000   90.00000
LATT -1
SFAC C  
C      1  0.5483060000000  0.4279830000000  0.5050160000000 1.0
C      1  0.4677790000000  0.4635740000000  0.5424950000000 1.0
C      1  0.5546120000000  0.4760810000000  0.5360860000000 1.0
C      1  0.5860540000000  0.5045620000000  0.5064840000000 1.0
C      1  0.4372800000000  0.5800420000000  0.5484820000000 1.0
C      1  0.5105680000000  0.4984570000000  0.4656870000000 1.0
C      1  0.4930580000000  0.4653760000000  0.4848710000000 1.0
C      1  0.5111000000000  0.5079540000000  0.5495270000000 1.0
C      1  0.4753080000000  0.4472590000000  0.5707800000000 1.0
C      1  0.4339430000000  0.4603360000000  0.4795320000000 1.0
C      1  0.5485460000000  0.5801470000000  0.4823520000000 1.0
C      1  0.5590720000000  0.5268000000000  0.5432400000000 1.0
C      1  0.5389540000000  0.4298700000000  0.4793870000000 1.0
C      1  0.5362590000000  0.5519560000000  0.4513330000000 1.0
C      1  0.4528500000000  0.4879180000000  0.5529690000000 1.0
C      1  0.4677680000000  0.5617590000000  0.5134060000000 1.0
C      1  0.4757510000000  0.5599850000000  0.4812260000000 1.0
C      1  0.5348310000000  0.5122300000000  0.4538380000000 1.0
C      1  0.4287570000000  0.4620140000000  0.5331700000000 1.0
C      1  0.4891430000000  0.5335160000000  0.4763320000000 1.0
C      1  0.4430860000000  0.5565720000000  0.4826170000000 1.0
C      1  0.5721950000000  0.4405960000000  0.5122850000000 1.0
C      1  0.5651070000000  0.5001650000000  0.4257320000000 1.0
C      1  0.4142720000000  0.5055230000000  0.5089900000000 1.0
C      1  0.5732310000000  0.4561560000000  0.5379090000000 1.0
C      1  0.5155630000000  0.4523520000000  0.5068260000000 1.0
C      1  0.4621760000000  0.4790390000000  0.4803800000000 1.0
C      1  0.4993490000000  0.4532140000000  0.5843240000000 1.0
C      1  0.5265960000000  0.5309640000000  0.5325930000000 1.0
C      1  0.4910560000000  0.4777600000000  0.4532440000000 1.0
C      1  0.4831940000000  0.4753590000000  0.5158610000000 1.0
C      1  0.4464990000000  0.5830810000000  0.5222280000000 1.0
C      1  0.4250410000000  0.5327870000000  0.5507410000000 1.0
C      1  0.4320490000000  0.5815100000000  0.4976890000000 1.0
C      1  0.4900670000000  0.4301290000000  0.5032780000000 1.0
C      1  0.4603530000000  0.4203180000000  0.5444830000000 1.0
C      1  0.4067120000000  0.4738520000000  0.4743570000000 1.0
C      1  0.4200000000000  0.5165650000000  0.4635690000000 1.0
C      1  0.5744350000000  0.4728530000000  0.5016440000000 1.0
C      1  0.5466230000000  0.5652870000000  0.5285880000000 1.0
C      1  0.5129620000000  0.4063490000000  0.4980880000000 1.0
C      1  0.4722540000000  0.5137070000000  0.5422330000000 1.0
C      1  0.5129030000000  0.5183560000000  0.5933850000000 1.0
C      1  0.4655700000000  0.4260840000000  0.4862570000000 1.0
C      1  0.5199960000000  0.4696040000000  0.5548670000000 1.0
C      1  0.5254270000000  0.5027430000000  0.4225160000000 1.0
C      1  0.4432020000000  0.5390100000000  0.4580060000000 1.0
C      1  0.5127410000000  0.4277030000000  0.4402180000000 1.0
C      1  0.5497420000000  0.5080790000000  0.3998400000000 1.0
C      1  0.4934410000000  0.5821750000000  0.4688210000000 1.0
C      1  0.4846100000000  0.4352920000000  0.5339580000000 1.0
C      1  0.5442870000000  0.5010530000000  0.5521750000000 1.0
C      1  0.4514620000000  0.5062660000000  0.4629470000000 1.0
C      1  0.4223770000000  0.5305820000000  0.5226510000000 1.0
C      1  0.4954190000000  0.5540800000000  0.5233890000000 1.0
C      1  0.5109180000000  0.5319630000000  0.5024200000000 1.0
C      1  0.4057980000000  0.5013960000000  0.4818500000000 1.0
C      1  0.5590010000000  0.5303410000000  0.4382220000000 1.0
C      1  0.5304620000000  0.5515310000000  0.4826420000000 1.0
C      1  0.4848640000000  0.5042560000000  0.5699670000000 1.0
C      1  0.4279320000000  0.5082790000000  0.5629760000000 1.0
C      1  0.5767200000000  0.4995520000000  0.4565430000000 1.0
C      1  0.5496680000000  0.4726300000000  0.4683600000000 1.0
C      1  0.5144520000000  0.5411290000000  0.5711100000000 1.0
C      1  0.4845600000000  0.5042110000000  0.4850250000000 1.0
C      1  0.5136470000000  0.4744330000000  0.4196360000000 1.0
C      1  0.4430570000000  0.4132660000000  0.5015130000000 1.0
C      1  0.4654430000000  0.5041080000000  0.5119920000000 1.0
C      1  0.4689900000000  0.4561810000000  0.4405910000000 1.0
C      1  0.5107260000000  0.4395220000000  0.5525850000000 1.0
C      1  0.5161270000000  0.5885890000000  0.4836160000000 1.0
C      1  0.4212380000000  0.4774110000000  0.5599520000000 1.0
C      1  0.4855050000000  0.5218350000000  0.4453820000000 1.0
C      1  0.5276810000000  0.5023890000000  0.5031160000000 1.0
C      1  0.5214160000000  0.4567520000000  0.4681490000000 1.0
C      1  0.5970690000000  0.4876090000000  0.4810030000000 1.0
C      1  0.5834420000000  0.5210470000000  0.5310360000000 1.0
C      1  0.5336170000000  0.4548040000000  0.4365160000000 1.0
C      1  0.5227930000000  0.5690970000000  0.5107310000000 1.0
C      1  0.5701280000000  0.5308990000000  0.4942200000000 1.0
C      1  0.4634580000000  0.5537050000000  0.4364950000000 1.0
C      1  0.5088460000000  0.4858230000000  0.5826230000000 1.0
C      1  0.4893420000000  0.5671040000000  0.4428960000000 1.0
C      1  0.5535130000000  0.5039590000000  0.4810260000000 1.0
C      1  0.4561930000000  0.4428930000000  0.4644360000000 1.0
C      1  0.5409000000000  0.4728740000000  0.5072640000000 1.0
C      1  0.4360350000000  0.4874420000000  0.5156500000000 1.0
C      1  0.4334150000000  0.4451410000000  0.5047660000000 1.0
C      1  0.4342360000000  0.4284370000000  0.5337630000000 1.0
C      1  0.4492170000000  0.5338770000000  0.5071910000000 1.0
C      1  0.5227570000000  0.4248540000000  0.5254880000000 1.0
C      1  0.4809820000000  0.5294190000000  0.5893400000000 1.0
C      1  0.5693570000000  0.5585540000000  0.4767020000000 1.0
C      1  0.5691190000000  0.5553190000000  0.5162880000000 1.0
C      1  0.5461620000000  0.4756530000000  0.5747000000000 1.0
C      1  0.4637660000000  0.4892240000000  0.4383160000000 1.0
C      1  0.4603790000000  0.5211510000000  0.4271230000000 1.0
C      1  0.5136100000000  0.5533440000000  0.4346310000000 1.0
C      1  0.5397920000000  0.5514120000000  0.5563480000000 1.0
C      1  0.5073770000000  0.5267220000000  0.4286200000000 1.0
C      1  0.4398130000000  0.5550350000000  0.5617160000000 1.0
C      1  0.5821020000000  0.4650000000000  0.4615720000000 1.0
C      1  0.4893700000000  0.5413610000000  0.5521510000000 1.0
C      1  0.5761080000000  0.5538120000000  0.4506900000000 1.0
C      1  0.5095600000000  0.4863180000000  0.5270760000000 1.0
C      1  0.5132860000000  0.4177060000000  0.4664630000000 1.0
C      1  0.5615020000000  0.4695130000000  0.4353400000000 1.0
C      1  0.4958140000000  0.4488400000000  0.4262160000000 1.0
C      1  0.4647960000000  0.5492930000000  0.5730510000000 1.0
END
