TITL C-2848498-1409-209 0.00084040052292856 125000 -548.110305303805 0 0 100 (C1) n - 1
REM
REM in /home/bkarasulu/work/CARBON/AIRSS/Generating-Clusters/AIREBO/with-SteepDescent/Only-C1/SD-CG-opt/Try1-1.4A-POS3A/HFTN-CG
REM
REM
REM
REM
REM
REM ./C.cell (11c1c37f851c82e70ff6c80c92926a4b)
REM
REM compiler GCC version 9.2.1 20190827 (Red Hat 9.2.1-1)
REM options -cpp -mtune=generic -march=x86-64 -g -O0 -fpre-include=/usr/include/finclude/math-vector-fortran.h
REM seed 473779561 -1730113581 1760808038 -1974946483 260052141 -1115780234 -22889615 -720696519 357001289 1398212109 139481211 -1766356339 -61855593 -1824464223 765750101 -547880933 1308197882 -385952290 1606022903 -2006726403 1132983311 2038231511 -820514776 -370420697 1885446641 -936593984 -920313965 1455751703 -1083578079 -1625693404 240420547 -159090016 -1386278800
REM
CELL 1.54180   50.00000   50.00000   50.00000   90.00000   90.00000   90.00000
LATT -1
SFAC C  
C      1  0.5383760000000  0.4774220000000  0.4870210000000 1.0
C      1  0.4874320000000  0.5156160000000  0.5172680000000 1.0
C      1  0.5098520000000  0.4995640000000  0.4633500000000 1.0
C      1  0.4224090000000  0.5555130000000  0.4711860000000 1.0
C      1  0.4689390000000  0.4534760000000  0.4304410000000 1.0
C      1  0.5042620000000  0.5623030000000  0.4365030000000 1.0
C      1  0.4448080000000  0.5262720000000  0.5488770000000 1.0
C      1  0.4670630000000  0.5347640000000  0.4346210000000 1.0
C      1  0.5530770000000  0.5717930000000  0.5298270000000 1.0
C      1  0.4742700000000  0.4539150000000  0.5769700000000 1.0
C      1  0.5149630000000  0.5611110000000  0.5344550000000 1.0
C      1  0.5472070000000  0.4557090000000  0.5102010000000 1.0
C      1  0.4834640000000  0.4077470000000  0.5188700000000 1.0
C      1  0.5075450000000  0.5371500000000  0.4777020000000 1.0
C      1  0.5816440000000  0.5058810000000  0.5335310000000 1.0
C      1  0.4455560000000  0.5493830000000  0.4281420000000 1.0
C      1  0.5289260000000  0.5637250000000  0.4517480000000 1.0
C      1  0.4967580000000  0.5310760000000  0.4252550000000 1.0
C      1  0.4747170000000  0.5724820000000  0.5059220000000 1.0
C      1  0.4766670000000  0.4820230000000  0.5800280000000 1.0
C      1  0.4924340000000  0.4428440000000  0.5532260000000 1.0
C      1  0.5680820000000  0.4308740000000  0.5164110000000 1.0
C      1  0.5037930000000  0.5584320000000  0.5027460000000 1.0
C      1  0.4397880000000  0.4296190000000  0.5128380000000 1.0
C      1  0.5703210000000  0.5649530000000  0.5084390000000 1.0
C      1  0.5281610000000  0.5865790000000  0.5161870000000 1.0
C      1  0.4133210000000  0.4764510000000  0.4941870000000 1.0
C      1  0.4570120000000  0.4882460000000  0.5338680000000 1.0
C      1  0.5266920000000  0.4208530000000  0.4697350000000 1.0
C      1  0.5239830000000  0.4511070000000  0.5502150000000 1.0
C      1  0.5155230000000  0.5262580000000  0.4492230000000 1.0
C      1  0.4750690000000  0.4278640000000  0.4752570000000 1.0
C      1  0.4863210000000  0.5294460000000  0.5830680000000 1.0
C      1  0.5227320000000  0.4698090000000  0.4291590000000 1.0
C      1  0.5525900000000  0.4738890000000  0.5453780000000 1.0
C      1  0.4493240000000  0.4404720000000  0.5760360000000 1.0
C      1  0.4439980000000  0.4617200000000  0.4742290000000 1.0
C      1  0.5853140000000  0.4739000000000  0.4936190000000 1.0
C      1  0.4661800000000  0.5422620000000  0.5191890000000 1.0
C      1  0.5552900000000  0.4326640000000  0.4640000000000 1.0
C      1  0.5690010000000  0.5339690000000  0.5334410000000 1.0
C      1  0.5279770000000  0.5736080000000  0.4842830000000 1.0
C      1  0.5462430000000  0.5342620000000  0.4552020000000 1.0
C      1  0.4911500000000  0.5011110000000  0.4115090000000 1.0
C      1  0.5102060000000  0.4626040000000  0.4968010000000 1.0
C      1  0.4996680000000  0.4546400000000  0.4436080000000 1.0
C      1  0.4562680000000  0.4724350000000  0.5035450000000 1.0
C      1  0.4823110000000  0.4741200000000  0.4852460000000 1.0
C      1  0.5448640000000  0.5052350000000  0.5000600000000 1.0
C      1  0.5566440000000  0.5560240000000  0.4792040000000 1.0
C      1  0.4538840000000  0.4879240000000  0.4458600000000 1.0
C      1  0.5041050000000  0.4400470000000  0.4720760000000 1.0
C      1  0.5651000000000  0.4841570000000  0.5159430000000 1.0
C      1  0.4638980000000  0.5164310000000  0.4614590000000 1.0
C      1  0.4252870000000  0.4471620000000  0.4969410000000 1.0
C      1  0.5002820000000  0.5449120000000  0.5605170000000 1.0
C      1  0.5483760000000  0.4192710000000  0.4940770000000 1.0
C      1  0.5028020000000  0.4229420000000  0.5309160000000 1.0
C      1  0.5363590000000  0.5360080000000  0.5240990000000 1.0
C      1  0.4693070000000  0.4838620000000  0.4177560000000 1.0
C      1  0.4825320000000  0.5707520000000  0.5557900000000 1.0
C      1  0.4387320000000  0.5221510000000  0.5183370000000 1.0
C      1  0.5381750000000  0.4827920000000  0.4547940000000 1.0
C      1  0.4582640000000  0.5267830000000  0.5785200000000 1.0
C      1  0.4742090000000  0.5738570000000  0.4722200000000 1.0
C      1  0.5231980000000  0.4845670000000  0.5459120000000 1.0
C      1  0.5486110000000  0.4345220000000  0.5440180000000 1.0
C      1  0.4589980000000  0.4433580000000  0.4572920000000 1.0
C      1  0.4968830000000  0.5020820000000  0.5859520000000 1.0
C      1  0.5398180000000  0.5346380000000  0.5728510000000 1.0
C      1  0.5114590000000  0.5219860000000  0.5381940000000 1.0
C      1  0.5217560000000  0.4354940000000  0.5134600000000 1.0
C      1  0.5925600000000  0.4481790000000  0.5025880000000 1.0
C      1  0.5937830000000  0.5507100000000  0.5172670000000 1.0
C      1  0.4833910000000  0.5784890000000  0.4472990000000 1.0
C      1  0.4959930000000  0.5936900000000  0.5197800000000 1.0
C      1  0.5358390000000  0.5333790000000  0.4937200000000 1.0
C      1  0.4549950000000  0.4975020000000  0.5640000000000 1.0
C      1  0.5151790000000  0.4859330000000  0.4084410000000 1.0
C      1  0.5759430000000  0.5729640000000  0.4598710000000 1.0
C      1  0.5203320000000  0.5075440000000  0.5669160000000 1.0
C      1  0.4298320000000  0.5168080000000  0.4653500000000 1.0
C      1  0.4325680000000  0.4656320000000  0.5347430000000 1.0
C      1  0.4250190000000  0.4859580000000  0.4637840000000 1.0
C      1  0.4342060000000  0.4333380000000  0.5462030000000 1.0
C      1  0.4740750000000  0.5430100000000  0.4797070000000 1.0
C      1  0.4639470000000  0.4181550000000  0.5007810000000 1.0
C      1  0.5622380000000  0.5073720000000  0.4553020000000 1.0
C      1  0.5539020000000  0.5516430000000  0.5561310000000 1.0
C      1  0.5609140000000  0.4575090000000  0.4549780000000 1.0
C      1  0.5059170000000  0.4868610000000  0.5202770000000 1.0
C      1  0.5759320000000  0.4806770000000  0.4674870000000 1.0
C      1  0.4620850000000  0.4493400000000  0.5393190000000 1.0
C      1  0.4614600000000  0.5656140000000  0.5424700000000 1.0
C      1  0.4842810000000  0.4808680000000  0.4546570000000 1.0
C      1  0.4847620000000  0.5053500000000  0.4859360000000 1.0
C      1  0.4823860000000  0.4689890000000  0.5247500000000 1.0
C      1  0.4244060000000  0.5570620000000  0.4438780000000 1.0
C      1  0.4218210000000  0.4926420000000  0.5170480000000 1.0
C      1  0.4420070000000  0.5359100000000  0.4885080000000 1.0
END
