TITL C-2848499-1157-123 0.00472750600129404 125000 -1061.66089784568 0 0 195 (C1) n - 1
REM
REM in /home/bkarasulu/work/CARBON/AIRSS/Generating-Clusters/AIREBO/with-SteepDescent/Only-C1/SD-CG-opt/Try1-1.4A-POS3A/HFTN-CG
REM
REM
REM
REM
REM
REM ./C.cell (11c1c37f851c82e70ff6c80c92926a4b)
REM
REM compiler GCC version 9.2.1 20190827 (Red Hat 9.2.1-1)
REM options -cpp -mtune=generic -march=x86-64 -g -O0 -fpre-include=/usr/include/finclude/math-vector-fortran.h
REM seed 1060267314 163772325 1544060576 -477351155 188723687 -1828328615 1081881321 -1590253227 -512434072 -2092097623 1668673192 -136265742 -137160166 1331454696 2122147430 -2104817309 -283510655 83230296 -1620372043 481796257 -1916701764 -1192241302 -1152608962 -2071706685 259824261 1972445809 1406642495 1545953265 -1410614013 1311037680 1127073083 -1476645480 745650545
REM
CELL 1.54180   50.00000   50.00000   50.00000   90.00000   90.00000   90.00000
LATT -1
SFAC C  
C      1  0.4482740000000  0.4540810000000  0.5178850000000 1.0
C      1  0.4965710000000  0.3987290000000  0.4606410000000 1.0
C      1  0.5530830000000  0.4394000000000  0.5434040000000 1.0
C      1  0.5406060000000  0.5020870000000  0.4439040000000 1.0
C      1  0.4869870000000  0.4405730000000  0.4017440000000 1.0
C      1  0.5420530000000  0.6280430000000  0.4887840000000 1.0
C      1  0.5669180000000  0.5765660000000  0.5468650000000 1.0
C      1  0.5797790000000  0.3624830000000  0.4524940000000 1.0
C      1  0.4440620000000  0.4823640000000  0.4602830000000 1.0
C      1  0.5337140000000  0.5134460000000  0.3899490000000 1.0
C      1  0.5112620000000  0.4277910000000  0.4073320000000 1.0
C      1  0.4535510000000  0.5929190000000  0.4683290000000 1.0
C      1  0.5412810000000  0.4405680000000  0.4176850000000 1.0
C      1  0.5855470000000  0.4700750000000  0.4927900000000 1.0
C      1  0.5321430000000  0.4530790000000  0.6057160000000 1.0
C      1  0.5223820000000  0.4891780000000  0.4822610000000 1.0
C      1  0.4599860000000  0.4324330000000  0.5871110000000 1.0
C      1  0.5087080000000  0.4979040000000  0.3874680000000 1.0
C      1  0.3919450000000  0.5070860000000  0.4680000000000 1.0
C      1  0.5655170000000  0.4571040000000  0.5170350000000 1.0
C      1  0.5695400000000  0.5450360000000  0.4424690000000 1.0
C      1  0.4467720000000  0.4746660000000  0.5651000000000 1.0
C      1  0.4242930000000  0.5771340000000  0.5423140000000 1.0
C      1  0.4771990000000  0.6286730000000  0.4888130000000 1.0
C      1  0.4766370000000  0.5462060000000  0.4586610000000 1.0
C      1  0.5653780000000  0.4154900000000  0.4697440000000 1.0
C      1  0.4591440000000  0.3814000000000  0.4960340000000 1.0
C      1  0.4792470000000  0.5087100000000  0.5264980000000 1.0
C      1  0.5425720000000  0.5436990000000  0.4717760000000 1.0
C      1  0.4211360000000  0.5691660000000  0.5148570000000 1.0
C      1  0.5620330000000  0.5223670000000  0.5549320000000 1.0
C      1  0.4475950000000  0.4074660000000  0.5404670000000 1.0
C      1  0.5363900000000  0.5418380000000  0.4395390000000 1.0
C      1  0.6233270000000  0.5056190000000  0.5451780000000 1.0
C      1  0.4172310000000  0.4747940000000  0.4294440000000 1.0
C      1  0.5932510000000  0.5755090000000  0.4731130000000 1.0
C      1  0.4286740000000  0.3908550000000  0.4910370000000 1.0
C      1  0.5226790000000  0.5900730000000  0.5688970000000 1.0
C      1  0.4089840000000  0.5044010000000  0.5666220000000 1.0
C      1  0.4945450000000  0.4707670000000  0.4757280000000 1.0
C      1  0.5859930000000  0.5662470000000  0.5206790000000 1.0
C      1  0.5561760000000  0.4404530000000  0.4889010000000 1.0
C      1  0.5958170000000  0.4638080000000  0.5309330000000 1.0
C      1  0.5085750000000  0.4455630000000  0.5952070000000 1.0
C      1  0.5736070000000  0.5094810000000  0.5256690000000 1.0
C      1  0.4450320000000  0.5614610000000  0.4777840000000 1.0
C      1  0.5505920000000  0.5255100000000  0.5064340000000 1.0
C      1  0.5771640000000  0.4770750000000  0.4055570000000 1.0
C      1  0.4726750000000  0.3947280000000  0.5536450000000 1.0
C      1  0.5005290000000  0.4515840000000  0.5181240000000 1.0
C      1  0.4999830000000  0.4889370000000  0.4339820000000 1.0
C      1  0.4095810000000  0.5082460000000  0.5269630000000 1.0
C      1  0.3867240000000  0.4575380000000  0.4921280000000 1.0
C      1  0.5171360000000  0.4521850000000  0.4603290000000 1.0
C      1  0.4551830000000  0.5248370000000  0.5118500000000 1.0
C      1  0.4316050000000  0.4519790000000  0.4130110000000 1.0
C      1  0.5617190000000  0.4864140000000  0.4597920000000 1.0
C      1  0.4566170000000  0.4370800000000  0.4121550000000 1.0
C      1  0.5558870000000  0.5113730000000  0.5928480000000 1.0
C      1  0.5881780000000  0.4173300000000  0.4949270000000 1.0
C      1  0.5521350000000  0.4704910000000  0.5858240000000 1.0
C      1  0.5170290000000  0.4575620000000  0.5440530000000 1.0
C      1  0.4134870000000  0.4490270000000  0.5368110000000 1.0
C      1  0.4729060000000  0.5316240000000  0.6153090000000 1.0
C      1  0.4017260000000  0.4829810000000  0.4528200000000 1.0
C      1  0.5519250000000  0.5855600000000  0.4417260000000 1.0
C      1  0.4041760000000  0.5459040000000  0.4293300000000 1.0
C      1  0.5143340000000  0.6021260000000  0.5434560000000 1.0
C      1  0.5830180000000  0.4783160000000  0.4383460000000 1.0
C      1  0.4550420000000  0.4215180000000  0.4647020000000 1.0
C      1  0.4985980000000  0.5777820000000  0.5864330000000 1.0
C      1  0.4349730000000  0.4818030000000  0.5113570000000 1.0
C      1  0.5367050000000  0.5001730000000  0.5597170000000 1.0
C      1  0.4918760000000  0.4696610000000  0.3962340000000 1.0
C      1  0.5816430000000  0.5030270000000  0.4956600000000 1.0
C      1  0.4676310000000  0.4612080000000  0.4673720000000 1.0
C      1  0.5688730000000  0.4499870000000  0.4243580000000 1.0
C      1  0.4817240000000  0.5513660000000  0.6000330000000 1.0
C      1  0.5327290000000  0.4155410000000  0.4588310000000 1.0
C      1  0.4683690000000  0.5137820000000  0.4647010000000 1.0
C      1  0.5363950000000  0.4732850000000  0.5088670000000 1.0
C      1  0.6124630000000  0.4747720000000  0.4497570000000 1.0
C      1  0.6116360000000  0.4921020000000  0.4949270000000 1.0
C      1  0.4159800000000  0.5551530000000  0.5612710000000 1.0
C      1  0.4701530000000  0.5238650000000  0.4053200000000 1.0
C      1  0.4560500000000  0.4925610000000  0.5925090000000 1.0
C      1  0.5286590000000  0.4199570000000  0.5373420000000 1.0
C      1  0.4380070000000  0.4448050000000  0.5757530000000 1.0
C      1  0.4033450000000  0.4796950000000  0.5059430000000 1.0
C      1  0.5372880000000  0.4875090000000  0.4200170000000 1.0
C      1  0.5189650000000  0.5505120000000  0.5862870000000 1.0
C      1  0.4271070000000  0.4310120000000  0.5540660000000 1.0
C      1  0.5968350000000  0.4322980000000  0.5186660000000 1.0
C      1  0.4756160000000  0.4044100000000  0.4829380000000 1.0
C      1  0.4428010000000  0.5272690000000  0.4492130000000 1.0
C      1  0.5600760000000  0.5164160000000  0.4757060000000 1.0
C      1  0.5301160000000  0.4399060000000  0.5106800000000 1.0
C      1  0.4596090000000  0.5680290000000  0.4150880000000 1.0
C      1  0.5779410000000  0.4970940000000  0.5712300000000 1.0
C      1  0.5136380000000  0.4280480000000  0.4840340000000 1.0
C      1  0.4833750000000  0.4358260000000  0.5663490000000 1.0
C      1  0.6029400000000  0.5706860000000  0.4992870000000 1.0
C      1  0.4303970000000  0.5937380000000  0.4932390000000 1.0
C      1  0.5841340000000  0.4733470000000  0.5931900000000 1.0
C      1  0.4903600000000  0.5064750000000  0.4096700000000 1.0
C      1  0.4303180000000  0.4176230000000  0.4811730000000 1.0
C      1  0.5328360000000  0.4838420000000  0.6106450000000 1.0
C      1  0.5320410000000  0.4092430000000  0.4254240000000 1.0
C      1  0.4960340000000  0.5807620000000  0.4320090000000 1.0
C      1  0.5032820000000  0.5907790000000  0.4613350000000 1.0
C      1  0.4796520000000  0.6082670000000  0.4711830000000 1.0
C      1  0.4202570000000  0.4400130000000  0.5047100000000 1.0
C      1  0.4929260000000  0.4815140000000  0.5079450000000 1.0
C      1  0.5413140000000  0.5718620000000  0.4907890000000 1.0
C      1  0.5750010000000  0.4241710000000  0.5591160000000 1.0
C      1  0.5039330000000  0.5371020000000  0.4469720000000 1.0
C      1  0.4345840000000  0.5098800000000  0.5784350000000 1.0
C      1  0.5125440000000  0.5080320000000  0.4557210000000 1.0
C      1  0.5075020000000  0.6145080000000  0.5194780000000 1.0
C      1  0.4602290000000  0.4252320000000  0.5185400000000 1.0
C      1  0.5957350000000  0.4928680000000  0.5436260000000 1.0
C      1  0.5056720000000  0.5539570000000  0.4174880000000 1.0
C      1  0.5369160000000  0.5661790000000  0.5193120000000 1.0
C      1  0.4159230000000  0.5255330000000  0.4096670000000 1.0
C      1  0.3982340000000  0.5357290000000  0.4595130000000 1.0
C      1  0.4781740000000  0.5501870000000  0.4038030000000 1.0
C      1  0.4029190000000  0.4803180000000  0.5452290000000 1.0
C      1  0.5006650000000  0.4138910000000  0.5559930000000 1.0
C      1  0.4996900000000  0.4637490000000  0.5686920000000 1.0
C      1  0.4948830000000  0.3752840000000  0.5483940000000 1.0
C      1  0.5466230000000  0.4609280000000  0.4685740000000 1.0
C      1  0.4471890000000  0.4864020000000  0.4286440000000 1.0
C      1  0.5025240000000  0.4249620000000  0.4461170000000 1.0
C      1  0.4479820000000  0.5926530000000  0.5489870000000 1.0
C      1  0.4614660000000  0.6022200000000  0.5261290000000 1.0
C      1  0.5181850000000  0.5188290000000  0.4986040000000 1.0
C      1  0.5365190000000  0.5956240000000  0.4669430000000 1.0
C      1  0.4677440000000  0.5869060000000  0.5752790000000 1.0
C      1  0.4382950000000  0.3856910000000  0.5207800000000 1.0
C      1  0.5761590000000  0.5718790000000  0.4511600000000 1.0
C      1  0.5734070000000  0.3859860000000  0.4601110000000 1.0
C      1  0.4886430000000  0.5160960000000  0.5564260000000 1.0
C      1  0.4228630000000  0.5353820000000  0.5112960000000 1.0
C      1  0.5042770000000  0.5462780000000  0.5574090000000 1.0
C      1  0.4554550000000  0.5200370000000  0.5561220000000 1.0
C      1  0.3875980000000  0.4306640000000  0.5030250000000 1.0
C      1  0.4727370000000  0.5542180000000  0.5673640000000 1.0
C      1  0.4448370000000  0.5157090000000  0.4186150000000 1.0
C      1  0.4030950000000  0.5309030000000  0.5523070000000 1.0
C      1  0.4766590000000  0.5050070000000  0.6066140000000 1.0
C      1  0.4852260000000  0.5646800000000  0.5199420000000 1.0
C      1  0.4666480000000  0.5453940000000  0.5363900000000 1.0
C      1  0.5148450000000  0.5632600000000  0.4750070000000 1.0
C      1  0.5213190000000  0.6066470000000  0.4953130000000 1.0
C      1  0.4877070000000  0.5083040000000  0.4876630000000 1.0
C      1  0.4668180000000  0.5731950000000  0.4464470000000 1.0
C      1  0.4055790000000  0.4613240000000  0.4705830000000 1.0
C      1  0.4385860000000  0.4970440000000  0.5407700000000 1.0
C      1  0.4584950000000  0.5787210000000  0.5051280000000 1.0
C      1  0.4648970000000  0.4524420000000  0.5473220000000 1.0
C      1  0.5979950000000  0.4554280000000  0.4672960000000 1.0
C      1  0.5508770000000  0.5859110000000  0.5676090000000 1.0
C      1  0.4360810000000  0.4571620000000  0.4799590000000 1.0
C      1  0.5418010000000  0.5745340000000  0.4176120000000 1.0
C      1  0.4737630000000  0.4787820000000  0.5359010000000 1.0
C      1  0.5450810000000  0.4699340000000  0.5525570000000 1.0
C      1  0.5813020000000  0.4380780000000  0.4516470000000 1.0
C      1  0.5217360000000  0.3884140000000  0.5472270000000 1.0
C      1  0.5677920000000  0.5464020000000  0.5780280000000 1.0
C      1  0.4249460000000  0.5268860000000  0.4784380000000 1.0
C      1  0.5560660000000  0.4944630000000  0.3977490000000 1.0
C      1  0.4463170000000  0.5021670000000  0.4878360000000 1.0
C      1  0.4369550000000  0.5536450000000  0.4285440000000 1.0
C      1  0.4687990000000  0.5435180000000  0.4905510000000 1.0
C      1  0.5060190000000  0.4949620000000  0.5706990000000 1.0
C      1  0.5245870000000  0.5244770000000  0.5410270000000 1.0
C      1  0.4214950000000  0.5600910000000  0.4567220000000 1.0
C      1  0.5500710000000  0.5556020000000  0.5935540000000 1.0
C      1  0.5062500000000  0.4993900000000  0.6016800000000 1.0
C      1  0.5121560000000  0.5710870000000  0.5354520000000 1.0
C      1  0.4803110000000  0.6212250000000  0.5159970000000 1.0
C      1  0.4872330000000  0.4255860000000  0.5045950000000 1.0
C      1  0.6296970000000  0.5712610000000  0.5034830000000 1.0
C      1  0.5963610000000  0.4170570000000  0.5433810000000 1.0
C      1  0.5000750000000  0.5475120000000  0.4960730000000 1.0
C      1  0.5349020000000  0.5434020000000  0.4055910000000 1.0
C      1  0.6362010000000  0.4870970000000  0.4479700000000 1.0
C      1  0.5187030000000  0.4965300000000  0.5242680000000 1.0
C      1  0.5192950000000  0.4622430000000  0.4279170000000 1.0
C      1  0.4411950000000  0.5636610000000  0.5758700000000 1.0
C      1  0.3924320000000  0.5073840000000  0.4975660000000 1.0
C      1  0.4747400000000  0.4700070000000  0.4257740000000 1.0
C      1  0.5601910000000  0.5467460000000  0.5311910000000 1.0
C      1  0.4723200000000  0.4402800000000  0.4421420000000 1.0
C      1  0.5300580000000  0.5213480000000  0.5975960000000 1.0
END
