TITL C-2847948-6138-119 -0.12352191573845 125000 -362.073444686571 0 0 66 (C1) n - 1
REM
REM in /home/bkarasulu/work/CARBON/AIRSS/Generating-Clusters/AIREBO/with-SteepDescent/Only-C1/SD-CG-opt/Try1-1.4A-POS3A/HFTN-CG
REM
REM
REM
REM
REM
REM ./C.cell (11c1c37f851c82e70ff6c80c92926a4b)
REM
REM compiler GCC version 9.2.1 20190827 (Red Hat 9.2.1-1)
REM options -cpp -mtune=generic -march=x86-64 -g -O0 -fpre-include=/usr/include/finclude/math-vector-fortran.h
REM seed 169448363 -1721375382 584572928 120293168 469260598 2130414537 922037955 1716666915 -201277960 -899851651 593924938 463030706 -1891784601 1940215355 -2069405293 288616431 1085104379 1436196357 1773687110 -962191877 2118440683 -1139834532 -772527869 2012361978 2118325519 1743964670 830678215 1293677342 -420597888 -18640577 176336895 -1791327294 -1038110071
REM
CELL 1.54180   50.00000   50.00000   50.00000   90.00000   90.00000   90.00000
LATT -1
SFAC C  
C      1  0.4320970000000  0.4779580000000  0.5191640000000 1.0
C      1  0.4997470000000  0.5122140000000  0.5293750000000 1.0
C      1  0.5344320000000  0.4814900000000  0.5874520000000 1.0
C      1  0.4296070000000  0.4310270000000  0.4217160000000 1.0
C      1  0.4898660000000  0.5335790000000  0.5048230000000 1.0
C      1  0.4512990000000  0.5454890000000  0.4742640000000 1.0
C      1  0.5328470000000  0.5292720000000  0.4520520000000 1.0
C      1  0.5219740000000  0.4658970000000  0.4336980000000 1.0
C      1  0.5157580000000  0.4927010000000  0.4239420000000 1.0
C      1  0.5340160000000  0.4776000000000  0.4843180000000 1.0
C      1  0.5565820000000  0.4874360000000  0.4605620000000 1.0
C      1  0.4480110000000  0.5601670000000  0.5047700000000 1.0
C      1  0.4362070000000  0.5335330000000  0.5224320000000 1.0
C      1  0.5441200000000  0.4737850000000  0.6333710000000 1.0
C      1  0.5275210000000  0.4635700000000  0.5342430000000 1.0
C      1  0.4635940000000  0.5438840000000  0.4494250000000 1.0
C      1  0.4582790000000  0.4777050000000  0.5590000000000 1.0
C      1  0.5301270000000  0.4723580000000  0.5630750000000 1.0
C      1  0.5062700000000  0.4739490000000  0.4694290000000 1.0
C      1  0.4741150000000  0.5340610000000  0.5349580000000 1.0
C      1  0.5533040000000  0.4314450000000  0.4993030000000 1.0
C      1  0.5034170000000  0.5217580000000  0.4783250000000 1.0
C      1  0.4496040000000  0.5022640000000  0.5684480000000 1.0
C      1  0.4990910000000  0.4505600000000  0.4495640000000 1.0
C      1  0.4904390000000  0.4953980000000  0.4695400000000 1.0
C      1  0.4994420000000  0.4538050000000  0.5243620000000 1.0
C      1  0.4591190000000  0.4933520000000  0.4941310000000 1.0
C      1  0.5342960000000  0.5174830000000  0.4839160000000 1.0
C      1  0.5112740000000  0.5180690000000  0.4335610000000 1.0
C      1  0.4971040000000  0.4168350000000  0.4534040000000 1.0
C      1  0.4895580000000  0.4299160000000  0.5271930000000 1.0
C      1  0.5472210000000  0.5575850000000  0.4884210000000 1.0
C      1  0.5622040000000  0.4061040000000  0.4977340000000 1.0
C      1  0.4496460000000  0.4443370000000  0.4338210000000 1.0
C      1  0.5494360000000  0.4444760000000  0.5239240000000 1.0
C      1  0.5462700000000  0.4465750000000  0.4777250000000 1.0
C      1  0.4519720000000  0.5596130000000  0.5385370000000 1.0
C      1  0.5425060000000  0.5462450000000  0.5143110000000 1.0
C      1  0.4609060000000  0.4896950000000  0.4624630000000 1.0
C      1  0.5012410000000  0.5647660000000  0.5122050000000 1.0
C      1  0.5169010000000  0.4878650000000  0.5129530000000 1.0
C      1  0.4489480000000  0.5234750000000  0.5523080000000 1.0
C      1  0.4507170000000  0.5285870000000  0.4298110000000 1.0
C      1  0.5363260000000  0.4904860000000  0.6136150000000 1.0
C      1  0.4838250000000  0.4787710000000  0.5124320000000 1.0
C      1  0.5254170000000  0.5737490000000  0.4785480000000 1.0
C      1  0.5843970000000  0.4899440000000  0.5093030000000 1.0
C      1  0.5271770000000  0.5721650000000  0.5531190000000 1.0
C      1  0.5372790000000  0.5147480000000  0.5173490000000 1.0
C      1  0.5600770000000  0.5429260000000  0.4674550000000 1.0
C      1  0.4573580000000  0.4727550000000  0.5312190000000 1.0
C      1  0.5300200000000  0.5169370000000  0.6191320000000 1.0
C      1  0.5610240000000  0.5130850000000  0.4546090000000 1.0
C      1  0.5575640000000  0.4970770000000  0.4992370000000 1.0
C      1  0.5235160000000  0.5617630000000  0.5287120000000 1.0
C      1  0.5456330000000  0.4617040000000  0.4495420000000 1.0
C      1  0.4489600000000  0.4710250000000  0.4379570000000 1.0
C      1  0.4945860000000  0.5409200000000  0.4526040000000 1.0
C      1  0.5265500000000  0.5424760000000  0.6238980000000 1.0
C      1  0.4770030000000  0.5694720000000  0.4930700000000 1.0
C      1  0.4988430000000  0.5659530000000  0.4723290000000 1.0
C      1  0.4315740000000  0.5062250000000  0.5093570000000 1.0
C      1  0.4112910000000  0.4611270000000  0.5174530000000 1.0
C      1  0.4466440000000  0.5019410000000  0.4350680000000 1.0
C      1  0.4719150000000  0.4320310000000  0.4428880000000 1.0
C      1  0.4619380000000  0.5248330000000  0.4930730000000 1.0
END
