TITL C-2848498-1409-284 0.00218177907069989 125000 -616.435389748254 0 0 116 (C1) n - 1
REM
REM in /home/bkarasulu/work/CARBON/AIRSS/Generating-Clusters/AIREBO/with-SteepDescent/Only-C1/SD-CG-opt/Try1-1.4A-POS3A/HFTN-CG
REM
REM
REM
REM
REM
REM ./C.cell (11c1c37f851c82e70ff6c80c92926a4b)
REM
REM compiler GCC version 9.2.1 20190827 (Red Hat 9.2.1-1)
REM options -cpp -mtune=generic -march=x86-64 -g -O0 -fpre-include=/usr/include/finclude/math-vector-fortran.h
REM seed -1271318911 1980279379 839323732 -1918422557 907121877 -1578587156 1010989169 1831725147 -1724514695 -1270823064 112946783 1784839102 1922363268 1747456955 131479832 1200840463 1037994527 -13610485 -738437182 1230670589 -1483898587 -2034767243 -1162869070 -1466273238 2023798809 1745066005 -1222147040 1070620207 -1034055899 21250438 -1878057877 912026763 -456180040
REM
CELL 1.54180   50.00000   50.00000   50.00000   90.00000   90.00000   90.00000
LATT -1
SFAC C  
C      1  0.4596110000000  0.5027870000000  0.5485840000000 1.0
C      1  0.4678160000000  0.5413500000000  0.5552910000000 1.0
C      1  0.5143890000000  0.4316900000000  0.5390100000000 1.0
C      1  0.5670400000000  0.4486600000000  0.5439400000000 1.0
C      1  0.5265750000000  0.4681310000000  0.5754220000000 1.0
C      1  0.4246680000000  0.5408990000000  0.4749350000000 1.0
C      1  0.4577600000000  0.4513570000000  0.4176000000000 1.0
C      1  0.4564630000000  0.5345590000000  0.5245320000000 1.0
C      1  0.4814180000000  0.5687990000000  0.4422720000000 1.0
C      1  0.4662950000000  0.5035490000000  0.4196860000000 1.0
C      1  0.4790270000000  0.4108850000000  0.5168340000000 1.0
C      1  0.4095190000000  0.5164590000000  0.4712670000000 1.0
C      1  0.5574590000000  0.4704150000000  0.5630150000000 1.0
C      1  0.4449280000000  0.4546740000000  0.5251390000000 1.0
C      1  0.5480250000000  0.5184770000000  0.4761860000000 1.0
C      1  0.5757850000000  0.4913820000000  0.4652480000000 1.0
C      1  0.5653430000000  0.5463850000000  0.4330470000000 1.0
C      1  0.5227600000000  0.4641980000000  0.5445150000000 1.0
C      1  0.5190450000000  0.5283470000000  0.4190140000000 1.0
C      1  0.4034020000000  0.5059960000000  0.5250590000000 1.0
C      1  0.4559560000000  0.5712920000000  0.4907570000000 1.0
C      1  0.4975710000000  0.4312990000000  0.4439030000000 1.0
C      1  0.4981720000000  0.5556690000000  0.4161750000000 1.0
C      1  0.5617140000000  0.4912800000000  0.5149500000000 1.0
C      1  0.4577000000000  0.5073690000000  0.4835240000000 1.0
C      1  0.5642120000000  0.5544950000000  0.5390920000000 1.0
C      1  0.5691010000000  0.5179880000000  0.4495040000000 1.0
C      1  0.4900560000000  0.5292470000000  0.5243980000000 1.0
C      1  0.4751380000000  0.4134700000000  0.5437400000000 1.0
C      1  0.5214700000000  0.5648120000000  0.4350560000000 1.0
C      1  0.5167810000000  0.4470690000000  0.4244520000000 1.0
C      1  0.4671250000000  0.5777800000000  0.4602270000000 1.0
C      1  0.4678280000000  0.4884060000000  0.5098690000000 1.0
C      1  0.4742830000000  0.4354170000000  0.4937330000000 1.0
C      1  0.5002610000000  0.4779280000000  0.4698120000000 1.0
C      1  0.4897970000000  0.5543660000000  0.5025460000000 1.0
C      1  0.5159370000000  0.5738850000000  0.5451690000000 1.0
C      1  0.5263190000000  0.4938470000000  0.4851150000000 1.0
C      1  0.4426710000000  0.5052540000000  0.5201010000000 1.0
C      1  0.5513180000000  0.5176850000000  0.4205200000000 1.0
C      1  0.4188090000000  0.4891670000000  0.5019060000000 1.0
C      1  0.5249550000000  0.5852630000000  0.5719970000000 1.0
C      1  0.5153140000000  0.4198440000000  0.4705690000000 1.0
C      1  0.4400500000000  0.4631920000000  0.4963870000000 1.0
C      1  0.5577820000000  0.5503510000000  0.4798910000000 1.0
C      1  0.5213400000000  0.5545600000000  0.4646420000000 1.0
C      1  0.5411100000000  0.5610060000000  0.5146530000000 1.0
C      1  0.4791040000000  0.5824380000000  0.5128770000000 1.0
C      1  0.5576790000000  0.4478000000000  0.4679570000000 1.0
C      1  0.5726910000000  0.5194330000000  0.5003060000000 1.0
C      1  0.4934200000000  0.4866090000000  0.5878670000000 1.0
C      1  0.4681850000000  0.5035570000000  0.5961070000000 1.0
C      1  0.5074250000000  0.5191290000000  0.4970500000000 1.0
C      1  0.5755240000000  0.4528250000000  0.4944990000000 1.0
C      1  0.5504870000000  0.5690310000000  0.4415800000000 1.0
C      1  0.5624020000000  0.4349340000000  0.4404080000000 1.0
C      1  0.5478690000000  0.4924560000000  0.5865430000000 1.0
C      1  0.5679680000000  0.5327190000000  0.5560460000000 1.0
C      1  0.4205100000000  0.5768710000000  0.5186730000000 1.0
C      1  0.4531890000000  0.4656360000000  0.4650950000000 1.0
C      1  0.5272790000000  0.5261660000000  0.4505680000000 1.0
C      1  0.4422750000000  0.5313150000000  0.4539470000000 1.0
C      1  0.4332120000000  0.5510770000000  0.5059530000000 1.0
C      1  0.5855850000000  0.4824420000000  0.4932980000000 1.0
C      1  0.5175300000000  0.5051720000000  0.5874480000000 1.0
C      1  0.5465470000000  0.4783100000000  0.4626130000000 1.0
C      1  0.5400890000000  0.4293150000000  0.4881490000000 1.0
C      1  0.4780050000000  0.4106880000000  0.4625900000000 1.0
C      1  0.4750680000000  0.5266720000000  0.4533510000000 1.0
C      1  0.4341890000000  0.4938330000000  0.4653080000000 1.0
C      1  0.4929660000000  0.5558350000000  0.5724660000000 1.0
C      1  0.4962760000000  0.4468890000000  0.5170080000000 1.0
C      1  0.5106350000000  0.4750540000000  0.4229920000000 1.0
C      1  0.4469160000000  0.4437160000000  0.4417840000000 1.0
C      1  0.5286370000000  0.4519660000000  0.5077340000000 1.0
C      1  0.5309630000000  0.4950090000000  0.4374170000000 1.0
C      1  0.5181320000000  0.4142380000000  0.5100190000000 1.0
C      1  0.4861600000000  0.5259330000000  0.4245690000000 1.0
C      1  0.5146440000000  0.5419600000000  0.5423790000000 1.0
C      1  0.5012610000000  0.4535170000000  0.5878680000000 1.0
C      1  0.5282470000000  0.5894570000000  0.5207700000000 1.0
C      1  0.4570390000000  0.5186080000000  0.5755010000000 1.0
C      1  0.4093300000000  0.4722480000000  0.4738410000000 1.0
C      1  0.4520640000000  0.4262380000000  0.4704840000000 1.0
C      1  0.5536650000000  0.4967740000000  0.5462930000000 1.0
C      1  0.4821240000000  0.4616350000000  0.4475490000000 1.0
C      1  0.4229630000000  0.4420100000000  0.4759970000000 1.0
C      1  0.4869970000000  0.4752740000000  0.5581350000000 1.0
C      1  0.5012530000000  0.4481880000000  0.4791890000000 1.0
C      1  0.4881150000000  0.4412840000000  0.5583800000000 1.0
C      1  0.4293960000000  0.4296690000000  0.5331890000000 1.0
C      1  0.5729510000000  0.5507520000000  0.5085690000000 1.0
C      1  0.5599900000000  0.4470800000000  0.5178330000000 1.0
C      1  0.5177080000000  0.5343420000000  0.5738270000000 1.0
C      1  0.5837730000000  0.5111790000000  0.5415400000000 1.0
C      1  0.4906470000000  0.5009120000000  0.5401400000000 1.0
C      1  0.5425630000000  0.4365860000000  0.4215780000000 1.0
C      1  0.5231390000000  0.5093120000000  0.5380800000000 1.0
C      1  0.4558410000000  0.4508480000000  0.5632820000000 1.0
C      1  0.5298980000000  0.4832220000000  0.5172300000000 1.0
C      1  0.4404120000000  0.4773530000000  0.5485950000000 1.0
C      1  0.5028260000000  0.6007540000000  0.5036380000000 1.0
C      1  0.4106870000000  0.4901340000000  0.5475780000000 1.0
C      1  0.4890260000000  0.5058420000000  0.4763170000000 1.0
C      1  0.5490730000000  0.5236630000000  0.5755340000000 1.0
C      1  0.5302160000000  0.5897070000000  0.4867920000000 1.0
C      1  0.4759330000000  0.4655090000000  0.5289970000000 1.0
C      1  0.4947920000000  0.4006260000000  0.4893580000000 1.0
C      1  0.5202450000000  0.5496150000000  0.4942250000000 1.0
C      1  0.4081570000000  0.5329940000000  0.5201790000000 1.0
C      1  0.5479150000000  0.5871960000000  0.4650500000000 1.0
C      1  0.5990520000000  0.5041630000000  0.5157360000000 1.0
C      1  0.4786360000000  0.4769330000000  0.4187960000000 1.0
C      1  0.4427770000000  0.5063810000000  0.4348960000000 1.0
C      1  0.4673840000000  0.5400040000000  0.4836710000000 1.0
C      1  0.4822500000000  0.5700230000000  0.5434750000000 1.0
END
