TITL C-2848508-1660-403 -0.000415343291186024 125000 -405.138361286415 0 0 81 (C1) n - 1
REM
REM in /home/bkarasulu/work/CARBON/AIRSS/Generating-Clusters/AIREBO/with-SteepDescent/Only-C1/SD-CG-opt/Try1-1.4A-POS3A/HFTN-CG
REM
REM
REM
REM
REM
REM ./C.cell (11c1c37f851c82e70ff6c80c92926a4b)
REM
REM compiler GCC version 9.2.1 20190827 (Red Hat 9.2.1-1)
REM options -cpp -mtune=generic -march=x86-64 -g -O0 -fpre-include=/usr/include/finclude/math-vector-fortran.h
REM seed 231485521 -1383294377 1104502716 -577940075 -1756693514 594806357 1758863633 2123732969 1494030164 -429103363 -581714101 1421688650 -782248734 1762103827 -713320329 1657812231 963163682 -1037244876 -437277296 -785392935 793636181 -1525395284 -912790441 -1644445342 1976736044 860142775 466359404 643326377 16153834 344851082 565583291 -321055492 1779546918
REM
CELL 1.54180   50.00000   50.00000   50.00000   90.00000   90.00000   90.00000
LATT -1
SFAC C  
C      1  0.4571030000000  0.4260080000000  0.5193660000000 1.0
C      1  0.4935900000000  0.4249090000000  0.4693910000000 1.0
C      1  0.4953880000000  0.5331590000000  0.5828420000000 1.0
C      1  0.5332770000000  0.5204260000000  0.5496610000000 1.0
C      1  0.5292330000000  0.5259240000000  0.4348380000000 1.0
C      1  0.4809140000000  0.4794880000000  0.5142220000000 1.0
C      1  0.4845610000000  0.5656900000000  0.5331580000000 1.0
C      1  0.5694750000000  0.5272980000000  0.4604820000000 1.0
C      1  0.4786850000000  0.4341930000000  0.5365320000000 1.0
C      1  0.5080860000000  0.4742740000000  0.4325580000000 1.0
C      1  0.5254210000000  0.4652420000000  0.5671150000000 1.0
C      1  0.4738180000000  0.4521850000000  0.5649940000000 1.0
C      1  0.4413040000000  0.4692920000000  0.4900560000000 1.0
C      1  0.4845540000000  0.5538270000000  0.4493920000000 1.0
C      1  0.5309990000000  0.4586280000000  0.4519790000000 1.0
C      1  0.5399310000000  0.5107280000000  0.5189210000000 1.0
C      1  0.4741170000000  0.4740450000000  0.4308290000000 1.0
C      1  0.5041540000000  0.4566350000000  0.4681640000000 1.0
C      1  0.4472220000000  0.4413780000000  0.4627990000000 1.0
C      1  0.5313120000000  0.5595490000000  0.4401110000000 1.0
C      1  0.5766090000000  0.5042880000000  0.5342870000000 1.0
C      1  0.4622680000000  0.5538070000000  0.5454530000000 1.0
C      1  0.4487030000000  0.5250420000000  0.5333960000000 1.0
C      1  0.5322100000000  0.5141260000000  0.4665900000000 1.0
C      1  0.5436040000000  0.4798600000000  0.5830150000000 1.0
C      1  0.5037080000000  0.5039720000000  0.4828670000000 1.0
C      1  0.4823930000000  0.5208230000000  0.5352980000000 1.0
C      1  0.5598600000000  0.5644370000000  0.5476660000000 1.0
C      1  0.4820140000000  0.5682710000000  0.5013090000000 1.0
C      1  0.5093510000000  0.5663510000000  0.5467190000000 1.0
C      1  0.5511900000000  0.4915670000000  0.5520020000000 1.0
C      1  0.4772400000000  0.5332280000000  0.4827620000000 1.0
C      1  0.4712520000000  0.4559170000000  0.4971310000000 1.0
C      1  0.4139010000000  0.5118730000000  0.4971150000000 1.0
C      1  0.4733430000000  0.5064670000000  0.4677550000000 1.0
C      1  0.5331960000000  0.4739750000000  0.5049360000000 1.0
C      1  0.5012300000000  0.5102020000000  0.5584490000000 1.0
C      1  0.5479480000000  0.4771570000000  0.4338790000000 1.0
C      1  0.4372610000000  0.4358840000000  0.4950200000000 1.0
C      1  0.4752780000000  0.4484450000000  0.4527610000000 1.0
C      1  0.5191760000000  0.5024480000000  0.4177230000000 1.0
C      1  0.5102220000000  0.5500550000000  0.5067720000000 1.0
C      1  0.4619050000000  0.4769870000000  0.5817250000000 1.0
C      1  0.4574030000000  0.4969810000000  0.5162740000000 1.0
C      1  0.5182900000000  0.5450860000000  0.5676530000000 1.0
C      1  0.5585350000000  0.4592250000000  0.5443440000000 1.0
C      1  0.5490080000000  0.5569870000000  0.5015880000000 1.0
C      1  0.5922240000000  0.4890750000000  0.4913790000000 1.0
C      1  0.4069360000000  0.5117090000000  0.4421600000000 1.0
C      1  0.4899910000000  0.4345460000000  0.4982160000000 1.0
C      1  0.4973030000000  0.5036930000000  0.4437740000000 1.0
C      1  0.4947600000000  0.4641420000000  0.5377820000000 1.0
C      1  0.4696540000000  0.5326870000000  0.5665380000000 1.0
C      1  0.5747660000000  0.4784710000000  0.4736030000000 1.0
C      1  0.4928190000000  0.5243100000000  0.5080560000000 1.0
C      1  0.4899900000000  0.4829370000000  0.5657130000000 1.0
C      1  0.4416660000000  0.5332000000000  0.5007470000000 1.0
C      1  0.5285860000000  0.5420270000000  0.4793060000000 1.0
C      1  0.5578480000000  0.5435130000000  0.4400730000000 1.0
C      1  0.5433230000000  0.4413970000000  0.5257640000000 1.0
C      1  0.5595840000000  0.4979660000000  0.4544460000000 1.0
C      1  0.5280510000000  0.5749630000000  0.4807110000000 1.0
C      1  0.4190490000000  0.5172310000000  0.5432280000000 1.0
C      1  0.5248310000000  0.4776250000000  0.5354420000000 1.0
C      1  0.4446290000000  0.5028610000000  0.4856520000000 1.0
C      1  0.4269830000000  0.4655370000000  0.4594480000000 1.0
C      1  0.5484850000000  0.5016920000000  0.4927220000000 1.0
C      1  0.5544010000000  0.4376270000000  0.5010110000000 1.0
C      1  0.5659840000000  0.5308350000000  0.4917820000000 1.0
C      1  0.4509750000000  0.5599710000000  0.4956390000000 1.0
C      1  0.4976420000000  0.5664460000000  0.4725800000000 1.0
C      1  0.4031110000000  0.5096690000000  0.5246010000000 1.0
C      1  0.5839950000000  0.5100530000000  0.5088400000000 1.0
C      1  0.5107370000000  0.4369480000000  0.5250650000000 1.0
C      1  0.4195790000000  0.5023690000000  0.4626430000000 1.0
C      1  0.5505210000000  0.4602970000000  0.4790700000000 1.0
C      1  0.5351470000000  0.5499400000000  0.5318330000000 1.0
C      1  0.4622740000000  0.4999540000000  0.4259390000000 1.0
C      1  0.4770540000000  0.5291240000000  0.4355260000000 1.0
C      1  0.4113070000000  0.4255340000000  0.4975650000000 1.0
C      1  0.5055540000000  0.4753110000000  0.4912510000000 1.0
END
