TITL C-2847945-6269-417 0.00329913762063029 125000 -322.769034241633 0 0 61 (C1) n - 1
REM
REM in /home/bkarasulu/work/CARBON/AIRSS/Generating-Clusters/AIREBO/with-SteepDescent/Only-C1/SD-CG-opt/Try1-1.4A-POS3A/HFTN-CG
REM
REM
REM
REM
REM
REM ./C.cell (11c1c37f851c82e70ff6c80c92926a4b)
REM
REM compiler GCC version 9.2.1 20190827 (Red Hat 9.2.1-1)
REM options -cpp -mtune=generic -march=x86-64 -g -O0 -fpre-include=/usr/include/finclude/math-vector-fortran.h
REM seed 1708499811 551199204 447219552 1757114244 -141398748 -518670801 -58732428 540749573 1092780543 1539512909 1298292827 664192857 -244921826 1957341461 1483343135 -1418752105 96527204 -1645932365 -1497910356 1253222722 1994743182 -445997440 -394452436 975780686 1333309294 2127788643 2039965619 507758575 1173254552 1350328392 1826956557 -1336742316 908232377
REM
CELL 1.54180   50.00000   50.00000   50.00000   90.00000   90.00000   90.00000
LATT -1
SFAC C  
C      1  0.5492390000000  0.4622220000000  0.5627100000000 1.0
C      1  0.5605540000000  0.4874220000000  0.5510440000000 1.0
C      1  0.4659540000000  0.5029340000000  0.4451280000000 1.0
C      1  0.4684530000000  0.4649760000000  0.5887030000000 1.0
C      1  0.4869960000000  0.4652050000000  0.5601420000000 1.0
C      1  0.5255170000000  0.5155590000000  0.4433030000000 1.0
C      1  0.4978440000000  0.5205610000000  0.5801930000000 1.0
C      1  0.5229960000000  0.5188800000000  0.5693870000000 1.0
C      1  0.4343110000000  0.5054870000000  0.4573290000000 1.0
C      1  0.5209460000000  0.4723950000000  0.4319670000000 1.0
C      1  0.4810870000000  0.5637640000000  0.5109440000000 1.0
C      1  0.4508960000000  0.4501220000000  0.4360370000000 1.0
C      1  0.4426320000000  0.4521260000000  0.4817850000000 1.0
C      1  0.4324810000000  0.5112690000000  0.5289610000000 1.0
C      1  0.5698140000000  0.4889710000000  0.5252310000000 1.0
C      1  0.4726480000000  0.5193260000000  0.5580860000000 1.0
C      1  0.4580350000000  0.4768320000000  0.4982310000000 1.0
C      1  0.5024930000000  0.4768900000000  0.4504780000000 1.0
C      1  0.5056260000000  0.5346190000000  0.4865240000000 1.0
C      1  0.5516020000000  0.4714540000000  0.4709520000000 1.0
C      1  0.4599650000000  0.5473640000000  0.4646230000000 1.0
C      1  0.5174430000000  0.5011110000000  0.5222700000000 1.0
C      1  0.5098950000000  0.5757280000000  0.5223410000000 1.0
C      1  0.4931160000000  0.5154460000000  0.4520830000000 1.0
C      1  0.5269580000000  0.5388550000000  0.5461570000000 1.0
C      1  0.5758550000000  0.4434860000000  0.5104270000000 1.0
C      1  0.5769460000000  0.5102870000000  0.5099050000000 1.0
C      1  0.5288290000000  0.4944030000000  0.5517590000000 1.0
C      1  0.5099940000000  0.4981740000000  0.4760240000000 1.0
C      1  0.4445290000000  0.4763920000000  0.4463360000000 1.0
C      1  0.4249280000000  0.4808030000000  0.4771440000000 1.0
C      1  0.5354740000000  0.4927120000000  0.4979670000000 1.0
C      1  0.5461960000000  0.4785030000000  0.4400860000000 1.0
C      1  0.4830250000000  0.4375430000000  0.5114170000000 1.0
C      1  0.4758830000000  0.4444930000000  0.4804490000000 1.0
C      1  0.5183180000000  0.4618960000000  0.5509310000000 1.0
C      1  0.5316120000000  0.5567290000000  0.5252180000000 1.0
C      1  0.5553780000000  0.4670630000000  0.5085520000000 1.0
C      1  0.4510730000000  0.5238910000000  0.4756800000000 1.0
C      1  0.5310230000000  0.4524470000000  0.4902560000000 1.0
C      1  0.5110210000000  0.5581840000000  0.4339600000000 1.0
C      1  0.5489470000000  0.5042220000000  0.4622720000000 1.0
C      1  0.4887910000000  0.4918620000000  0.5168410000000 1.0
C      1  0.4948950000000  0.5729210000000  0.4830570000000 1.0
C      1  0.4713620000000  0.4918480000000  0.5720550000000 1.0
C      1  0.4557650000000  0.5540920000000  0.5297120000000 1.0
C      1  0.5535770000000  0.5206670000000  0.4911050000000 1.0
C      1  0.5140350000000  0.4492050000000  0.5195520000000 1.0
C      1  0.4979170000000  0.5235030000000  0.5388200000000 1.0
C      1  0.4852690000000  0.4647230000000  0.5289300000000 1.0
C      1  0.4868360000000  0.5313710000000  0.5109310000000 1.0
C      1  0.4921410000000  0.5487910000000  0.4587110000000 1.0
C      1  0.5244470000000  0.5609020000000  0.4789230000000 1.0
C      1  0.5087530000000  0.4371030000000  0.4758250000000 1.0
C      1  0.4492470000000  0.5304330000000  0.5424630000000 1.0
C      1  0.5288420000000  0.5377930000000  0.4270880000000 1.0
C      1  0.4673600000000  0.4353130000000  0.4488400000000 1.0
C      1  0.5410370000000  0.5473040000000  0.4999150000000 1.0
C      1  0.4850500000000  0.4766850000000  0.4790000000000 1.0
C      1  0.4311510000000  0.4951030000000  0.5075060000000 1.0
C      1  0.4669900000000  0.5096340000000  0.4977380000000 1.0
END
