TITL C-2847946-5639-483 0.000708919860680621 125000 -1057.47084692161 0 0 200 (C1) n - 1
REM
REM in /home/bkarasulu/work/CARBON/AIRSS/Generating-Clusters/AIREBO/with-SteepDescent/Only-C1/SD-CG-opt/Try1-1.4A-POS3A/HFTN-CG
REM
REM
REM
REM
REM
REM ./C.cell (11c1c37f851c82e70ff6c80c92926a4b)
REM
REM compiler GCC version 9.2.1 20190827 (Red Hat 9.2.1-1)
REM options -cpp -mtune=generic -march=x86-64 -g -O0 -fpre-include=/usr/include/finclude/math-vector-fortran.h
REM seed 1830382355 -2016945774 -1962726924 1126061158 -1493834070 1630795064 593566503 -278627353 -1120491902 -1384394981 721027106 -763800504 -1561638421 632733507 214155485 -1363074943 -193677473 -1941762820 1393298842 -1071387170 -1282936433 799837684 1627659589 -5347189 -1108616789 -545271016 604564425 1182783559 1715883527 -111408607 -311010235 837081125 -1431616376
REM
CELL 1.54180   50.00000   50.00000   50.00000   90.00000   90.00000   90.00000
LATT -1
SFAC C  
C      1  0.4156360000000  0.4466990000000  0.4465700000000 1.0
C      1  0.5133350000000  0.3914450000000  0.5395630000000 1.0
C      1  0.5534690000000  0.5322290000000  0.5391580000000 1.0
C      1  0.5730400000000  0.5444200000000  0.5804050000000 1.0
C      1  0.4920800000000  0.4655250000000  0.4460660000000 1.0
C      1  0.4517060000000  0.4862360000000  0.5022720000000 1.0
C      1  0.4285990000000  0.4361110000000  0.4976370000000 1.0
C      1  0.4611400000000  0.4836750000000  0.4636600000000 1.0
C      1  0.4718400000000  0.4172600000000  0.6092480000000 1.0
C      1  0.3824180000000  0.5095190000000  0.4858700000000 1.0
C      1  0.5677870000000  0.4603750000000  0.5718420000000 1.0
C      1  0.5635660000000  0.4978400000000  0.4538520000000 1.0
C      1  0.5168110000000  0.4375360000000  0.4143230000000 1.0
C      1  0.3997750000000  0.4611480000000  0.4730430000000 1.0
C      1  0.5534820000000  0.5256970000000  0.5949000000000 1.0
C      1  0.5493740000000  0.5455990000000  0.4192440000000 1.0
C      1  0.5386080000000  0.4675500000000  0.6140470000000 1.0
C      1  0.5898010000000  0.5212650000000  0.4805510000000 1.0
C      1  0.4131870000000  0.5130180000000  0.4766110000000 1.0
C      1  0.5712000000000  0.4369290000000  0.5111220000000 1.0
C      1  0.5189260000000  0.4337380000000  0.5773620000000 1.0
C      1  0.5346610000000  0.4167960000000  0.4269540000000 1.0
C      1  0.4670880000000  0.4260870000000  0.5003560000000 1.0
C      1  0.5139610000000  0.3928020000000  0.4392800000000 1.0
C      1  0.5319320000000  0.4654650000000  0.4471850000000 1.0
C      1  0.4762020000000  0.5704860000000  0.5119280000000 1.0
C      1  0.5384920000000  0.5668060000000  0.4509480000000 1.0
C      1  0.4827940000000  0.3921450000000  0.5423700000000 1.0
C      1  0.5567030000000  0.4927940000000  0.5085280000000 1.0
C      1  0.5099300000000  0.4890550000000  0.4041850000000 1.0
C      1  0.4502150000000  0.4896830000000  0.5987200000000 1.0
C      1  0.4142540000000  0.4869350000000  0.4302340000000 1.0
C      1  0.5418070000000  0.5000390000000  0.4300600000000 1.0
C      1  0.5959650000000  0.5601580000000  0.4824350000000 1.0
C      1  0.4303340000000  0.5111130000000  0.5400670000000 1.0
C      1  0.4948780000000  0.5457890000000  0.4650850000000 1.0
C      1  0.5458840000000  0.4464790000000  0.5937180000000 1.0
C      1  0.5338010000000  0.4107430000000  0.4953940000000 1.0
C      1  0.4834080000000  0.5614990000000  0.5993540000000 1.0
C      1  0.5883540000000  0.4327000000000  0.4752490000000 1.0
C      1  0.4135070000000  0.5146500000000  0.4367450000000 1.0
C      1  0.4410420000000  0.4090690000000  0.5140790000000 1.0
C      1  0.4019100000000  0.5221650000000  0.5538870000000 1.0
C      1  0.5260680000000  0.5108020000000  0.3848130000000 1.0
C      1  0.5668150000000  0.4241910000000  0.4285860000000 1.0
C      1  0.5115810000000  0.4664900000000  0.6190990000000 1.0
C      1  0.5430000000000  0.3992680000000  0.5511160000000 1.0
C      1  0.4262660000000  0.5641220000000  0.4474860000000 1.0
C      1  0.4596070000000  0.4728130000000  0.5492980000000 1.0
C      1  0.6110290000000  0.5047470000000  0.5349850000000 1.0
C      1  0.5292590000000  0.4444720000000  0.4959440000000 1.0
C      1  0.4535230000000  0.4231600000000  0.4691860000000 1.0
C      1  0.4730030000000  0.4804120000000  0.3925630000000 1.0
C      1  0.5032320000000  0.5585250000000  0.5287360000000 1.0
C      1  0.4484350000000  0.4470410000000  0.5326740000000 1.0
C      1  0.5469530000000  0.5843180000000  0.5472450000000 1.0
C      1  0.5096570000000  0.4804390000000  0.5694480000000 1.0
C      1  0.4864100000000  0.5797470000000  0.5493760000000 1.0
C      1  0.4356090000000  0.5652870000000  0.5704510000000 1.0
C      1  0.4904310000000  0.4325530000000  0.5617940000000 1.0
C      1  0.5118580000000  0.4918560000000  0.4439300000000 1.0
C      1  0.5970940000000  0.4913290000000  0.4555470000000 1.0
C      1  0.5303750000000  0.5411600000000  0.3945650000000 1.0
C      1  0.3854610000000  0.4904770000000  0.5207810000000 1.0
C      1  0.4645570000000  0.4175220000000  0.4452200000000 1.0
C      1  0.4192580000000  0.4835470000000  0.4611120000000 1.0
C      1  0.5429030000000  0.5308510000000  0.5074180000000 1.0
C      1  0.4690300000000  0.5266180000000  0.5688760000000 1.0
C      1  0.4231100000000  0.5738400000000  0.5317330000000 1.0
C      1  0.5362840000000  0.4781330000000  0.5393950000000 1.0
C      1  0.5543230000000  0.4882020000000  0.5639510000000 1.0
C      1  0.5304030000000  0.5042660000000  0.5820280000000 1.0
C      1  0.5940810000000  0.5646470000000  0.5683490000000 1.0
C      1  0.4667510000000  0.5274560000000  0.4596670000000 1.0
C      1  0.3940110000000  0.5498720000000  0.5448990000000 1.0
C      1  0.5153370000000  0.4555900000000  0.5249170000000 1.0
C      1  0.5914250000000  0.5296210000000  0.5269090000000 1.0
C      1  0.5458570000000  0.4139970000000  0.5816310000000 1.0
C      1  0.5302850000000  0.5276260000000  0.5582690000000 1.0
C      1  0.3960310000000  0.4694620000000  0.5012070000000 1.0
C      1  0.5230500000000  0.5939310000000  0.4457710000000 1.0
C      1  0.4477330000000  0.5874560000000  0.5168570000000 1.0
C      1  0.5928900000000  0.5239240000000  0.4467860000000 1.0
C      1  0.5832000000000  0.4439850000000  0.4467170000000 1.0
C      1  0.5265400000000  0.5483250000000  0.4708660000000 1.0
C      1  0.5950180000000  0.4713670000000  0.4829980000000 1.0
C      1  0.5488820000000  0.4896040000000  0.3984750000000 1.0
C      1  0.4393290000000  0.5465720000000  0.5249740000000 1.0
C      1  0.4922450000000  0.3828910000000  0.4856260000000 1.0
C      1  0.4583020000000  0.5618230000000  0.5463700000000 1.0
C      1  0.4984540000000  0.5325870000000  0.4247490000000 1.0
C      1  0.5680370000000  0.5668620000000  0.4381100000000 1.0
C      1  0.4338810000000  0.4192850000000  0.5445320000000 1.0
C      1  0.5039370000000  0.5775300000000  0.4228860000000 1.0
C      1  0.5575090000000  0.6023850000000  0.5214300000000 1.0
C      1  0.4236380000000  0.4625100000000  0.5175850000000 1.0
C      1  0.5235130000000  0.3850260000000  0.4709710000000 1.0
C      1  0.5420650000000  0.5874900000000  0.4950320000000 1.0
C      1  0.5900050000000  0.5543770000000  0.4534170000000 1.0
C      1  0.4821970000000  0.5039230000000  0.4468920000000 1.0
C      1  0.4321190000000  0.4496100000000  0.4219930000000 1.0
C      1  0.5293690000000  0.4276730000000  0.5383310000000 1.0
C      1  0.4271890000000  0.5503770000000  0.4789000000000 1.0
C      1  0.4929530000000  0.4630190000000  0.5939710000000 1.0
C      1  0.6246140000000  0.5086350000000  0.4655430000000 1.0
C      1  0.4916000000000  0.4612910000000  0.5485940000000 1.0
C      1  0.5266510000000  0.5288090000000  0.4349980000000 1.0
C      1  0.5028850000000  0.4136600000000  0.4882930000000 1.0
C      1  0.5367170000000  0.4737730000000  0.4798180000000 1.0
C      1  0.4873500000000  0.5028870000000  0.5586760000000 1.0
C      1  0.4401860000000  0.5274590000000  0.4405880000000 1.0
C      1  0.5085040000000  0.5203480000000  0.6024760000000 1.0
C      1  0.4814220000000  0.6103060000000  0.5401580000000 1.0
C      1  0.5998980000000  0.4935340000000  0.5607340000000 1.0
C      1  0.5311050000000  0.4383610000000  0.4625440000000 1.0
C      1  0.5442600000000  0.5766800000000  0.5791060000000 1.0
C      1  0.4548320000000  0.6142960000000  0.5315100000000 1.0
C      1  0.4582870000000  0.5102400000000  0.6147060000000 1.0
C      1  0.4683170000000  0.5728130000000  0.5770520000000 1.0
C      1  0.4770620000000  0.5293290000000  0.5995180000000 1.0
C      1  0.5728750000000  0.4791600000000  0.4160610000000 1.0
C      1  0.4381000000000  0.5337530000000  0.5662670000000 1.0
C      1  0.4989060000000  0.4926180000000  0.3734670000000 1.0
C      1  0.3933760000000  0.5528930000000  0.5151280000000 1.0
C      1  0.5110920000000  0.5500340000000  0.6013330000000 1.0
C      1  0.4925800000000  0.6031920000000  0.4420900000000 1.0
C      1  0.5278630000000  0.5034390000000  0.4939710000000 1.0
C      1  0.4735100000000  0.6040950000000  0.4911930000000 1.0
C      1  0.4714510000000  0.4815810000000  0.5799460000000 1.0
C      1  0.4639020000000  0.4509110000000  0.4077520000000 1.0
C      1  0.5017010000000  0.5250130000000  0.4911950000000 1.0
C      1  0.4432970000000  0.5864250000000  0.4847010000000 1.0
C      1  0.4239010000000  0.4960180000000  0.5117570000000 1.0
C      1  0.6193660000000  0.5366530000000  0.4746950000000 1.0
C      1  0.4270400000000  0.4732290000000  0.5592600000000 1.0
C      1  0.4163840000000  0.5156050000000  0.5820150000000 1.0
C      1  0.4617630000000  0.5234030000000  0.5357940000000 1.0
C      1  0.5073140000000  0.5588200000000  0.3961810000000 1.0
C      1  0.5607810000000  0.4228120000000  0.4842480000000 1.0
C      1  0.4233500000000  0.5288490000000  0.5049390000000 1.0
C      1  0.5485760000000  0.4944530000000  0.6090430000000 1.0
C      1  0.4259490000000  0.4897780000000  0.5859720000000 1.0
C      1  0.4630680000000  0.5724810000000  0.4113210000000 1.0
C      1  0.4765010000000  0.5373540000000  0.5085060000000 1.0
C      1  0.4388900000000  0.4637920000000  0.4807230000000 1.0
C      1  0.5559380000000  0.4362160000000  0.5568230000000 1.0
C      1  0.4072120000000  0.5731090000000  0.5595700000000 1.0
C      1  0.4896020000000  0.4508850000000  0.5032020000000 1.0
C      1  0.5563780000000  0.4623420000000  0.5185510000000 1.0
C      1  0.5289630000000  0.4660480000000  0.4138810000000 1.0
C      1  0.5790510000000  0.5330470000000  0.4198290000000 1.0
C      1  0.4557250000000  0.5339320000000  0.3959430000000 1.0
C      1  0.4706580000000  0.4927480000000  0.5240570000000 1.0
C      1  0.5730200000000  0.5085380000000  0.5462900000000 1.0
C      1  0.5640530000000  0.5973800000000  0.4480020000000 1.0
C      1  0.4825630000000  0.4336460000000  0.5926250000000 1.0
C      1  0.4466180000000  0.5089940000000  0.4793220000000 1.0
C      1  0.5006560000000  0.4896780000000  0.5091060000000 1.0
C      1  0.5955750000000  0.4656770000000  0.5597810000000 1.0
C      1  0.4871790000000  0.4374280000000  0.4294710000000 1.0
C      1  0.4798820000000  0.5582160000000  0.4372080000000 1.0
C      1  0.5670580000000  0.4671840000000  0.4658690000000 1.0
C      1  0.4410490000000  0.5493180000000  0.4203280000000 1.0
C      1  0.5927260000000  0.4701090000000  0.4323300000000 1.0
C      1  0.5037810000000  0.4176480000000  0.5200990000000 1.0
C      1  0.5837550000000  0.5038030000000  0.5060780000000 1.0
C      1  0.3991030000000  0.4888820000000  0.5474430000000 1.0
C      1  0.5655180000000  0.5587570000000  0.5505060000000 1.0
C      1  0.4740830000000  0.5984230000000  0.4622800000000 1.0
C      1  0.5443890000000  0.6015890000000  0.4692490000000 1.0
C      1  0.5744440000000  0.5423230000000  0.5020380000000 1.0
C      1  0.6030850000000  0.4441440000000  0.5017660000000 1.0
C      1  0.4836740000000  0.5035000000000  0.4151520000000 1.0
C      1  0.4498420000000  0.5053020000000  0.3939470000000 1.0
C      1  0.5247330000000  0.5936520000000  0.5225470000000 1.0
C      1  0.5383140000000  0.5180700000000  0.4651090000000 1.0
C      1  0.3789830000000  0.5228670000000  0.5125400000000 1.0
C      1  0.5376830000000  0.5558100000000  0.5950080000000 1.0
C      1  0.4895490000000  0.4470000000000  0.4711310000000 1.0
C      1  0.4674200000000  0.3921280000000  0.4985560000000 1.0
C      1  0.5452660000000  0.4077870000000  0.4579790000000 1.0
C      1  0.4859710000000  0.4777110000000  0.4835860000000 1.0
C      1  0.4824070000000  0.5410870000000  0.3960020000000 1.0
C      1  0.4207160000000  0.4409680000000  0.5607160000000 1.0
C      1  0.5672130000000  0.4159190000000  0.5335380000000 1.0
C      1  0.5031230000000  0.4209070000000  0.4550580000000 1.0
C      1  0.6070030000000  0.4819610000000  0.5124570000000 1.0
C      1  0.4149000000000  0.5737520000000  0.4988030000000 1.0
C      1  0.4628190000000  0.4715930000000  0.4335260000000 1.0
C      1  0.5029890000000  0.5295240000000  0.5444110000000 1.0
C      1  0.4732630000000  0.4238290000000  0.5337530000000 1.0
C      1  0.4391450000000  0.4815920000000  0.4133110000000 1.0
C      1  0.5260140000000  0.5586480000000  0.5033500000000 1.0
C      1  0.4581370000000  0.5468000000000  0.4848520000000 1.0
C      1  0.4251150000000  0.4287450000000  0.4673810000000 1.0
C      1  0.5993430000000  0.4563040000000  0.5333010000000 1.0
C      1  0.4559910000000  0.5738050000000  0.4557650000000 1.0
C      1  0.4966730000000  0.5974360000000  0.5151890000000 1.0
C      1  0.5171180000000  0.5013050000000  0.5321680000000 1.0
C      1  0.4050380000000  0.5388920000000  0.4557950000000 1.0
END
