TITL C-2848499-1157-751 0.000538769478548458 125000 -1078.88270423046 0 0 193 (C1) n - 1
REM
REM in /home/bkarasulu/work/CARBON/AIRSS/Generating-Clusters/AIREBO/with-SteepDescent/Only-C1/SD-CG-opt/Try1-1.4A-POS3A/HFTN-CG
REM
REM
REM
REM
REM
REM ./C.cell (11c1c37f851c82e70ff6c80c92926a4b)
REM
REM compiler GCC version 9.2.1 20190827 (Red Hat 9.2.1-1)
REM options -cpp -mtune=generic -march=x86-64 -g -O0 -fpre-include=/usr/include/finclude/math-vector-fortran.h
REM seed -1472292868 -1054067472 -197869324 1592767125 16348515 -251316356 -766577492 -552356800 -1844263212 1754875012 683049741 1003198268 -82939403 1599070589 -165133905 -977492648 356671199 -1767088384 1880553221 55724933 -1601015049 1374455812 -295155036 1199267086 1483120684 -1191400394 -380933424 1963406460 -443871534 573416158 354807946 -2028864319 1036331358
REM
CELL 1.54180   50.00000   50.00000   50.00000   90.00000   90.00000   90.00000
LATT -1
SFAC C  
C      1  0.4725180000000  0.4274670000000  0.5296200000000 1.0
C      1  0.4811090000000  0.4699240000000  0.4602580000000 1.0
C      1  0.4737280000000  0.4371840000000  0.4908760000000 1.0
C      1  0.4607220000000  0.5327090000000  0.5301060000000 1.0
C      1  0.4964180000000  0.3955850000000  0.5771550000000 1.0
C      1  0.4684930000000  0.4356010000000  0.4239470000000 1.0
C      1  0.5889550000000  0.4726740000000  0.3976440000000 1.0
C      1  0.5601820000000  0.4957950000000  0.4551180000000 1.0
C      1  0.4649710000000  0.5294960000000  0.6011650000000 1.0
C      1  0.5384470000000  0.5098560000000  0.6009280000000 1.0
C      1  0.4289520000000  0.5673200000000  0.5569830000000 1.0
C      1  0.5236910000000  0.4781790000000  0.4902280000000 1.0
C      1  0.4388360000000  0.5269450000000  0.5842430000000 1.0
C      1  0.4962980000000  0.5727120000000  0.5283620000000 1.0
C      1  0.3931070000000  0.5260680000000  0.4357700000000 1.0
C      1  0.5196240000000  0.4675610000000  0.5755050000000 1.0
C      1  0.5725720000000  0.4718450000000  0.5751120000000 1.0
C      1  0.5560970000000  0.3638740000000  0.5443300000000 1.0
C      1  0.5542930000000  0.4154500000000  0.5092920000000 1.0
C      1  0.4726920000000  0.5469710000000  0.4145090000000 1.0
C      1  0.4773770000000  0.4237430000000  0.3960170000000 1.0
C      1  0.4757220000000  0.4677230000000  0.4992940000000 1.0
C      1  0.4178330000000  0.5786760000000  0.5046850000000 1.0
C      1  0.5130230000000  0.4995790000000  0.6180880000000 1.0
C      1  0.5038000000000  0.5733990000000  0.4760560000000 1.0
C      1  0.5365320000000  0.5653640000000  0.4805390000000 1.0
C      1  0.5641860000000  0.4319300000000  0.4344100000000 1.0
C      1  0.4683860000000  0.4943860000000  0.4794310000000 1.0
C      1  0.5049080000000  0.3851330000000  0.5046110000000 1.0
C      1  0.5272490000000  0.4401350000000  0.5589570000000 1.0
C      1  0.4348980000000  0.4416000000000  0.4443990000000 1.0
C      1  0.4872670000000  0.3884200000000  0.4775030000000 1.0
C      1  0.4298770000000  0.4877440000000  0.4714260000000 1.0
C      1  0.5571770000000  0.5365470000000  0.5184040000000 1.0
C      1  0.5669690000000  0.5207120000000  0.5856880000000 1.0
C      1  0.5444170000000  0.5788820000000  0.4336220000000 1.0
C      1  0.4066430000000  0.5536970000000  0.5063920000000 1.0
C      1  0.4473210000000  0.4854360000000  0.4229970000000 1.0
C      1  0.4158090000000  0.4616570000000  0.5406060000000 1.0
C      1  0.4690450000000  0.5437790000000  0.4455860000000 1.0
C      1  0.5301240000000  0.5172920000000  0.5431000000000 1.0
C      1  0.4382680000000  0.4543380000000  0.4964530000000 1.0
C      1  0.5106400000000  0.5480100000000  0.4020700000000 1.0
C      1  0.4262510000000  0.5495740000000  0.5762120000000 1.0
C      1  0.5264840000000  0.5119890000000  0.4072980000000 1.0
C      1  0.4842520000000  0.4191230000000  0.4719680000000 1.0
C      1  0.4476800000000  0.4254040000000  0.5064900000000 1.0
C      1  0.5273310000000  0.4002050000000  0.5252610000000 1.0
C      1  0.5113570000000  0.4673910000000  0.4674180000000 1.0
C      1  0.5594430000000  0.5200310000000  0.5547300000000 1.0
C      1  0.5580850000000  0.5411530000000  0.4870520000000 1.0
C      1  0.4524780000000  0.4137890000000  0.4414660000000 1.0
C      1  0.5619100000000  0.4813630000000  0.5015810000000 1.0
C      1  0.5166070000000  0.5966110000000  0.4360410000000 1.0
C      1  0.5912490000000  0.4567470000000  0.4683940000000 1.0
C      1  0.5593570000000  0.4579250000000  0.6099430000000 1.0
C      1  0.5156370000000  0.3789220000000  0.5676460000000 1.0
C      1  0.5354880000000  0.4325510000000  0.5318890000000 1.0
C      1  0.4541640000000  0.4604670000000  0.5703770000000 1.0
C      1  0.4711840000000  0.4653980000000  0.4312260000000 1.0
C      1  0.4563160000000  0.5972040000000  0.4787540000000 1.0
C      1  0.5103700000000  0.5859710000000  0.5563660000000 1.0
C      1  0.4364720000000  0.4310490000000  0.5681330000000 1.0
C      1  0.5077180000000  0.4482580000000  0.4033040000000 1.0
C      1  0.5884000000000  0.5001200000000  0.5735370000000 1.0
C      1  0.5823290000000  0.5331650000000  0.5365310000000 1.0
C      1  0.6037390000000  0.5183920000000  0.5158200000000 1.0
C      1  0.5039310000000  0.5518890000000  0.5025810000000 1.0
C      1  0.5318910000000  0.5388440000000  0.5918190000000 1.0
C      1  0.4599180000000  0.5948420000000  0.5460070000000 1.0
C      1  0.5252170000000  0.4898500000000  0.5270550000000 1.0
C      1  0.4601030000000  0.4986260000000  0.6145620000000 1.0
C      1  0.6038740000000  0.5005420000000  0.5436120000000 1.0
C      1  0.5963710000000  0.4989870000000  0.4388090000000 1.0
C      1  0.4607530000000  0.5726510000000  0.5014750000000 1.0
C      1  0.4400310000000  0.5044820000000  0.5633970000000 1.0
C      1  0.5174660000000  0.5115020000000  0.4929180000000 1.0
C      1  0.4885970000000  0.5130790000000  0.6195270000000 1.0
C      1  0.5091340000000  0.4714770000000  0.6136210000000 1.0
C      1  0.5051960000000  0.4144090000000  0.4005650000000 1.0
C      1  0.5344530000000  0.3803540000000  0.5471750000000 1.0
C      1  0.4866010000000  0.5940780000000  0.4256770000000 1.0
C      1  0.4863970000000  0.5089810000000  0.4544920000000 1.0
C      1  0.4454580000000  0.5620810000000  0.5282080000000 1.0
C      1  0.5416260000000  0.6048870000000  0.4752840000000 1.0
C      1  0.5037210000000  0.5320490000000  0.5280430000000 1.0
C      1  0.5526130000000  0.5570870000000  0.5773970000000 1.0
C      1  0.5062930000000  0.5476050000000  0.5765410000000 1.0
C      1  0.5473880000000  0.5079300000000  0.5086770000000 1.0
C      1  0.4821470000000  0.4161200000000  0.5670790000000 1.0
C      1  0.5116820000000  0.6049330000000  0.4660800000000 1.0
C      1  0.4518890000000  0.4744220000000  0.5202730000000 1.0
C      1  0.5309760000000  0.4014270000000  0.4439280000000 1.0
C      1  0.4146450000000  0.5472260000000  0.4428950000000 1.0
C      1  0.4202510000000  0.4812930000000  0.4400650000000 1.0
C      1  0.5855250000000  0.4756770000000  0.5439090000000 1.0
C      1  0.5388550000000  0.5847660000000  0.5643670000000 1.0
C      1  0.6095370000000  0.4422040000000  0.4826340000000 1.0
C      1  0.4781590000000  0.6098100000000  0.4690800000000 1.0
C      1  0.4099050000000  0.4550560000000  0.4607920000000 1.0
C      1  0.4281750000000  0.5602290000000  0.4628570000000 1.0
C      1  0.4293230000000  0.5834690000000  0.4793320000000 1.0
C      1  0.4520390000000  0.4649290000000  0.3962820000000 1.0
C      1  0.5826720000000  0.5821390000000  0.4719470000000 1.0
C      1  0.4997690000000  0.5041200000000  0.4234980000000 1.0
C      1  0.3721130000000  0.4458370000000  0.5261780000000 1.0
C      1  0.4077910000000  0.4542740000000  0.4947310000000 1.0
C      1  0.4716560000000  0.3795200000000  0.5066110000000 1.0
C      1  0.4590440000000  0.5131580000000  0.4347160000000 1.0
C      1  0.4890380000000  0.5248270000000  0.4016470000000 1.0
C      1  0.4785030000000  0.5542140000000  0.5918990000000 1.0
C      1  0.5826040000000  0.5497840000000  0.5865510000000 1.0
C      1  0.4655320000000  0.4991900000000  0.5331890000000 1.0
C      1  0.5747530000000  0.5207290000000  0.4372160000000 1.0
C      1  0.4726180000000  0.4949300000000  0.5653110000000 1.0
C      1  0.5335210000000  0.5374860000000  0.3860560000000 1.0
C      1  0.4142900000000  0.4864360000000  0.5532360000000 1.0
C      1  0.4793990000000  0.5744430000000  0.5645720000000 1.0
C      1  0.4542750000000  0.4097490000000  0.5516220000000 1.0
C      1  0.4877900000000  0.6080860000000  0.5447620000000 1.0
C      1  0.6035950000000  0.5032230000000  0.4886370000000 1.0
C      1  0.5603120000000  0.5922950000000  0.4570070000000 1.0
C      1  0.5439200000000  0.4794760000000  0.5886480000000 1.0
C      1  0.5683770000000  0.5834650000000  0.5475370000000 1.0
C      1  0.3821220000000  0.5061650000000  0.4783430000000 1.0
C      1  0.4879940000000  0.5885170000000  0.5014080000000 1.0
C      1  0.5177450000000  0.5574200000000  0.4297740000000 1.0
C      1  0.3972820000000  0.4532940000000  0.5202980000000 1.0
C      1  0.3968090000000  0.4838480000000  0.4721690000000 1.0
C      1  0.5185270000000  0.4289000000000  0.4365590000000 1.0
C      1  0.4999020000000  0.6112800000000  0.5188870000000 1.0
C      1  0.4965740000000  0.4140920000000  0.5210530000000 1.0
C      1  0.5366430000000  0.5454130000000  0.4539360000000 1.0
C      1  0.4465920000000  0.4472220000000  0.5399790000000 1.0
C      1  0.4898040000000  0.4277740000000  0.4458400000000 1.0
C      1  0.5827140000000  0.4417040000000  0.5674880000000 1.0
C      1  0.4804800000000  0.4658680000000  0.5495030000000 1.0
C      1  0.4754000000000  0.5725530000000  0.4055380000000 1.0
C      1  0.4958860000000  0.4750920000000  0.4169300000000 1.0
C      1  0.4848410000000  0.5437250000000  0.5504420000000 1.0
C      1  0.5872930000000  0.5583360000000  0.5566500000000 1.0
C      1  0.4201520000000  0.5236120000000  0.5064720000000 1.0
C      1  0.4251450000000  0.5149030000000  0.4380340000000 1.0
C      1  0.5503660000000  0.4705200000000  0.4345640000000 1.0
C      1  0.4510890000000  0.3953300000000  0.5207540000000 1.0
C      1  0.5578000000000  0.4052690000000  0.4419070000000 1.0
C      1  0.4903450000000  0.4750290000000  0.5867160000000 1.0
C      1  0.5411630000000  0.4564050000000  0.5097150000000 1.0
C      1  0.4769910000000  0.4537700000000  0.3893620000000 1.0
C      1  0.5795450000000  0.4836870000000  0.4776940000000 1.0
C      1  0.4668110000000  0.5395180000000  0.4973550000000 1.0
C      1  0.5790540000000  0.5883130000000  0.5020320000000 1.0
C      1  0.4726160000000  0.6180100000000  0.4250410000000 1.0
C      1  0.3737160000000  0.5203420000000  0.4553080000000 1.0
C      1  0.5851420000000  0.4358320000000  0.5426940000000 1.0
C      1  0.5277270000000  0.4509130000000  0.6116290000000 1.0
C      1  0.5458830000000  0.5877690000000  0.5043590000000 1.0
C      1  0.4807220000000  0.5144850000000  0.3771980000000 1.0
C      1  0.5940050000000  0.5729940000000  0.5267930000000 1.0
C      1  0.5308040000000  0.5474890000000  0.5529730000000 1.0
C      1  0.4488130000000  0.4617630000000  0.4671550000000 1.0
C      1  0.4668120000000  0.3906640000000  0.4435550000000 1.0
C      1  0.5394840000000  0.4449310000000  0.4149760000000 1.0
C      1  0.5586710000000  0.5487240000000  0.4301820000000 1.0
C      1  0.4610130000000  0.4747280000000  0.5990730000000 1.0
C      1  0.6014630000000  0.5502560000000  0.5059800000000 1.0
C      1  0.5723310000000  0.4575190000000  0.5221000000000 1.0
C      1  0.5292630000000  0.4539530000000  0.4517340000000 1.0
C      1  0.4326730000000  0.4496990000000  0.4131730000000 1.0
C      1  0.4954740000000  0.4421160000000  0.5646410000000 1.0
C      1  0.3902610000000  0.5006270000000  0.5495030000000 1.0
C      1  0.5830660000000  0.4751710000000  0.4247950000000 1.0
C      1  0.5006030000000  0.3883290000000  0.4465920000000 1.0
C      1  0.4934820000000  0.5306060000000  0.4781980000000 1.0
C      1  0.4294070000000  0.5915390000000  0.5329870000000 1.0
C      1  0.5082420000000  0.3904960000000  0.4135110000000 1.0
C      1  0.4735120000000  0.5863780000000  0.5975540000000 1.0
C      1  0.5269490000000  0.6134390000000  0.5161380000000 1.0
C      1  0.5467990000000  0.5656240000000  0.5302470000000 1.0
C      1  0.4304120000000  0.5180380000000  0.5348110000000 1.0
C      1  0.3775970000000  0.5131160000000  0.5285580000000 1.0
C      1  0.5852450000000  0.5539540000000  0.4826070000000 1.0
C      1  0.5411220000000  0.5176520000000  0.4692640000000 1.0
C      1  0.3892430000000  0.5172400000000  0.5033250000000 1.0
C      1  0.4402590000000  0.5133790000000  0.4836560000000 1.0
C      1  0.5462210000000  0.4396910000000  0.5854340000000 1.0
C      1  0.4918180000000  0.5666290000000  0.4451470000000 1.0
C      1  0.5833480000000  0.4497490000000  0.4426830000000 1.0
C      1  0.4956270000000  0.4746770000000  0.5245890000000 1.0
C      1  0.5559300000000  0.5272820000000  0.4064760000000 1.0
C      1  0.4505440000000  0.5416450000000  0.4694890000000 1.0
C      1  0.4913960000000  0.5057330000000  0.5139780000000 1.0
C      1  0.6120510000000  0.4998890000000  0.4609780000000 1.0
END
