TITL C-2847955-7945-354 0.0036604059898827 125000 -582.060415290091 0 0 111 (C1) n - 1
REM
REM in /home/bkarasulu/work/CARBON/AIRSS/Generating-Clusters/AIREBO/with-SteepDescent/Only-C1/SD-CG-opt/Try1-1.4A-POS3A/HFTN-CG
REM
REM
REM
REM
REM
REM ./C.cell (11c1c37f851c82e70ff6c80c92926a4b)
REM
REM compiler GCC version 9.2.1 20190827 (Red Hat 9.2.1-1)
REM options -cpp -mtune=generic -march=x86-64 -g -O0 -fpre-include=/usr/include/finclude/math-vector-fortran.h
REM seed 281820975 -163857094 1622733709 61582962 1902356276 1044653888 1805927958 -751763151 29313293 676069919 1283239261 -1786563665 -1330738424 623207025 2041240307 178937409 -1988353270 1498396465 930895972 -1167196543 -1860475378 1118478122 -1100267424 1675090961 1789591894 1139517432 586957631 1583340009 1893670659 -1700119329 2064362955 541859640 -1499101261
REM
CELL 1.54180   50.00000   50.00000   50.00000   90.00000   90.00000   90.00000
LATT -1
SFAC C  
C      1  0.4601850000000  0.5815710000000  0.4759980000000 1.0
C      1  0.5214640000000  0.4567400000000  0.4093020000000 1.0
C      1  0.5083200000000  0.5401990000000  0.5757730000000 1.0
C      1  0.5114720000000  0.5284440000000  0.4420010000000 1.0
C      1  0.5244250000000  0.4132740000000  0.5119260000000 1.0
C      1  0.4800450000000  0.4774200000000  0.5557740000000 1.0
C      1  0.5319070000000  0.4881070000000  0.4141550000000 1.0
C      1  0.5609220000000  0.4730960000000  0.4519260000000 1.0
C      1  0.4777900000000  0.4531380000000  0.5333870000000 1.0
C      1  0.4375330000000  0.4583160000000  0.4630930000000 1.0
C      1  0.4819850000000  0.5032420000000  0.5778190000000 1.0
C      1  0.4711810000000  0.4532390000000  0.4611050000000 1.0
C      1  0.4460530000000  0.4992030000000  0.4731620000000 1.0
C      1  0.4177970000000  0.4495190000000  0.5256110000000 1.0
C      1  0.4374380000000  0.5084790000000  0.4298130000000 1.0
C      1  0.5754440000000  0.5419040000000  0.5451720000000 1.0
C      1  0.4988520000000  0.4978410000000  0.5357850000000 1.0
C      1  0.5275880000000  0.4985400000000  0.4890430000000 1.0
C      1  0.5292440000000  0.4329220000000  0.5738510000000 1.0
C      1  0.5271470000000  0.5247140000000  0.5441040000000 1.0
C      1  0.4281230000000  0.5189490000000  0.4940370000000 1.0
C      1  0.5314190000000  0.4910090000000  0.5427710000000 1.0
C      1  0.5787540000000  0.4473380000000  0.5368560000000 1.0
C      1  0.4558990000000  0.4681050000000  0.5740970000000 1.0
C      1  0.5246170000000  0.4658320000000  0.4909150000000 1.0
C      1  0.4752710000000  0.5446660000000  0.4370480000000 1.0
C      1  0.4994060000000  0.6145610000000  0.4233230000000 1.0
C      1  0.5264580000000  0.5461690000000  0.4220070000000 1.0
C      1  0.4324470000000  0.5361640000000  0.4663160000000 1.0
C      1  0.5045890000000  0.4075020000000  0.4629600000000 1.0
C      1  0.5226750000000  0.5116490000000  0.5755220000000 1.0
C      1  0.4354570000000  0.4281700000000  0.5343280000000 1.0
C      1  0.4118850000000  0.4894520000000  0.4912970000000 1.0
C      1  0.4553230000000  0.5705090000000  0.5005740000000 1.0
C      1  0.4939440000000  0.5516730000000  0.5043220000000 1.0
C      1  0.5143820000000  0.5184800000000  0.5132110000000 1.0
C      1  0.5044450000000  0.4474440000000  0.4607670000000 1.0
C      1  0.4311340000000  0.5104210000000  0.5836420000000 1.0
C      1  0.5179690000000  0.4961280000000  0.4441480000000 1.0
C      1  0.4992230000000  0.4792020000000  0.5091840000000 1.0
C      1  0.4534230000000  0.5448770000000  0.5491620000000 1.0
C      1  0.5477410000000  0.4518370000000  0.4749700000000 1.0
C      1  0.4577010000000  0.5139290000000  0.5084550000000 1.0
C      1  0.4565850000000  0.5258350000000  0.5771800000000 1.0
C      1  0.4998470000000  0.5607370000000  0.4216560000000 1.0
C      1  0.4441390000000  0.4065760000000  0.4428510000000 1.0
C      1  0.5253030000000  0.4094010000000  0.5601210000000 1.0
C      1  0.4637990000000  0.4259870000000  0.5374280000000 1.0
C      1  0.5402930000000  0.5814600000000  0.5189000000000 1.0
C      1  0.4847730000000  0.5127530000000  0.4300120000000 1.0
C      1  0.5445520000000  0.5531010000000  0.5372270000000 1.0
C      1  0.5870750000000  0.5044350000000  0.5148100000000 1.0
C      1  0.5044670000000  0.4287940000000  0.4894730000000 1.0
C      1  0.6092560000000  0.5264880000000  0.4554870000000 1.0
C      1  0.4922470000000  0.3885020000000  0.4513470000000 1.0
C      1  0.4961650000000  0.5890240000000  0.4305890000000 1.0
C      1  0.5820600000000  0.5237990000000  0.4584420000000 1.0
C      1  0.5059600000000  0.5080800000000  0.4080210000000 1.0
C      1  0.5310170000000  0.4263850000000  0.4598430000000 1.0
C      1  0.4556980000000  0.4667650000000  0.5129090000000 1.0
C      1  0.5161180000000  0.5870800000000  0.5050460000000 1.0
C      1  0.4787430000000  0.4829460000000  0.4452580000000 1.0
C      1  0.4504440000000  0.4368190000000  0.4976610000000 1.0
C      1  0.5562450000000  0.4918550000000  0.4334040000000 1.0
C      1  0.5559420000000  0.4996090000000  0.5020250000000 1.0
C      1  0.5118730000000  0.4051710000000  0.5355030000000 1.0
C      1  0.4144990000000  0.5003260000000  0.4615260000000 1.0
C      1  0.5449020000000  0.4219150000000  0.4908920000000 1.0
C      1  0.5096360000000  0.5869950000000  0.4778790000000 1.0
C      1  0.5060490000000  0.4657760000000  0.4345010000000 1.0
C      1  0.5048560000000  0.4474110000000  0.5179440000000 1.0
C      1  0.5702800000000  0.5258050000000  0.4857170000000 1.0
C      1  0.4982370000000  0.4927990000000  0.4716430000000 1.0
C      1  0.4166730000000  0.4719060000000  0.5433500000000 1.0
C      1  0.4831310000000  0.4052410000000  0.5366310000000 1.0
C      1  0.5084750000000  0.4814180000000  0.5740060000000 1.0
C      1  0.5258560000000  0.4579830000000  0.5644960000000 1.0
C      1  0.5627860000000  0.4743810000000  0.5248670000000 1.0
C      1  0.4638900000000  0.5418920000000  0.5002080000000 1.0
C      1  0.4270400000000  0.4617850000000  0.4952690000000 1.0
C      1  0.5094670000000  0.5707780000000  0.5445210000000 1.0
C      1  0.4596440000000  0.5139560000000  0.5391310000000 1.0
C      1  0.4126120000000  0.5193870000000  0.5999130000000 1.0
C      1  0.4881930000000  0.5253270000000  0.5527250000000 1.0
C      1  0.5471060000000  0.5402100000000  0.5058630000000 1.0
C      1  0.5875520000000  0.4751190000000  0.5015780000000 1.0
C      1  0.5633570000000  0.4955600000000  0.5535200000000 1.0
C      1  0.4459660000000  0.5311930000000  0.4431520000000 1.0
C      1  0.5655790000000  0.5180410000000  0.4359900000000 1.0
C      1  0.5052600000000  0.5445020000000  0.4659050000000 1.0
C      1  0.4817620000000  0.5711770000000  0.5580180000000 1.0
C      1  0.4539840000000  0.4819670000000  0.4244320000000 1.0
C      1  0.5507270000000  0.5033400000000  0.5814430000000 1.0
C      1  0.5803050000000  0.4646590000000  0.4777430000000 1.0
C      1  0.5530510000000  0.5380350000000  0.4197550000000 1.0
C      1  0.4587680000000  0.5738360000000  0.5342920000000 1.0
C      1  0.4270330000000  0.4782680000000  0.4420530000000 1.0
C      1  0.5240050000000  0.5504860000000  0.4911200000000 1.0
C      1  0.5821560000000  0.5155730000000  0.5404160000000 1.0
C      1  0.5286600000000  0.5625740000000  0.5657630000000 1.0
C      1  0.5326150000000  0.4605810000000  0.5323690000000 1.0
C      1  0.4716890000000  0.4875140000000  0.4922400000000 1.0
C      1  0.4430630000000  0.4882670000000  0.5354190000000 1.0
C      1  0.4870740000000  0.5710850000000  0.4580090000000 1.0
C      1  0.5659310000000  0.5828150000000  0.5045230000000 1.0
C      1  0.4891450000000  0.5790470000000  0.5198780000000 1.0
C      1  0.4491650000000  0.4295370000000  0.4522580000000 1.0
C      1  0.4775660000000  0.5517510000000  0.5802240000000 1.0
C      1  0.4959540000000  0.5228320000000  0.4864130000000 1.0
C      1  0.5742970000000  0.5570140000000  0.4986280000000 1.0
C      1  0.4303280000000  0.4843580000000  0.5698700000000 1.0
END
