TITL C-2848499-1157-65 -0.00452174635795801 125000 -555.062847909888 0 0 103 (C1) n - 1
REM
REM in /home/bkarasulu/work/CARBON/AIRSS/Generating-Clusters/AIREBO/with-SteepDescent/Only-C1/SD-CG-opt/Try1-1.4A-POS3A/HFTN-CG
REM
REM
REM
REM
REM
REM ./C.cell (11c1c37f851c82e70ff6c80c92926a4b)
REM
REM compiler GCC version 9.2.1 20190827 (Red Hat 9.2.1-1)
REM options -cpp -mtune=generic -march=x86-64 -g -O0 -fpre-include=/usr/include/finclude/math-vector-fortran.h
REM seed -1878483512 1137203300 1543689272 -680774785 669609312 -857817632 178540860 1456917979 570770595 -431338726 -1054777747 1281973464 1516489035 -723107106 -1966614943 -1141283076 1331636216 -1121087568 -1725505747 178048851 -884568632 -167346266 -65466996 651269519 84525862 1807362001 -1440101408 2121210313 664734134 933533559 -1708659490 1886411174 -496311527
REM
CELL 1.54180   50.00000   50.00000   50.00000   90.00000   90.00000   90.00000
LATT -1
SFAC C  
C      1  0.4547700000000  0.4908640000000  0.4897110000000 1.0
C      1  0.4451780000000  0.4301260000000  0.4962160000000 1.0
C      1  0.4986990000000  0.4370370000000  0.4863130000000 1.0
C      1  0.4537590000000  0.4529620000000  0.5572130000000 1.0
C      1  0.5026800000000  0.5925140000000  0.5405490000000 1.0
C      1  0.4847720000000  0.4494750000000  0.4578800000000 1.0
C      1  0.5631940000000  0.5299430000000  0.4475160000000 1.0
C      1  0.5523610000000  0.4528680000000  0.5329150000000 1.0
C      1  0.4528120000000  0.5664760000000  0.5360500000000 1.0
C      1  0.4744620000000  0.4163850000000  0.5305320000000 1.0
C      1  0.4212380000000  0.4756810000000  0.5299460000000 1.0
C      1  0.5455300000000  0.5525800000000  0.4627750000000 1.0
C      1  0.4702950000000  0.4585850000000  0.4342420000000 1.0
C      1  0.4910100000000  0.4890610000000  0.5539830000000 1.0
C      1  0.5464780000000  0.4863640000000  0.4852190000000 1.0
C      1  0.5515920000000  0.5114040000000  0.5751390000000 1.0
C      1  0.5516460000000  0.4274780000000  0.5139890000000 1.0
C      1  0.5822290000000  0.5212160000000  0.4712000000000 1.0
C      1  0.4884610000000  0.5895470000000  0.4915160000000 1.0
C      1  0.4708940000000  0.5540240000000  0.4875540000000 1.0
C      1  0.4484620000000  0.4335860000000  0.5365390000000 1.0
C      1  0.4205780000000  0.5489110000000  0.4713200000000 1.0
C      1  0.5853320000000  0.4953980000000  0.4833860000000 1.0
C      1  0.5454290000000  0.5110660000000  0.4254150000000 1.0
C      1  0.5222470000000  0.5374810000000  0.4811790000000 1.0
C      1  0.4236200000000  0.4957860000000  0.5024890000000 1.0
C      1  0.4681630000000  0.5434130000000  0.5396380000000 1.0
C      1  0.5336830000000  0.5661430000000  0.5105350000000 1.0
C      1  0.5212510000000  0.5220310000000  0.4549560000000 1.0
C      1  0.4993850000000  0.4140990000000  0.5530450000000 1.0
C      1  0.4458130000000  0.5624700000000  0.4576200000000 1.0
C      1  0.5063300000000  0.3733730000000  0.4496200000000 1.0
C      1  0.4806890000000  0.4784310000000  0.5171120000000 1.0
C      1  0.5833940000000  0.5398760000000  0.4927690000000 1.0
C      1  0.4914220000000  0.5339850000000  0.4261940000000 1.0
C      1  0.4475720000000  0.4593770000000  0.4790160000000 1.0
C      1  0.4662450000000  0.5218670000000  0.4817260000000 1.0
C      1  0.5178930000000  0.5165820000000  0.5451450000000 1.0
C      1  0.5435890000000  0.4964100000000  0.4560670000000 1.0
C      1  0.5172520000000  0.5555280000000  0.5372710000000 1.0
C      1  0.5102980000000  0.5432240000000  0.5746270000000 1.0
C      1  0.5380820000000  0.4004230000000  0.4739850000000 1.0
C      1  0.5165370000000  0.5001760000000  0.4940810000000 1.0
C      1  0.5060090000000  0.4946930000000  0.5239380000000 1.0
C      1  0.4809890000000  0.4596820000000  0.5599970000000 1.0
C      1  0.4370350000000  0.5239610000000  0.4644420000000 1.0
C      1  0.5540430000000  0.4860050000000  0.5551970000000 1.0
C      1  0.4513670000000  0.4803030000000  0.4346960000000 1.0
C      1  0.5551660000000  0.4792290000000  0.4293970000000 1.0
C      1  0.5066980000000  0.4418950000000  0.5646120000000 1.0
C      1  0.5067270000000  0.5853950000000  0.5125450000000 1.0
C      1  0.5120240000000  0.5079120000000  0.4189200000000 1.0
C      1  0.5658860000000  0.5560700000000  0.5152390000000 1.0
C      1  0.4681220000000  0.4152830000000  0.5000810000000 1.0
C      1  0.5114120000000  0.3923770000000  0.4680950000000 1.0
C      1  0.4347360000000  0.4750360000000  0.5561670000000 1.0
C      1  0.5212530000000  0.5445390000000  0.4319800000000 1.0
C      1  0.4451860000000  0.4976510000000  0.5696380000000 1.0
C      1  0.5343840000000  0.5321440000000  0.5099840000000 1.0
C      1  0.4576550000000  0.5890750000000  0.4752460000000 1.0
C      1  0.5045710000000  0.4938120000000  0.4489610000000 1.0
C      1  0.5409880000000  0.4774660000000  0.5154040000000 1.0
C      1  0.5509240000000  0.5503500000000  0.4232430000000 1.0
C      1  0.4221450000000  0.4997850000000  0.4687430000000 1.0
C      1  0.4601930000000  0.5141900000000  0.5498520000000 1.0
C      1  0.4958190000000  0.5246640000000  0.4983140000000 1.0
C      1  0.5490310000000  0.5493320000000  0.5429680000000 1.0
C      1  0.5015570000000  0.5704510000000  0.4381920000000 1.0
C      1  0.4366800000000  0.5787540000000  0.5543060000000 1.0
C      1  0.4787550000000  0.4815430000000  0.4674610000000 1.0
C      1  0.4424580000000  0.5448340000000  0.5042100000000 1.0
C      1  0.4617300000000  0.5072780000000  0.4253430000000 1.0
C      1  0.4325350000000  0.4531550000000  0.5143840000000 1.0
C      1  0.5100720000000  0.4739300000000  0.4759010000000 1.0
C      1  0.4613500000000  0.4935200000000  0.5933200000000 1.0
C      1  0.4596370000000  0.5435300000000  0.4348830000000 1.0
C      1  0.4826570000000  0.5022260000000  0.4044060000000 1.0
C      1  0.5113750000000  0.4678910000000  0.5846180000000 1.0
C      1  0.5525250000000  0.5778740000000  0.4606310000000 1.0
C      1  0.4749330000000  0.4577040000000  0.4991320000000 1.0
C      1  0.5469570000000  0.5076370000000  0.5299250000000 1.0
C      1  0.5770940000000  0.4762030000000  0.5321380000000 1.0
C      1  0.4542210000000  0.5760020000000  0.5065760000000 1.0
C      1  0.4181240000000  0.5291640000000  0.4989750000000 1.0
C      1  0.4901700000000  0.5214780000000  0.5642130000000 1.0
C      1  0.5823450000000  0.4951190000000  0.5119430000000 1.0
C      1  0.4349490000000  0.4779450000000  0.4571400000000 1.0
C      1  0.4604860000000  0.4998150000000  0.5220250000000 1.0
C      1  0.5756200000000  0.5242580000000  0.5222600000000 1.0
C      1  0.5232760000000  0.4218350000000  0.5042740000000 1.0
C      1  0.4843760000000  0.5723980000000  0.4624430000000 1.0
C      1  0.5142410000000  0.4600650000000  0.5059530000000 1.0
C      1  0.5582580000000  0.4073500000000  0.4919770000000 1.0
C      1  0.5342150000000  0.5307950000000  0.5833130000000 1.0
C      1  0.5618190000000  0.4573560000000  0.4185300000000 1.0
C      1  0.5729090000000  0.4724440000000  0.4689800000000 1.0
C      1  0.5033020000000  0.4337450000000  0.5256650000000 1.0
C      1  0.5356840000000  0.4596510000000  0.5620120000000 1.0
C      1  0.4958480000000  0.5352030000000  0.5271500000000 1.0
C      1  0.4760260000000  0.5209560000000  0.4520880000000 1.0
C      1  0.4905860000000  0.4041520000000  0.4832510000000 1.0
C      1  0.4887530000000  0.4872350000000  0.5876220000000 1.0
C      1  0.5067890000000  0.5714300000000  0.5629050000000 1.0
END
