TITL C-2847958-8115-206 0.000220166645351535 125000 -282.726951691186 0 0 51 (C1) n - 1
REM
REM in /home/bkarasulu/work/CARBON/AIRSS/Generating-Clusters/AIREBO/with-SteepDescent/Only-C1/SD-CG-opt/Try1-1.4A-POS3A/HFTN-CG
REM
REM
REM
REM
REM
REM ./C.cell (11c1c37f851c82e70ff6c80c92926a4b)
REM
REM compiler GCC version 9.2.1 20190827 (Red Hat 9.2.1-1)
REM options -cpp -mtune=generic -march=x86-64 -g -O0 -fpre-include=/usr/include/finclude/math-vector-fortran.h
REM seed -927518544 220994099 1946974547 1318628193 -571772747 1118952781 -903048289 1817844031 -1839734444 -1865565446 -557182110 1746823036 2019323606 1668123280 492042046 -75612209 -2071632643 -1463361873 -1762473669 -801360084 -230921599 906887047 1253160878 -95317630 -1445816823 -1080756720 -215934232 -75868564 668594488 -441824002 381298993 -1918652715 375728178
REM
CELL 1.54180   50.00000   50.00000   50.00000   90.00000   90.00000   90.00000
LATT -1
SFAC C  
C      1  0.5345660000000  0.5348230000000  0.5069590000000 1.0
C      1  0.5809410000000  0.5391420000000  0.5266890000000 1.0
C      1  0.4433130000000  0.4701880000000  0.4914800000000 1.0
C      1  0.5354260000000  0.5091900000000  0.4854440000000 1.0
C      1  0.5448740000000  0.4747000000000  0.5679400000000 1.0
C      1  0.5023020000000  0.5132640000000  0.4344970000000 1.0
C      1  0.5643610000000  0.4965360000000  0.5099240000000 1.0
C      1  0.5007290000000  0.5538410000000  0.4856210000000 1.0
C      1  0.4928620000000  0.5741850000000  0.5084110000000 1.0
C      1  0.4836400000000  0.4547760000000  0.4643100000000 1.0
C      1  0.4975650000000  0.4666330000000  0.5605310000000 1.0
C      1  0.5281510000000  0.4482920000000  0.4980060000000 1.0
C      1  0.5257670000000  0.5672090000000  0.5136210000000 1.0
C      1  0.4619250000000  0.4568130000000  0.4417020000000 1.0
C      1  0.5210890000000  0.5470000000000  0.5925270000000 1.0
C      1  0.4738770000000  0.4739820000000  0.4873300000000 1.0
C      1  0.5189950000000  0.5483650000000  0.5406840000000 1.0
C      1  0.5210400000000  0.5469210000000  0.5663210000000 1.0
C      1  0.5130880000000  0.4853210000000  0.4350080000000 1.0
C      1  0.4369380000000  0.4575480000000  0.5154540000000 1.0
C      1  0.5618140000000  0.5228460000000  0.5158900000000 1.0
C      1  0.5075460000000  0.4311050000000  0.5031150000000 1.0
C      1  0.4782090000000  0.4913820000000  0.5162230000000 1.0
C      1  0.5320780000000  0.4588140000000  0.4689210000000 1.0
C      1  0.4857750000000  0.4285640000000  0.4795690000000 1.0
C      1  0.4330460000000  0.4858770000000  0.4703950000000 1.0
C      1  0.4750210000000  0.4832650000000  0.5462460000000 1.0
C      1  0.4701270000000  0.4521270000000  0.5499540000000 1.0
C      1  0.5467860000000  0.5187950000000  0.4589870000000 1.0
C      1  0.4461970000000  0.4789990000000  0.4425910000000 1.0
C      1  0.4634500000000  0.5385560000000  0.5264710000000 1.0
C      1  0.4754100000000  0.4271970000000  0.5097700000000 1.0
C      1  0.5401200000000  0.4980670000000  0.4346970000000 1.0
C      1  0.5103240000000  0.4641270000000  0.4529470000000 1.0
C      1  0.4574190000000  0.5061520000000  0.4583620000000 1.0
C      1  0.5441250000000  0.5868010000000  0.5073160000000 1.0
C      1  0.4579320000000  0.4410760000000  0.5267570000000 1.0
C      1  0.5723260000000  0.5299190000000  0.4589680000000 1.0
C      1  0.4835300000000  0.5043110000000  0.4792490000000 1.0
C      1  0.4770660000000  0.5258690000000  0.4462810000000 1.0
C      1  0.4703820000000  0.5649560000000  0.5230720000000 1.0
C      1  0.5235550000000  0.5332630000000  0.4439600000000 1.0
C      1  0.4553890000000  0.5121280000000  0.5268270000000 1.0
C      1  0.5228610000000  0.4752550000000  0.5525840000000 1.0
C      1  0.5069770000000  0.5055770000000  0.5038470000000 1.0
C      1  0.4990060000000  0.5433090000000  0.4604250000000 1.0
C      1  0.4323800000000  0.4998120000000  0.5373010000000 1.0
C      1  0.4219400000000  0.4744900000000  0.5327320000000 1.0
C      1  0.5441410000000  0.4779650000000  0.4935220000000 1.0
C      1  0.5014130000000  0.5357850000000  0.5144420000000 1.0
C      1  0.5222080000000  0.4848800000000  0.5261190000000 1.0
END
