TITL C-2848502-4955-199 0.000470171220136255 125000 -483.701787478714 0 0 90 (C1) n - 1
REM
REM in /home/bkarasulu/work/CARBON/AIRSS/Generating-Clusters/AIREBO/with-SteepDescent/Only-C1/SD-CG-opt/Try1-1.4A-POS3A/HFTN-CG
REM
REM
REM
REM
REM
REM ./C.cell (11c1c37f851c82e70ff6c80c92926a4b)
REM
REM compiler GCC version 9.2.1 20190827 (Red Hat 9.2.1-1)
REM options -cpp -mtune=generic -march=x86-64 -g -O0 -fpre-include=/usr/include/finclude/math-vector-fortran.h
REM seed -305911915 1331335504 -1963805799 860295251 -1718839148 -606155322 -1174402688 -291700312 -1146419686 -1131907324 1948568727 1853115102 1353416455 -46196347 343858816 988996048 577507165 -631370750 -20190957 -287133675 -135439260 -481003787 2075413210 -1763102965 -1241681502 1462873843 -1051983063 1233008452 -387368083 387900131 -1926854074 1029440117 731113354
REM
CELL 1.54180   50.00000   50.00000   50.00000   90.00000   90.00000   90.00000
LATT -1
SFAC C  
C      1  0.4473560000000  0.4143070000000  0.5202010000000 1.0
C      1  0.5205450000000  0.5604290000000  0.5435190000000 1.0
C      1  0.4461640000000  0.5262750000000  0.4497590000000 1.0
C      1  0.4987570000000  0.4719640000000  0.4511000000000 1.0
C      1  0.4914910000000  0.4397850000000  0.4593940000000 1.0
C      1  0.3967830000000  0.5127110000000  0.4848900000000 1.0
C      1  0.4655020000000  0.4504930000000  0.4459710000000 1.0
C      1  0.5650320000000  0.4530310000000  0.4852130000000 1.0
C      1  0.5160180000000  0.4144770000000  0.4972360000000 1.0
C      1  0.4984760000000  0.5394050000000  0.5488870000000 1.0
C      1  0.5215330000000  0.5289000000000  0.4643220000000 1.0
C      1  0.5611700000000  0.4937130000000  0.4403190000000 1.0
C      1  0.4491710000000  0.4865420000000  0.5132000000000 1.0
C      1  0.5581980000000  0.4497410000000  0.5119210000000 1.0
C      1  0.4867740000000  0.5645830000000  0.4660720000000 1.0
C      1  0.4620610000000  0.4645750000000  0.5357600000000 1.0
C      1  0.5365880000000  0.4821400000000  0.5734390000000 1.0
C      1  0.5250140000000  0.4587000000000  0.4915460000000 1.0
C      1  0.4579810000000  0.5558520000000  0.4502240000000 1.0
C      1  0.5011660000000  0.5059030000000  0.4999380000000 1.0
C      1  0.5033140000000  0.5432670000000  0.4862440000000 1.0
C      1  0.5385210000000  0.5430510000000  0.4378240000000 1.0
C      1  0.4677550000000  0.5296160000000  0.5388830000000 1.0
C      1  0.5665050000000  0.5383570000000  0.4654890000000 1.0
C      1  0.4486530000000  0.5018250000000  0.4304780000000 1.0
C      1  0.4722920000000  0.4504100000000  0.5649460000000 1.0
C      1  0.4969680000000  0.4910750000000  0.4149910000000 1.0
C      1  0.4867840000000  0.4289890000000  0.4912480000000 1.0
C      1  0.5077200000000  0.5367280000000  0.4356600000000 1.0
C      1  0.4496260000000  0.5784880000000  0.4711730000000 1.0
C      1  0.5321340000000  0.4782030000000  0.4489450000000 1.0
C      1  0.4718110000000  0.4989900000000  0.4629340000000 1.0
C      1  0.5316580000000  0.5553240000000  0.5731490000000 1.0
C      1  0.4418000000000  0.4544970000000  0.4683730000000 1.0
C      1  0.4920190000000  0.5647610000000  0.4328230000000 1.0
C      1  0.5350640000000  0.5831840000000  0.4718680000000 1.0
C      1  0.4916080000000  0.4994650000000  0.5807400000000 1.0
C      1  0.5103740000000  0.5822090000000  0.4814850000000 1.0
C      1  0.5275770000000  0.5270500000000  0.5037450000000 1.0
C      1  0.4441860000000  0.5048400000000  0.5686550000000 1.0
C      1  0.5518650000000  0.5648960000000  0.4597670000000 1.0
C      1  0.5227400000000  0.4818120000000  0.4167610000000 1.0
C      1  0.3732290000000  0.5239300000000  0.4873630000000 1.0
C      1  0.4696500000000  0.4698640000000  0.4804200000000 1.0
C      1  0.5521960000000  0.4875940000000  0.5005430000000 1.0
C      1  0.5700800000000  0.4952260000000  0.5460790000000 1.0
C      1  0.4635280000000  0.4093840000000  0.4985910000000 1.0
C      1  0.4755410000000  0.5523410000000  0.5698380000000 1.0
C      1  0.5505310000000  0.4319830000000  0.5833010000000 1.0
C      1  0.4676870000000  0.5745070000000  0.5796850000000 1.0
C      1  0.5643740000000  0.4737450000000  0.5291140000000 1.0
C      1  0.5340220000000  0.5002860000000  0.4747300000000 1.0
C      1  0.5545290000000  0.5241730000000  0.4862330000000 1.0
C      1  0.5189880000000  0.5035260000000  0.5855060000000 1.0
C      1  0.5291260000000  0.4921740000000  0.5251500000000 1.0
C      1  0.4603710000000  0.5853630000000  0.4927480000000 1.0
C      1  0.5328570000000  0.5291320000000  0.5786860000000 1.0
C      1  0.5833970000000  0.4833360000000  0.4541450000000 1.0
C      1  0.5626010000000  0.5213720000000  0.4386290000000 1.0
C      1  0.4872620000000  0.5748170000000  0.5046690000000 1.0
C      1  0.5388340000000  0.5356920000000  0.5312820000000 1.0
C      1  0.4720380000000  0.4768490000000  0.4297790000000 1.0
C      1  0.5934590000000  0.5052200000000  0.5556830000000 1.0
C      1  0.4811080000000  0.5430450000000  0.5109000000000 1.0
C      1  0.5413640000000  0.4493470000000  0.4644690000000 1.0
C      1  0.5787020000000  0.4781300000000  0.4809870000000 1.0
C      1  0.5405990000000  0.5090510000000  0.5523590000000 1.0
C      1  0.5675410000000  0.5472540000000  0.5285880000000 1.0
C      1  0.5446900000000  0.4571840000000  0.5790870000000 1.0
C      1  0.4681230000000  0.5123240000000  0.5048630000000 1.0
C      1  0.5332660000000  0.4344110000000  0.5138750000000 1.0
C      1  0.4248490000000  0.4634980000000  0.5215480000000 1.0
C      1  0.5085670000000  0.5835200000000  0.5273270000000 1.0
C      1  0.4917830000000  0.4845250000000  0.5368810000000 1.0
C      1  0.4863370000000  0.4760240000000  0.5656110000000 1.0
C      1  0.5038850000000  0.5136630000000  0.5329290000000 1.0
C      1  0.4207320000000  0.5019940000000  0.4849210000000 1.0
C      1  0.4706280000000  0.5403410000000  0.4227170000000 1.0
C      1  0.4716460000000  0.5201940000000  0.5714370000000 1.0
C      1  0.5009370000000  0.4800580000000  0.4840140000000 1.0
C      1  0.5179080000000  0.3874190000000  0.5024550000000 1.0
C      1  0.4421180000000  0.4837800000000  0.5555070000000 1.0
C      1  0.4403090000000  0.4391820000000  0.5295370000000 1.0
C      1  0.4863850000000  0.5133220000000  0.4362910000000 1.0
C      1  0.4279910000000  0.4727380000000  0.4908490000000 1.0
C      1  0.5101790000000  0.4655850000000  0.5199890000000 1.0
C      1  0.5187610000000  0.4272000000000  0.4677920000000 1.0
C      1  0.4812210000000  0.4559090000000  0.5090290000000 1.0
C      1  0.4423270000000  0.4838400000000  0.4553600000000 1.0
C      1  0.4469890000000  0.5153860000000  0.4794120000000 1.0
END
