TITL C-2847957-7266-327 -0.000176835119592631 125000 -433.837925989201 0 0 80 (C1) n - 1
REM
REM in /home/bkarasulu/work/CARBON/AIRSS/Generating-Clusters/AIREBO/with-SteepDescent/Only-C1/SD-CG-opt/Try1-1.4A-POS3A/HFTN-CG
REM
REM
REM
REM
REM
REM ./C.cell (11c1c37f851c82e70ff6c80c92926a4b)
REM
REM compiler GCC version 9.2.1 20190827 (Red Hat 9.2.1-1)
REM options -cpp -mtune=generic -march=x86-64 -g -O0 -fpre-include=/usr/include/finclude/math-vector-fortran.h
REM seed -1795951795 885940313 912961409 -1937214893 -996072909 -15996242 -452518007 1473455223 -2139935650 -1038094137 357599145 -1679170946 -1663967396 -890816871 781363706 -610896397 18232798 -1401646266 2140382201 1541357997 1883788607 1800040609 416598424 1824427 1048018572 -1584030458 -1418387881 1126429348 1384647449 -1234872492 -2000067315 96191021 1108649521
REM
CELL 1.54180   50.00000   50.00000   50.00000   90.00000   90.00000   90.00000
LATT -1
SFAC C  
C      1  0.5960410000000  0.5309630000000  0.5314370000000 1.0
C      1  0.4806250000000  0.4764490000000  0.5158320000000 1.0
C      1  0.5181150000000  0.5271170000000  0.4160100000000 1.0
C      1  0.5412770000000  0.4303050000000  0.5214880000000 1.0
C      1  0.5382850000000  0.4063330000000  0.4973760000000 1.0
C      1  0.4937760000000  0.4762470000000  0.5615320000000 1.0
C      1  0.5282760000000  0.5019420000000  0.5738060000000 1.0
C      1  0.5077660000000  0.4199920000000  0.4947430000000 1.0
C      1  0.4104660000000  0.5127860000000  0.4954300000000 1.0
C      1  0.5123120000000  0.5041380000000  0.5128570000000 1.0
C      1  0.4360570000000  0.5408860000000  0.5229780000000 1.0
C      1  0.4548440000000  0.4863520000000  0.4376390000000 1.0
C      1  0.5402650000000  0.4991830000000  0.4833730000000 1.0
C      1  0.4674580000000  0.5741330000000  0.5261470000000 1.0
C      1  0.5142260000000  0.6045520000000  0.4958550000000 1.0
C      1  0.5813870000000  0.4644160000000  0.4680990000000 1.0
C      1  0.5610200000000  0.4693070000000  0.4408480000000 1.0
C      1  0.5307670000000  0.4205570000000  0.4674090000000 1.0
C      1  0.4365880000000  0.4668170000000  0.5284590000000 1.0
C      1  0.5305790000000  0.5186370000000  0.5376090000000 1.0
C      1  0.4399470000000  0.4203770000000  0.4759250000000 1.0
C      1  0.4113430000000  0.5342130000000  0.5121130000000 1.0
C      1  0.4664100000000  0.5255190000000  0.5718730000000 1.0
C      1  0.5638410000000  0.4924590000000  0.4655890000000 1.0
C      1  0.5310530000000  0.4548560000000  0.5338930000000 1.0
C      1  0.5070530000000  0.4431440000000  0.4720880000000 1.0
C      1  0.4576040000000  0.5224840000000  0.5216870000000 1.0
C      1  0.4958590000000  0.5275800000000  0.4974670000000 1.0
C      1  0.5345790000000  0.6160460000000  0.5162460000000 1.0
C      1  0.5058980000000  0.4504660000000  0.5508490000000 1.0
C      1  0.5117260000000  0.4575820000000  0.4344150000000 1.0
C      1  0.4478470000000  0.5041820000000  0.5739510000000 1.0
C      1  0.5085730000000  0.4839240000000  0.4286960000000 1.0
C      1  0.5543540000000  0.4715040000000  0.5457630000000 1.0
C      1  0.5294980000000  0.5254540000000  0.4679170000000 1.0
C      1  0.4595710000000  0.4217260000000  0.4990870000000 1.0
C      1  0.5584960000000  0.5029000000000  0.4349340000000 1.0
C      1  0.5374560000000  0.4471020000000  0.4465190000000 1.0
C      1  0.4403680000000  0.5008010000000  0.4845480000000 1.0
C      1  0.4970030000000  0.5074390000000  0.4144870000000 1.0
C      1  0.4719260000000  0.5033890000000  0.4974660000000 1.0
C      1  0.4390210000000  0.5057330000000  0.4547390000000 1.0
C      1  0.4705760000000  0.5438060000000  0.4513880000000 1.0
C      1  0.4903700000000  0.5328970000000  0.4657890000000 1.0
C      1  0.4657140000000  0.4516980000000  0.5051490000000 1.0
C      1  0.5635770000000  0.4942760000000  0.5483860000000 1.0
C      1  0.4486970000000  0.4532810000000  0.4771540000000 1.0
C      1  0.5027790000000  0.5044680000000  0.5514490000000 1.0
C      1  0.5195400000000  0.4722360000000  0.4825160000000 1.0
C      1  0.5378780000000  0.5227520000000  0.4362360000000 1.0
C      1  0.4852730000000  0.4181520000000  0.5139910000000 1.0
C      1  0.5259940000000  0.5430090000000  0.4941630000000 1.0
C      1  0.4316100000000  0.4708310000000  0.4986250000000 1.0
C      1  0.4849690000000  0.4327000000000  0.5380990000000 1.0
C      1  0.5491170000000  0.5717980000000  0.5318610000000 1.0
C      1  0.4042490000000  0.4849310000000  0.4906770000000 1.0
C      1  0.5273380000000  0.5322490000000  0.5686050000000 1.0
C      1  0.4799990000000  0.5245110000000  0.5448680000000 1.0
C      1  0.4685180000000  0.4623470000000  0.5435030000000 1.0
C      1  0.5699040000000  0.5222800000000  0.5313350000000 1.0
C      1  0.4874160000000  0.5488370000000  0.5222980000000 1.0
C      1  0.4422730000000  0.5672290000000  0.5301530000000 1.0
C      1  0.4536020000000  0.5261350000000  0.4375220000000 1.0
C      1  0.5569720000000  0.4338070000000  0.4944840000000 1.0
C      1  0.5490670000000  0.5046370000000  0.5127150000000 1.0
C      1  0.4900710000000  0.4869270000000  0.4738610000000 1.0
C      1  0.4686300000000  0.5075280000000  0.4172200000000 1.0
C      1  0.5122980000000  0.4721390000000  0.5143730000000 1.0
C      1  0.5087540000000  0.5474050000000  0.5828350000000 1.0
C      1  0.5075070000000  0.6195840000000  0.4737360000000 1.0
C      1  0.5493800000000  0.4569200000000  0.4768090000000 1.0
C      1  0.4679280000000  0.4673480000000  0.4574610000000 1.0
C      1  0.5515970000000  0.5983450000000  0.5282480000000 1.0
C      1  0.5189690000000  0.5719050000000  0.4953060000000 1.0
C      1  0.5457440000000  0.5437210000000  0.5203760000000 1.0
C      1  0.4446100000000  0.4817550000000  0.5579330000000 1.0
C      1  0.4932310000000  0.5827450000000  0.5110130000000 1.0
C      1  0.4821790000000  0.5415430000000  0.5890490000000 1.0
C      1  0.5057350000000  0.5063450000000  0.4534340000000 1.0
C      1  0.4883810000000  0.4469340000000  0.4481980000000 1.0
END
