TITL C-2847956-8218-497 -0.00082872930983613 125000 -1061.67328035658 0 0 200 (C1) n - 1
REM
REM in /home/bkarasulu/work/CARBON/AIRSS/Generating-Clusters/AIREBO/with-SteepDescent/Only-C1/SD-CG-opt/Try1-1.4A-POS3A/HFTN-CG
REM
REM
REM
REM
REM
REM ./C.cell (11c1c37f851c82e70ff6c80c92926a4b)
REM
REM compiler GCC version 9.2.1 20190827 (Red Hat 9.2.1-1)
REM options -cpp -mtune=generic -march=x86-64 -g -O0 -fpre-include=/usr/include/finclude/math-vector-fortran.h
REM seed 1206353821 1899436117 -60376184 -894281783 -711295981 1798302743 -492513588 -718194530 1369513514 774349902 2138603280 -1666959687 915076884 1370865449 2109164369 1689760860 -1741699809 1767664203 346441328 1039588304 2064144303 1882002954 -354831804 -2090144362 -1883606158 -1421326003 350843035 1631811738 1335014137 532284256 31106979 -1448407708 -820002593
REM
CELL 1.54180   50.00000   50.00000   50.00000   90.00000   90.00000   90.00000
LATT -1
SFAC C  
C      1  0.5550450000000  0.5307370000000  0.5269380000000 1.0
C      1  0.5199940000000  0.4649440000000  0.4340230000000 1.0
C      1  0.4204420000000  0.4829140000000  0.5461830000000 1.0
C      1  0.5746570000000  0.5070770000000  0.4832490000000 1.0
C      1  0.5158310000000  0.5066330000000  0.4622040000000 1.0
C      1  0.4581610000000  0.5414260000000  0.4797060000000 1.0
C      1  0.4787170000000  0.4839520000000  0.4432320000000 1.0
C      1  0.4047630000000  0.4445680000000  0.5370780000000 1.0
C      1  0.4579350000000  0.5932580000000  0.4163380000000 1.0
C      1  0.3854240000000  0.4777650000000  0.4864710000000 1.0
C      1  0.4412220000000  0.4804350000000  0.6038190000000 1.0
C      1  0.5358960000000  0.4597580000000  0.5261140000000 1.0
C      1  0.5159980000000  0.4354530000000  0.5360510000000 1.0
C      1  0.5418390000000  0.4867530000000  0.5063150000000 1.0
C      1  0.4343720000000  0.5134130000000  0.4238560000000 1.0
C      1  0.4450860000000  0.4051950000000  0.4651840000000 1.0
C      1  0.4738250000000  0.5492550000000  0.5935050000000 1.0
C      1  0.5589900000000  0.4335520000000  0.4353020000000 1.0
C      1  0.4932600000000  0.4292490000000  0.4287400000000 1.0
C      1  0.4957210000000  0.4014900000000  0.5549420000000 1.0
C      1  0.5491090000000  0.5351000000000  0.4136710000000 1.0
C      1  0.5044190000000  0.4466880000000  0.5918840000000 1.0
C      1  0.4708590000000  0.4912510000000  0.5175120000000 1.0
C      1  0.5457290000000  0.4758130000000  0.6003190000000 1.0
C      1  0.4069810000000  0.5621140000000  0.4779510000000 1.0
C      1  0.4301210000000  0.5641150000000  0.5246090000000 1.0
C      1  0.5486310000000  0.5025930000000  0.6145310000000 1.0
C      1  0.5386800000000  0.4063350000000  0.4632390000000 1.0
C      1  0.6018760000000  0.5351920000000  0.5402410000000 1.0
C      1  0.4399820000000  0.5084510000000  0.5362260000000 1.0
C      1  0.4524840000000  0.5399890000000  0.5332530000000 1.0
C      1  0.4592560000000  0.5094950000000  0.3928230000000 1.0
C      1  0.5309450000000  0.5727460000000  0.4381340000000 1.0
C      1  0.4802710000000  0.6077930000000  0.4992110000000 1.0
C      1  0.4511120000000  0.4870860000000  0.4111310000000 1.0
C      1  0.5498830000000  0.3977340000000  0.5532210000000 1.0
C      1  0.4783120000000  0.4278100000000  0.5931340000000 1.0
C      1  0.4863930000000  0.5963650000000  0.4177180000000 1.0
C      1  0.4083380000000  0.5245000000000  0.4651770000000 1.0
C      1  0.5298060000000  0.5617550000000  0.4961380000000 1.0
C      1  0.5630770000000  0.4062130000000  0.5055330000000 1.0
C      1  0.4227970000000  0.4252450000000  0.4601420000000 1.0
C      1  0.4915060000000  0.4362060000000  0.5162810000000 1.0
C      1  0.4017780000000  0.5476450000000  0.5155140000000 1.0
C      1  0.6116170000000  0.4942930000000  0.4912110000000 1.0
C      1  0.4986410000000  0.4097410000000  0.4961150000000 1.0
C      1  0.5869280000000  0.5614210000000  0.5529280000000 1.0
C      1  0.5579460000000  0.5612150000000  0.4259680000000 1.0
C      1  0.4288330000000  0.5058440000000  0.4938690000000 1.0
C      1  0.4698400000000  0.4179330000000  0.4482540000000 1.0
C      1  0.5199340000000  0.5498050000000  0.5251870000000 1.0
C      1  0.3996200000000  0.5033070000000  0.4989440000000 1.0
C      1  0.3950620000000  0.5289360000000  0.5403020000000 1.0
C      1  0.4952790000000  0.4716140000000  0.6112720000000 1.0
C      1  0.4871850000000  0.5884930000000  0.5436320000000 1.0
C      1  0.4935240000000  0.4653100000000  0.3956920000000 1.0
C      1  0.5275420000000  0.4096100000000  0.5234510000000 1.0
C      1  0.5444090000000  0.4642520000000  0.4576840000000 1.0
C      1  0.4700930000000  0.4130710000000  0.5683590000000 1.0
C      1  0.4439010000000  0.4632690000000  0.4299150000000 1.0
C      1  0.5266630000000  0.4316090000000  0.4346910000000 1.0
C      1  0.4321360000000  0.5419070000000  0.5746610000000 1.0
C      1  0.4962290000000  0.5485860000000  0.5704630000000 1.0
C      1  0.5543520000000  0.5168630000000  0.4592220000000 1.0
C      1  0.5683530000000  0.4534470000000  0.5001290000000 1.0
C      1  0.3985630000000  0.4922520000000  0.4605530000000 1.0
C      1  0.3901750000000  0.5397730000000  0.4888930000000 1.0
C      1  0.3973590000000  0.5002820000000  0.5300460000000 1.0
C      1  0.5513610000000  0.4976100000000  0.4313540000000 1.0
C      1  0.5556130000000  0.5744080000000  0.5570440000000 1.0
C      1  0.5113100000000  0.5447450000000  0.4732300000000 1.0
C      1  0.5684970000000  0.4175030000000  0.4581050000000 1.0
C      1  0.5883780000000  0.4624580000000  0.5408990000000 1.0
C      1  0.5665830000000  0.4582940000000  0.4249300000000 1.0
C      1  0.4400110000000  0.5138270000000  0.5974460000000 1.0
C      1  0.5237760000000  0.4782680000000  0.5519420000000 1.0
C      1  0.5788740000000  0.4834350000000  0.4442760000000 1.0
C      1  0.5214100000000  0.3832970000000  0.5411160000000 1.0
C      1  0.5159950000000  0.5953740000000  0.5323680000000 1.0
C      1  0.4959450000000  0.5244570000000  0.3978810000000 1.0
C      1  0.4769400000000  0.4612300000000  0.5347460000000 1.0
C      1  0.5821200000000  0.5585370000000  0.4469530000000 1.0
C      1  0.5215730000000  0.4529910000000  0.4960290000000 1.0
C      1  0.6071550000000  0.4694170000000  0.4684580000000 1.0
C      1  0.4810500000000  0.5692450000000  0.5091980000000 1.0
C      1  0.4932750000000  0.3897540000000  0.5231260000000 1.0
C      1  0.4846040000000  0.5532620000000  0.3985500000000 1.0
C      1  0.4670510000000  0.4596480000000  0.5961070000000 1.0
C      1  0.4274420000000  0.4757490000000  0.4534870000000 1.0
C      1  0.6039700000000  0.4677580000000  0.5111100000000 1.0
C      1  0.4437480000000  0.4290270000000  0.5106440000000 1.0
C      1  0.5109100000000  0.4027470000000  0.4433790000000 1.0
C      1  0.5826980000000  0.4908000000000  0.5535560000000 1.0
C      1  0.4682340000000  0.4488980000000  0.4979190000000 1.0
C      1  0.5243420000000  0.5311350000000  0.5783530000000 1.0
C      1  0.5880630000000  0.5376560000000  0.4847390000000 1.0
C      1  0.3967060000000  0.4685410000000  0.5175960000000 1.0
C      1  0.4397100000000  0.5312510000000  0.5040850000000 1.0
C      1  0.5438630000000  0.5963690000000  0.5360600000000 1.0
C      1  0.4525090000000  0.5685860000000  0.4993770000000 1.0
C      1  0.4595710000000  0.5189060000000  0.4460190000000 1.0
C      1  0.5037130000000  0.5236660000000  0.6046520000000 1.0
C      1  0.5658950000000  0.4128420000000  0.5336300000000 1.0
C      1  0.4673210000000  0.6040590000000  0.5243490000000 1.0
C      1  0.5759780000000  0.5177320000000  0.4072870000000 1.0
C      1  0.6055250000000  0.5354510000000  0.4556440000000 1.0
C      1  0.5116920000000  0.4934320000000  0.4174210000000 1.0
C      1  0.4875350000000  0.4949850000000  0.3830720000000 1.0
C      1  0.5501750000000  0.4668630000000  0.4040850000000 1.0
C      1  0.4710590000000  0.5850370000000  0.4528750000000 1.0
C      1  0.5079200000000  0.5880230000000  0.5001690000000 1.0
C      1  0.4488240000000  0.4850550000000  0.5719920000000 1.0
C      1  0.4933930000000  0.5326900000000  0.5168700000000 1.0
C      1  0.4850740000000  0.5188680000000  0.5611410000000 1.0
C      1  0.4617440000000  0.4580680000000  0.5618030000000 1.0
C      1  0.5400240000000  0.4897160000000  0.4739110000000 1.0
C      1  0.5906420000000  0.4825270000000  0.5851360000000 1.0
C      1  0.5648270000000  0.5696840000000  0.4708790000000 1.0
C      1  0.5528330000000  0.4517140000000  0.5874040000000 1.0
C      1  0.5462980000000  0.5901570000000  0.4873120000000 1.0
C      1  0.5039730000000  0.5916250000000  0.4467150000000 1.0
C      1  0.5214160000000  0.4965070000000  0.3854770000000 1.0
C      1  0.5518050000000  0.4972540000000  0.3982900000000 1.0
C      1  0.5756330000000  0.4860430000000  0.5066220000000 1.0
C      1  0.4577880000000  0.5359780000000  0.4005750000000 1.0
C      1  0.4155570000000  0.5498840000000  0.5523480000000 1.0
C      1  0.5650220000000  0.5027140000000  0.5780720000000 1.0
C      1  0.5191990000000  0.6016990000000  0.4714880000000 1.0
C      1  0.4410540000000  0.4843520000000  0.5122520000000 1.0
C      1  0.4724830000000  0.5180220000000  0.5997390000000 1.0
C      1  0.4823890000000  0.5550140000000  0.5400490000000 1.0
C      1  0.4887620000000  0.4943530000000  0.4740790000000 1.0
C      1  0.5645820000000  0.4437290000000  0.5315360000000 1.0
C      1  0.4950560000000  0.4695800000000  0.4947630000000 1.0
C      1  0.4926680000000  0.4295950000000  0.4691550000000 1.0
C      1  0.4361100000000  0.5049840000000  0.4628260000000 1.0
C      1  0.5391450000000  0.5466980000000  0.5522340000000 1.0
C      1  0.5043880000000  0.5436780000000  0.4320400000000 1.0
C      1  0.4393500000000  0.5459550000000  0.4215570000000 1.0
C      1  0.5274170000000  0.5284710000000  0.3928910000000 1.0
C      1  0.5472580000000  0.5280790000000  0.6032930000000 1.0
C      1  0.5313750000000  0.4978540000000  0.5787610000000 1.0
C      1  0.4763840000000  0.4580580000000  0.4212290000000 1.0
C      1  0.5004630000000  0.4713160000000  0.5719140000000 1.0
C      1  0.5091780000000  0.5715390000000  0.4128770000000 1.0
C      1  0.5793900000000  0.5257080000000  0.4379790000000 1.0
C      1  0.4424510000000  0.4324800000000  0.4365000000000 1.0
C      1  0.4472670000000  0.5883910000000  0.5412050000000 1.0
C      1  0.5293320000000  0.5113280000000  0.5203210000000 1.0
C      1  0.4849820000000  0.5372530000000  0.4592290000000 1.0
C      1  0.5331970000000  0.5818790000000  0.5790350000000 1.0
C      1  0.5308510000000  0.4339490000000  0.5859530000000 1.0
C      1  0.5252430000000  0.4167450000000  0.5624620000000 1.0
C      1  0.5558100000000  0.5398550000000  0.4953230000000 1.0
C      1  0.6054500000000  0.5211160000000  0.5088280000000 1.0
C      1  0.5257600000000  0.4374040000000  0.4681900000000 1.0
C      1  0.6044440000000  0.5016520000000  0.4581190000000 1.0
C      1  0.6064450000000  0.4418370000000  0.4973270000000 1.0
C      1  0.4506210000000  0.5624480000000  0.5847570000000 1.0
C      1  0.4948640000000  0.4593290000000  0.4562350000000 1.0
C      1  0.4268100000000  0.4580880000000  0.5055750000000 1.0
C      1  0.5216150000000  0.5201280000000  0.4918310000000 1.0
C      1  0.4626820000000  0.3927240000000  0.5167560000000 1.0
C      1  0.4311450000000  0.4522120000000  0.4749480000000 1.0
C      1  0.5220330000000  0.4571670000000  0.4009750000000 1.0
C      1  0.5835650000000  0.5680700000000  0.4992600000000 1.0
C      1  0.5001050000000  0.3896460000000  0.4687250000000 1.0
C      1  0.5558940000000  0.6053300000000  0.5128550000000 1.0
C      1  0.5816000000000  0.5097660000000  0.5302530000000 1.0
C      1  0.5324840000000  0.4073830000000  0.4935920000000 1.0
C      1  0.4756910000000  0.5601870000000  0.4301150000000 1.0
C      1  0.4497990000000  0.4015430000000  0.4915650000000 1.0
C      1  0.4761310000000  0.5173580000000  0.4956970000000 1.0
C      1  0.4193610000000  0.4622330000000  0.5909830000000 1.0
C      1  0.4558240000000  0.5849850000000  0.5683030000000 1.0
C      1  0.4536320000000  0.4127150000000  0.5389130000000 1.0
C      1  0.4314820000000  0.5492170000000  0.4599530000000 1.0
C      1  0.4628970000000  0.4560080000000  0.4665310000000 1.0
C      1  0.4810040000000  0.4927170000000  0.5786800000000 1.0
C      1  0.5022440000000  0.5127310000000  0.5380410000000 1.0
C      1  0.4376100000000  0.5966640000000  0.4872850000000 1.0
C      1  0.4518630000000  0.5166500000000  0.5655990000000 1.0
C      1  0.4415750000000  0.5745160000000  0.4395580000000 1.0
C      1  0.5775670000000  0.4560920000000  0.5726720000000 1.0
C      1  0.5751920000000  0.4604820000000  0.4688350000000 1.0
C      1  0.4125090000000  0.4220740000000  0.5221270000000 1.0
C      1  0.5066310000000  0.5786210000000  0.5770590000000 1.0
C      1  0.4833610000000  0.5094300000000  0.4247080000000 1.0
C      1  0.5738770000000  0.5590050000000  0.5252370000000 1.0
C      1  0.5106170000000  0.4941970000000  0.6054520000000 1.0
C      1  0.4832030000000  0.5971240000000  0.5744730000000 1.0
C      1  0.5408120000000  0.5481100000000  0.4594670000000 1.0
C      1  0.4641770000000  0.6021430000000  0.4773890000000 1.0
C      1  0.4053650000000  0.5051820000000  0.4305320000000 1.0
C      1  0.5799450000000  0.4248280000000  0.4858780000000 1.0
C      1  0.4369760000000  0.4208240000000  0.5648500000000 1.0
C      1  0.5024870000000  0.4817460000000  0.5256500000000 1.0
C      1  0.4148260000000  0.5807590000000  0.4970060000000 1.0
C      1  0.4281410000000  0.4529550000000  0.5603070000000 1.0
C      1  0.5252390000000  0.5193890000000  0.4321220000000 1.0
END
