TITL C-2847947-6848-515 -304.002702128378 125000 -701.450804726525 0 0 128 (C1) n - 1
REM
REM in /home/bkarasulu/work/CARBON/AIRSS/Generating-Clusters/AIREBO/with-SteepDescent/Only-C1/SD-CG-opt/Try1-1.4A-POS3A/HFTN-CG
REM
REM
REM
REM
REM
REM ./C.cell (11c1c37f851c82e70ff6c80c92926a4b)
REM
REM compiler GCC version 9.2.1 20190827 (Red Hat 9.2.1-1)
REM options -cpp -mtune=generic -march=x86-64 -g -O0 -fpre-include=/usr/include/finclude/math-vector-fortran.h
REM seed -1299082474 -562276367 -1962694079 -1857794601 -256077209 1732929844 -377795056 1813300134 616086559 -19802501 -1100096165 -649515518 494239598 -1570750878 -711009847 688947459 895134031 -959791794 -1437259492 -1362515285 -1489473709 1304056486 461465321 -960570275 -1150709540 -341513620 -687475359 -213586685 1479422318 -1280833449 -10949988 776646440 2102144680
REM
CELL 1.54180   50.00000   50.00000   50.00000   90.00000   90.00000   90.00000
LATT -1
SFAC C  
C      1  0.5465100000000  0.5580010000000  0.5572960000000 1.0
C      1  0.4707410000000  0.5180040000000  0.5785040000000 1.0
C      1  0.4628520000000  0.4392460000000  0.5588980000000 1.0
C      1  0.4354020000000  0.5614970000000  0.4741040000000 1.0
C      1  0.4836450000000  0.5160820000000  0.4165130000000 1.0
C      1  0.5194040000000  0.4530020000000  0.4413670000000 1.0
C      1  0.5035820000000  0.4551640000000  0.4713870000000 1.0
C      1  0.4070600000000  0.5322510000000  0.4803990000000 1.0
C      1  0.4608210000000  0.4044420000000  0.5170060000000 1.0
C      1  0.4976500000000  0.5472530000000  0.6412870000000 1.0
C      1  0.4160500000000  0.5139710000000  0.4554180000000 1.0
C      1  0.4539340000000  0.5507770000000  0.4355080000000 1.0
C      1  0.5983570000000  0.5306300000000  0.5048450000000 1.0
C      1  0.4701130000000  0.4930010000000  0.4573500000000 1.0
C      1  0.5177680000000  0.5449020000000  0.5684080000000 1.0
C      1  0.5813810000000  0.4530740000000  0.5233820000000 1.0
C      1  0.5626130000000  0.5115830000000  0.5607930000000 1.0
C      1  0.5059650000000  0.6016450000000  0.4895830000000 1.0
C      1  0.5853010000000  0.5518210000000  0.4579320000000 1.0
C      1  0.4712000000000  0.4536210000000  0.4637860000000 1.0
C      1  0.5375390000000  0.5265710000000  0.4841890000000 1.0
C      1  0.5383920000000  0.4701250000000  0.4185520000000 1.0
C      1  0.5254250000000  0.4824370000000  0.5496370000000 1.0
C      1  0.6054530000000  0.5004640000000  0.5107710000000 1.0
C      1  0.4877450000000  0.5154230000000  0.4853420000000 1.0
C      1  0.4218800000000  0.4553940000000  0.4554620000000 1.0
C      1  0.5473230000000  0.4936040000000  0.5806390000000 1.0
C      1  0.4482930000000  0.5214420000000  0.5456580000000 1.0
C      1  0.4670700000000  0.4944690000000  0.5535320000000 1.0
C      1  0.5467550000000  0.5768580000000  0.5354480000000 1.0
C      1  0.5237370000000  0.5741360000000  0.5165280000000 1.0
C      1  0.5088140000000  0.5459360000000  0.5257180000000 1.0
C      1  0.4804460000000  0.4406370000000  0.5004460000000 1.0
C      1  0.4930340000000  0.4155670000000  0.5697450000000 1.0
C      1  0.4395290000000  0.5265410000000  0.4394230000000 1.0
C      1  0.4061000000000  0.4833310000000  0.4422880000000 1.0
C      1  0.4940960000000  0.4835390000000  0.4767710000000 1.0
C      1  0.5452180000000  0.4324140000000  0.4495080000000 1.0
C      1  0.4905840000000  0.4708020000000  0.5909460000000 1.0
C      1  0.4411680000000  0.5449060000000  0.4960000000000 1.0
C      1  0.5178960000000  0.5133020000000  0.5571300000000 1.0
C      1  0.5126300000000  0.5238940000000  0.4427160000000 1.0
C      1  0.5042780000000  0.3962670000000  0.4890870000000 1.0
C      1  0.4560870000000  0.5928890000000  0.4860590000000 1.0
C      1  0.5900280000000  0.4799840000000  0.5279080000000 1.0
C      1  0.4870490000000  0.4767060000000  0.4116140000000 1.0
C      1  0.5538970000000  0.4440930000000  0.4234910000000 1.0
C      1  0.5900900000000  0.5310320000000  0.4758620000000 1.0
C      1  0.4660640000000  0.4962000000000  0.5022700000000 1.0
C      1  0.4736990000000  0.4108830000000  0.4861860000000 1.0
C      1  0.4755020000000  0.4673300000000  0.5444880000000 1.0
C      1  0.4714450000000  0.4546590000000  0.4181860000000 1.0
C      1  0.5287510000000  0.5625760000000  0.4303150000000 1.0
C      1  0.5420220000000  0.5395540000000  0.5221500000000 1.0
C      1  0.4439930000000  0.4970100000000  0.5782130000000 1.0
C      1  0.4150510000000  0.5366540000000  0.5136290000000 1.0
C      1  0.5510580000000  0.5104200000000  0.5110960000000 1.0
C      1  0.4492010000000  0.4424550000000  0.4414110000000 1.0
C      1  0.5267520000000  0.4836210000000  0.4542130000000 1.0
C      1  0.4603580000000  0.4571720000000  0.5163790000000 1.0
C      1  0.4222010000000  0.4850240000000  0.4721870000000 1.0
C      1  0.5610760000000  0.5636470000000  0.5075660000000 1.0
C      1  0.5759720000000  0.5035760000000  0.4647100000000 1.0
C      1  0.4265120000000  0.4351810000000  0.4825240000000 1.0
C      1  0.4992360000000  0.5182550000000  0.5332850000000 1.0
C      1  0.5074620000000  0.5000690000000  0.4002000000000 1.0
C      1  0.5769160000000  0.4986460000000  0.4952510000000 1.0
C      1  0.4909270000000  0.5551570000000  0.4881460000000 1.0
C      1  0.4788260000000  0.5458050000000  0.4225750000000 1.0
C      1  0.4021220000000  0.5623280000000  0.4954670000000 1.0
C      1  0.6029850000000  0.5711430000000  0.4500770000000 1.0
C      1  0.4227340000000  0.5867580000000  0.4891310000000 1.0
C      1  0.4681480000000  0.5473190000000  0.5079660000000 1.0
C      1  0.4550830000000  0.5774460000000  0.4554660000000 1.0
C      1  0.4807020000000  0.5918850000000  0.5002120000000 1.0
C      1  0.5459810000000  0.5090880000000  0.4588600000000 1.0
C      1  0.4584530000000  0.4663240000000  0.5805570000000 1.0
C      1  0.4024960000000  0.4888450000000  0.4973050000000 1.0
C      1  0.5687210000000  0.4978770000000  0.5367710000000 1.0
C      1  0.4692090000000  0.5214590000000  0.5229990000000 1.0
C      1  0.4337750000000  0.4574500000000  0.5021440000000 1.0
C      1  0.5467970000000  0.4640490000000  0.4736050000000 1.0
C      1  0.5388520000000  0.4333790000000  0.5212610000000 1.0
C      1  0.5327590000000  0.4981470000000  0.4134530000000 1.0
C      1  0.5023670000000  0.5607840000000  0.4312550000000 1.0
C      1  0.4836950000000  0.5662000000000  0.4572340000000 1.0
C      1  0.4885380000000  0.4376950000000  0.4392380000000 1.0
C      1  0.5813770000000  0.5437320000000  0.5245410000000 1.0
C      1  0.5934020000000  0.4539100000000  0.4759310000000 1.0
C      1  0.5594320000000  0.4473040000000  0.5408530000000 1.0
C      1  0.5312070000000  0.4097620000000  0.4980220000000 1.0
C      1  0.4535880000000  0.4763470000000  0.4819660000000 1.0
C      1  0.4373100000000  0.4610310000000  0.5544480000000 1.0
C      1  0.5550920000000  0.5528660000000  0.4473160000000 1.0
C      1  0.4995650000000  0.4586590000000  0.5220820000000 1.0
C      1  0.5178520000000  0.5027070000000  0.4884390000000 1.0
C      1  0.4189610000000  0.5081280000000  0.5690900000000 1.0
C      1  0.5116500000000  0.4352680000000  0.4925370000000 1.0
C      1  0.4935360000000  0.4904710000000  0.5174990000000 1.0
C      1  0.5428590000000  0.5251900000000  0.4316600000000 1.0
C      1  0.5233730000000  0.5533550000000  0.4896070000000 1.0
C      1  0.4400030000000  0.4115430000000  0.4907880000000 1.0
C      1  0.5513900000000  0.4313270000000  0.4816760000000 1.0
C      1  0.5045340000000  0.4651110000000  0.5611060000000 1.0
C      1  0.5273400000000  0.4868000000000  0.5168920000000 1.0
C      1  0.5762000000000  0.4723030000000  0.4654870000000 1.0
C      1  0.4851820000000  0.5703860000000  0.5246780000000 1.0
C      1  0.4781570000000  0.4161270000000  0.5391740000000 1.0
C      1  0.5530080000000  0.4683370000000  0.5586010000000 1.0
C      1  0.5000400000000  0.4393980000000  0.5811190000000 1.0
C      1  0.4983770000000  0.4942260000000  0.4384810000000 1.0
C      1  0.5136990000000  0.4952770000000  0.5856540000000 1.0
C      1  0.5556100000000  0.5714810000000  0.4758170000000 1.0
C      1  0.4675090000000  0.4157920000000  0.4537760000000 1.0
C      1  0.5269120000000  0.5854410000000  0.4789270000000 1.0
C      1  0.5066300000000  0.4271420000000  0.5269820000000 1.0
C      1  0.4991650000000  0.5257440000000  0.5897690000000 1.0
C      1  0.5405720000000  0.4613070000000  0.5055460000000 1.0
C      1  0.4990230000000  0.5363640000000  0.6182480000000 1.0
C      1  0.4096090000000  0.4897940000000  0.5234620000000 1.0
C      1  0.5801970000000  0.4398000000000  0.4977180000000 1.0
C      1  0.4948700000000  0.5358090000000  0.4621590000000 1.0
C      1  0.5679050000000  0.5392380000000  0.5527940000000 1.0
C      1  0.4246840000000  0.4676830000000  0.5309780000000 1.0
C      1  0.4582980000000  0.5060620000000  0.4328930000000 1.0
C      1  0.4174400000000  0.5162140000000  0.5360170000000 1.0
C      1  0.4943130000000  0.5653340000000  0.5569330000000 1.0
C      1  0.4527840000000  0.5424340000000  0.5681170000000 1.0
END
