TITL C-2848504-8560-231 -0.00142710539950936 125000 -476.090679697542 0 0 94 (C1) n - 1
REM
REM in /home/bkarasulu/work/CARBON/AIRSS/Generating-Clusters/AIREBO/with-SteepDescent/Only-C1/SD-CG-opt/Try1-1.4A-POS3A/HFTN-CG
REM
REM
REM
REM
REM
REM ./C.cell (11c1c37f851c82e70ff6c80c92926a4b)
REM
REM compiler GCC version 9.2.1 20190827 (Red Hat 9.2.1-1)
REM options -cpp -mtune=generic -march=x86-64 -g -O0 -fpre-include=/usr/include/finclude/math-vector-fortran.h
REM seed 41120288 995105765 1918986886 189493838 -343864376 -1865282270 865218294 -950298570 1900902780 1726750925 -1582799837 -366944697 -115475969 -1291588211 1067794466 -228668285 1422871747 -1197877448 453932402 2075812713 -1108316109 943017284 2109715126 614333890 -649945900 26070086 -922900444 -604223292 -1655441000 1980852090 -1730463661 -219440265 -167045799
REM
CELL 1.54180   50.00000   50.00000   50.00000   90.00000   90.00000   90.00000
LATT -1
SFAC C  
C      1  0.4279570000000  0.4997880000000  0.5542980000000 1.0
C      1  0.4769560000000  0.5063210000000  0.5722230000000 1.0
C      1  0.4154880000000  0.4959580000000  0.4873200000000 1.0
C      1  0.5953190000000  0.4902460000000  0.4728850000000 1.0
C      1  0.5051990000000  0.4579030000000  0.4640940000000 1.0
C      1  0.5769730000000  0.4656120000000  0.4835690000000 1.0
C      1  0.4712610000000  0.5276640000000  0.5028400000000 1.0
C      1  0.5484450000000  0.4651620000000  0.4694550000000 1.0
C      1  0.5253330000000  0.5763290000000  0.5291470000000 1.0
C      1  0.5486070000000  0.5084030000000  0.5186620000000 1.0
C      1  0.5290910000000  0.4308430000000  0.4977460000000 1.0
C      1  0.5137380000000  0.4806740000000  0.5424710000000 1.0
C      1  0.5064250000000  0.5627110000000  0.4499570000000 1.0
C      1  0.5112940000000  0.5200590000000  0.4817540000000 1.0
C      1  0.5465240000000  0.5425740000000  0.4717760000000 1.0
C      1  0.5059750000000  0.4885610000000  0.5746200000000 1.0
C      1  0.4603460000000  0.5521800000000  0.4735570000000 1.0
C      1  0.4291780000000  0.4798140000000  0.5056970000000 1.0
C      1  0.4486660000000  0.4569540000000  0.4654720000000 1.0
C      1  0.4488860000000  0.5330080000000  0.4400620000000 1.0
C      1  0.5294340000000  0.4781370000000  0.4242380000000 1.0
C      1  0.5457620000000  0.5344870000000  0.5640800000000 1.0
C      1  0.4136470000000  0.5168970000000  0.5420530000000 1.0
C      1  0.5260700000000  0.4902610000000  0.4746480000000 1.0
C      1  0.5402440000000  0.5619940000000  0.5559730000000 1.0
C      1  0.5178540000000  0.5753720000000  0.4753100000000 1.0
C      1  0.4556330000000  0.5027170000000  0.4305080000000 1.0
C      1  0.5736310000000  0.5424060000000  0.4930260000000 1.0
C      1  0.4746660000000  0.4649410000000  0.5330180000000 1.0
C      1  0.5507340000000  0.4663650000000  0.5455110000000 1.0
C      1  0.5185180000000  0.4260730000000  0.5297230000000 1.0
C      1  0.5615730000000  0.4409220000000  0.4983230000000 1.0
C      1  0.4928720000000  0.4906800000000  0.5055510000000 1.0
C      1  0.5012680000000  0.4163770000000  0.4845910000000 1.0
C      1  0.4901340000000  0.4182800000000  0.5459290000000 1.0
C      1  0.4615740000000  0.4483960000000  0.5669800000000 1.0
C      1  0.4791250000000  0.5468030000000  0.4470800000000 1.0
C      1  0.5310490000000  0.5879540000000  0.5027230000000 1.0
C      1  0.5699330000000  0.5165040000000  0.5512590000000 1.0
C      1  0.4254000000000  0.4890650000000  0.4611150000000 1.0
C      1  0.4655980000000  0.5075650000000  0.5291300000000 1.0
C      1  0.5412770000000  0.4983840000000  0.5474960000000 1.0
C      1  0.4419620000000  0.4375740000000  0.4928150000000 1.0
C      1  0.5380700000000  0.4579320000000  0.5162550000000 1.0
C      1  0.4785080000000  0.4880530000000  0.4146690000000 1.0
C      1  0.5347960000000  0.4705130000000  0.5754210000000 1.0
C      1  0.4594150000000  0.4889770000000  0.4613880000000 1.0
C      1  0.4174720000000  0.5244190000000  0.4901420000000 1.0
C      1  0.5551680000000  0.5706510000000  0.4888400000000 1.0
C      1  0.4639930000000  0.4440860000000  0.4397240000000 1.0
C      1  0.4798730000000  0.4601040000000  0.4213210000000 1.0
C      1  0.4898170000000  0.4451590000000  0.5098680000000 1.0
C      1  0.4273740000000  0.5335220000000  0.4628180000000 1.0
C      1  0.5704070000000  0.5303730000000  0.5202170000000 1.0
C      1  0.5389330000000  0.4365010000000  0.4656770000000 1.0
C      1  0.4590710000000  0.4860800000000  0.5546670000000 1.0
C      1  0.5373640000000  0.4468040000000  0.4364540000000 1.0
C      1  0.5121030000000  0.4668900000000  0.4961580000000 1.0
C      1  0.4455140000000  0.4507090000000  0.5397140000000 1.0
C      1  0.4998590000000  0.5623810000000  0.5287810000000 1.0
C      1  0.4730190000000  0.4618060000000  0.4872620000000 1.0
C      1  0.5643450000000  0.5162170000000  0.4436280000000 1.0
C      1  0.4303490000000  0.4525830000000  0.5148020000000 1.0
C      1  0.5311120000000  0.5483890000000  0.5011520000000 1.0
C      1  0.4376030000000  0.5602840000000  0.4976360000000 1.0
C      1  0.4822870000000  0.4359080000000  0.4671980000000 1.0
C      1  0.4851800000000  0.5734260000000  0.4820630000000 1.0
C      1  0.4972250000000  0.5471140000000  0.4985140000000 1.0
C      1  0.4842350000000  0.5147670000000  0.4437060000000 1.0
C      1  0.4908200000000  0.5541120000000  0.5585390000000 1.0
C      1  0.4871560000000  0.4598430000000  0.5764430000000 1.0
C      1  0.4942870000000  0.4892960000000  0.4625410000000 1.0
C      1  0.5398390000000  0.4985980000000  0.4443990000000 1.0
C      1  0.5799100000000  0.4855940000000  0.5091650000000 1.0
C      1  0.4994250000000  0.5085090000000  0.5325460000000 1.0
C      1  0.5070340000000  0.4553890000000  0.4312980000000 1.0
C      1  0.5144880000000  0.5737030000000  0.5675250000000 1.0
C      1  0.4267000000000  0.5378520000000  0.5186360000000 1.0
C      1  0.5776310000000  0.5174840000000  0.4717760000000 1.0
C      1  0.5245700000000  0.5167710000000  0.5785600000000 1.0
C      1  0.4566720000000  0.5842820000000  0.4963300000000 1.0
C      1  0.5554720000000  0.4987670000000  0.4895160000000 1.0
C      1  0.4591050000000  0.4862710000000  0.5034230000000 1.0
C      1  0.5774760000000  0.4859510000000  0.5379420000000 1.0
C      1  0.5130930000000  0.5372990000000  0.4283680000000 1.0
C      1  0.5076420000000  0.5044020000000  0.4214400000000 1.0
C      1  0.4496430000000  0.5336630000000  0.5412790000000 1.0
C      1  0.4684910000000  0.5333450000000  0.5639290000000 1.0
C      1  0.5218530000000  0.5196740000000  0.5131180000000 1.0
C      1  0.5069850000000  0.5270660000000  0.5560490000000 1.0
C      1  0.4651080000000  0.4243860000000  0.5012450000000 1.0
C      1  0.5017860000000  0.4502040000000  0.5473040000000 1.0
C      1  0.5273750000000  0.5260390000000  0.4550580000000 1.0
C      1  0.4547310000000  0.5189390000000  0.4768130000000 1.0
END
