TITL C-2848500-1637-655 0.00139754260657011 125000 -828.796918224197 0 0 149 (C1) n - 1
REM
REM in /home/bkarasulu/work/CARBON/AIRSS/Generating-Clusters/AIREBO/with-SteepDescent/Only-C1/SD-CG-opt/Try1-1.4A-POS3A/HFTN-CG
REM
REM
REM
REM
REM
REM ./C.cell (11c1c37f851c82e70ff6c80c92926a4b)
REM
REM compiler GCC version 9.2.1 20190827 (Red Hat 9.2.1-1)
REM options -cpp -mtune=generic -march=x86-64 -g -O0 -fpre-include=/usr/include/finclude/math-vector-fortran.h
REM seed -1293124812 -286919423 121883908 274249913 -877115170 -324431419 -1739446507 -2109462473 1905856194 -1406831068 1011302530 -1285531963 -2018245642 -1577372305 -1224013767 1781822261 613827654 324237451 29998344 594285677 -269276278 -2144379285 239337931 -2085891545 168595118 -1284516401 -1884173094 -2099355498 -245975475 1068877372 1305398413 -400964142 -1039435410
REM
CELL 1.54180   50.00000   50.00000   50.00000   90.00000   90.00000   90.00000
LATT -1
SFAC C  
C      1  0.5622500000000  0.5179210000000  0.4631380000000 1.0
C      1  0.4416370000000  0.4343100000000  0.4360210000000 1.0
C      1  0.5158900000000  0.4032160000000  0.5340880000000 1.0
C      1  0.4957510000000  0.5134850000000  0.5609310000000 1.0
C      1  0.4942370000000  0.4166990000000  0.5565830000000 1.0
C      1  0.5914050000000  0.5229930000000  0.5065830000000 1.0
C      1  0.4040790000000  0.4793000000000  0.4565620000000 1.0
C      1  0.5524440000000  0.4819960000000  0.5729830000000 1.0
C      1  0.4976330000000  0.5576430000000  0.5053880000000 1.0
C      1  0.4563890000000  0.4201790000000  0.4553770000000 1.0
C      1  0.5348290000000  0.4925580000000  0.4766110000000 1.0
C      1  0.4963540000000  0.4643810000000  0.4819880000000 1.0
C      1  0.4297990000000  0.4659020000000  0.5825330000000 1.0
C      1  0.5040470000000  0.5361380000000  0.6055120000000 1.0
C      1  0.5125250000000  0.5046880000000  0.4368120000000 1.0
C      1  0.5656990000000  0.4946910000000  0.4867790000000 1.0
C      1  0.5495720000000  0.4337690000000  0.5042670000000 1.0
C      1  0.4737680000000  0.4756980000000  0.5765830000000 1.0
C      1  0.5204960000000  0.4922200000000  0.3895970000000 1.0
C      1  0.5172900000000  0.5480440000000  0.4570010000000 1.0
C      1  0.4217540000000  0.4949730000000  0.5664000000000 1.0
C      1  0.5024190000000  0.4671370000000  0.5145060000000 1.0
C      1  0.4669910000000  0.5891220000000  0.5578370000000 1.0
C      1  0.4858750000000  0.5617600000000  0.4269000000000 1.0
C      1  0.5879160000000  0.4692070000000  0.5184530000000 1.0
C      1  0.5023920000000  0.4448690000000  0.5474010000000 1.0
C      1  0.5202840000000  0.4734560000000  0.5430300000000 1.0
C      1  0.4533170000000  0.5512210000000  0.4522270000000 1.0
C      1  0.5303560000000  0.5200220000000  0.4583090000000 1.0
C      1  0.4878340000000  0.6078520000000  0.5145100000000 1.0
C      1  0.4812400000000  0.4100770000000  0.4923200000000 1.0
C      1  0.5619650000000  0.5831540000000  0.5337870000000 1.0
C      1  0.4459000000000  0.5644600000000  0.4770220000000 1.0
C      1  0.5107320000000  0.6262730000000  0.5000110000000 1.0
C      1  0.4325170000000  0.4805780000000  0.4177280000000 1.0
C      1  0.4861410000000  0.5427090000000  0.4550620000000 1.0
C      1  0.5022250000000  0.5125390000000  0.4090270000000 1.0
C      1  0.5666990000000  0.5035760000000  0.5195860000000 1.0
C      1  0.5258780000000  0.5022740000000  0.5514410000000 1.0
C      1  0.4858170000000  0.4889550000000  0.3908410000000 1.0
C      1  0.5070860000000  0.4431120000000  0.4087930000000 1.0
C      1  0.4248420000000  0.4721440000000  0.4780560000000 1.0
C      1  0.5264030000000  0.4303120000000  0.5757950000000 1.0
C      1  0.5971860000000  0.4654850000000  0.4462430000000 1.0
C      1  0.5562550000000  0.4755300000000  0.4087620000000 1.0
C      1  0.4450440000000  0.4790240000000  0.5024670000000 1.0
C      1  0.5302440000000  0.5410010000000  0.4099290000000 1.0
C      1  0.5312030000000  0.5319790000000  0.5970530000000 1.0
C      1  0.5797190000000  0.4670790000000  0.4724990000000 1.0
C      1  0.4477910000000  0.4299460000000  0.4833990000000 1.0
C      1  0.3845740000000  0.4581250000000  0.4575830000000 1.0
C      1  0.5509140000000  0.5330000000000  0.5263060000000 1.0
C      1  0.4146150000000  0.5266920000000  0.5566110000000 1.0
C      1  0.4202130000000  0.4417690000000  0.4816970000000 1.0
C      1  0.4668300000000  0.4299880000000  0.5821990000000 1.0
C      1  0.5378020000000  0.4831070000000  0.4453930000000 1.0
C      1  0.5899290000000  0.5359210000000  0.5343880000000 1.0
C      1  0.5365320000000  0.5656470000000  0.5084970000000 1.0
C      1  0.4377170000000  0.5256210000000  0.4802310000000 1.0
C      1  0.4622760000000  0.4127370000000  0.5574740000000 1.0
C      1  0.4182470000000  0.4949510000000  0.4375510000000 1.0
C      1  0.4679820000000  0.4528870000000  0.4752390000000 1.0
C      1  0.5853540000000  0.4841770000000  0.4289640000000 1.0
C      1  0.4803820000000  0.5875700000000  0.4266660000000 1.0
C      1  0.5544150000000  0.4630920000000  0.5159630000000 1.0
C      1  0.4285710000000  0.5910940000000  0.5220940000000 1.0
C      1  0.5592110000000  0.5668320000000  0.4831580000000 1.0
C      1  0.4491340000000  0.4105630000000  0.5337530000000 1.0
C      1  0.5340660000000  0.5496560000000  0.5743750000000 1.0
C      1  0.5074000000000  0.4158850000000  0.4713910000000 1.0
C      1  0.4183630000000  0.4631910000000  0.5533380000000 1.0
C      1  0.4723220000000  0.5251920000000  0.4188630000000 1.0
C      1  0.5378820000000  0.5523710000000  0.4345710000000 1.0
C      1  0.5676920000000  0.4786000000000  0.5427390000000 1.0
C      1  0.5572090000000  0.5493780000000  0.4568510000000 1.0
C      1  0.5249320000000  0.5760130000000  0.5671590000000 1.0
C      1  0.5247710000000  0.3930310000000  0.4564840000000 1.0
C      1  0.4481050000000  0.5346840000000  0.4281890000000 1.0
C      1  0.4264510000000  0.3960300000000  0.5291520000000 1.0
C      1  0.4583300000000  0.5549630000000  0.5885870000000 1.0
C      1  0.3947500000000  0.4363140000000  0.4726360000000 1.0
C      1  0.3982670000000  0.4978580000000  0.5204990000000 1.0
C      1  0.4406290000000  0.4656440000000  0.5303830000000 1.0
C      1  0.4831980000000  0.4996800000000  0.5845420000000 1.0
C      1  0.4846780000000  0.4367180000000  0.4232620000000 1.0
C      1  0.5410910000000  0.5169380000000  0.4006790000000 1.0
C      1  0.5305540000000  0.6086550000000  0.4867540000000 1.0
C      1  0.4712420000000  0.4994480000000  0.5081830000000 1.0
C      1  0.4972460000000  0.5905090000000  0.5422020000000 1.0
C      1  0.4899520000000  0.5559120000000  0.5858630000000 1.0
C      1  0.4877620000000  0.5086650000000  0.4568680000000 1.0
C      1  0.5233910000000  0.4718820000000  0.4167010000000 1.0
C      1  0.5174240000000  0.4478150000000  0.4650070000000 1.0
C      1  0.5011700000000  0.4108850000000  0.6157600000000 1.0
C      1  0.5843030000000  0.5147200000000  0.4397790000000 1.0
C      1  0.4991760000000  0.5457280000000  0.4048480000000 1.0
C      1  0.4758550000000  0.5551130000000  0.4849040000000 1.0
C      1  0.4163380000000  0.5662660000000  0.5225450000000 1.0
C      1  0.4963360000000  0.5873080000000  0.5760560000000 1.0
C      1  0.5214210000000  0.4142170000000  0.5023540000000 1.0
C      1  0.4925200000000  0.4954290000000  0.4850570000000 1.0
C      1  0.4455650000000  0.5423690000000  0.5100310000000 1.0
C      1  0.4263340000000  0.4963780000000  0.5331470000000 1.0
C      1  0.5321660000000  0.4810510000000  0.5056540000000 1.0
C      1  0.4465300000000  0.5144630000000  0.5199630000000 1.0
C      1  0.5825810000000  0.5196780000000  0.5556410000000 1.0
C      1  0.4561120000000  0.4561830000000  0.5857780000000 1.0
C      1  0.5327960000000  0.4570850000000  0.5700890000000 1.0
C      1  0.4888470000000  0.5125530000000  0.6086260000000 1.0
C      1  0.4556110000000  0.5624480000000  0.5303310000000 1.0
C      1  0.4714910000000  0.4538060000000  0.5224140000000 1.0
C      1  0.5518740000000  0.3904670000000  0.4557230000000 1.0
C      1  0.5541810000000  0.5982200000000  0.4791430000000 1.0
C      1  0.5219380000000  0.4403580000000  0.5210810000000 1.0
C      1  0.5218360000000  0.5349530000000  0.5087570000000 1.0
C      1  0.6011100000000  0.5237560000000  0.4679350000000 1.0
C      1  0.6087590000000  0.5023570000000  0.4894380000000 1.0
C      1  0.4618830000000  0.4263060000000  0.5118630000000 1.0
C      1  0.4725190000000  0.6125550000000  0.4257640000000 1.0
C      1  0.4835630000000  0.4209170000000  0.4475980000000 1.0
C      1  0.5487640000000  0.4572300000000  0.4623850000000 1.0
C      1  0.4617710000000  0.4845890000000  0.4027350000000 1.0
C      1  0.5104070000000  0.5061790000000  0.5110600000000 1.0
C      1  0.5852880000000  0.5462140000000  0.4839440000000 1.0
C      1  0.5449270000000  0.5052690000000  0.5967170000000 1.0
C      1  0.4720310000000  0.4786950000000  0.4534690000000 1.0
C      1  0.5571840000000  0.5125400000000  0.5600920000000 1.0
C      1  0.4889500000000  0.4983590000000  0.5351360000000 1.0
C      1  0.4860900000000  0.5604910000000  0.5338230000000 1.0
C      1  0.4445630000000  0.5655160000000  0.5623420000000 1.0
C      1  0.4193020000000  0.5513590000000  0.4926950000000 1.0
C      1  0.5700340000000  0.5066140000000  0.4094990000000 1.0
C      1  0.6001730000000  0.4762790000000  0.4943430000000 1.0
C      1  0.5721640000000  0.5587580000000  0.5327120000000 1.0
C      1  0.5268720000000  0.5347890000000  0.5481850000000 1.0
C      1  0.4204850000000  0.5517000000000  0.5468800000000 1.0
C      1  0.5336950000000  0.4103690000000  0.5565380000000 1.0
C      1  0.5019930000000  0.4668030000000  0.4426540000000 1.0
C      1  0.5110250000000  0.5865830000000  0.5017560000000 1.0
C      1  0.4984310000000  0.4215700000000  0.5904810000000 1.0
C      1  0.5302880000000  0.5838590000000  0.5365790000000 1.0
C      1  0.5692830000000  0.4094130000000  0.4652030000000 1.0
C      1  0.4811760000000  0.4705420000000  0.5483370000000 1.0
C      1  0.4965940000000  0.5442310000000  0.5567130000000 1.0
C      1  0.4491680000000  0.4943910000000  0.4731500000000 1.0
C      1  0.4604510000000  0.4607740000000  0.4269770000000 1.0
C      1  0.4304280000000  0.5187810000000  0.4476900000000 1.0
C      1  0.4608910000000  0.5959210000000  0.5264420000000 1.0
C      1  0.5622340000000  0.4321490000000  0.4774110000000 1.0
END
