TITL C-2847958-8115-103 -0.000755361829459742 125000 -443.257997457981 0 0 84 (C1) n - 1
REM
REM in /home/bkarasulu/work/CARBON/AIRSS/Generating-Clusters/AIREBO/with-SteepDescent/Only-C1/SD-CG-opt/Try1-1.4A-POS3A/HFTN-CG
REM
REM
REM
REM
REM
REM ./C.cell (11c1c37f851c82e70ff6c80c92926a4b)
REM
REM compiler GCC version 9.2.1 20190827 (Red Hat 9.2.1-1)
REM options -cpp -mtune=generic -march=x86-64 -g -O0 -fpre-include=/usr/include/finclude/math-vector-fortran.h
REM seed 2024188383 828117689 1793618658 -906261074 -1632102142 1774843630 -1221040114 -1625523894 -1972000565 -1331352472 917418127 -1316159771 636198566 -1091137887 -1306915383 -1026726266 535955317 -1537526145 803861363 -1864370611 -1903337055 1917200487 -563714358 1128129546 -433462599 -2117439668 289600090 679351135 -1320833210 -1254554024 -1831778364 -632920606 -1093923237
REM
CELL 1.54180   50.00000   50.00000   50.00000   90.00000   90.00000   90.00000
LATT -1
SFAC C  
C      1  0.5422730000000  0.4876110000000  0.5657580000000 1.0
C      1  0.4670340000000  0.4895810000000  0.4610820000000 1.0
C      1  0.4717860000000  0.4675380000000  0.4865690000000 1.0
C      1  0.5523620000000  0.4289230000000  0.5053500000000 1.0
C      1  0.5047150000000  0.5390930000000  0.5178410000000 1.0
C      1  0.4596360000000  0.4186710000000  0.5002630000000 1.0
C      1  0.6056230000000  0.5608680000000  0.5150020000000 1.0
C      1  0.5072050000000  0.5663590000000  0.4829590000000 1.0
C      1  0.5050170000000  0.5721800000000  0.5148200000000 1.0
C      1  0.4584310000000  0.4998920000000  0.5130250000000 1.0
C      1  0.4796240000000  0.4349200000000  0.5410660000000 1.0
C      1  0.5834050000000  0.4991790000000  0.5144830000000 1.0
C      1  0.5556590000000  0.5698880000000  0.5036580000000 1.0
C      1  0.5046010000000  0.5088130000000  0.5254700000000 1.0
C      1  0.5639790000000  0.4735570000000  0.4435070000000 1.0
C      1  0.5299670000000  0.4495570000000  0.4718990000000 1.0
C      1  0.4766990000000  0.5820890000000  0.5204650000000 1.0
C      1  0.4192850000000  0.4785550000000  0.5537910000000 1.0
C      1  0.4895530000000  0.5031190000000  0.4395010000000 1.0
C      1  0.4918820000000  0.4607860000000  0.5133900000000 1.0
C      1  0.4685710000000  0.4261790000000  0.4743820000000 1.0
C      1  0.5145270000000  0.5079750000000  0.6009180000000 1.0
C      1  0.5334700000000  0.4839110000000  0.4337160000000 1.0
C      1  0.4943490000000  0.5537520000000  0.5740480000000 1.0
C      1  0.4310990000000  0.4554070000000  0.4812750000000 1.0
C      1  0.4894860000000  0.4514720000000  0.4380630000000 1.0
C      1  0.4210340000000  0.4835010000000  0.5262140000000 1.0
C      1  0.5086030000000  0.4642390000000  0.4237860000000 1.0
C      1  0.5388420000000  0.5591890000000  0.4793440000000 1.0
C      1  0.5492010000000  0.5566360000000  0.4506910000000 1.0
C      1  0.5756020000000  0.4718200000000  0.4679880000000 1.0
C      1  0.5449850000000  0.5318820000000  0.4929790000000 1.0
C      1  0.5264280000000  0.4178220000000  0.5118430000000 1.0
C      1  0.4502870000000  0.5305000000000  0.5109980000000 1.0
C      1  0.5184000000000  0.4898470000000  0.5815170000000 1.0
C      1  0.4555760000000  0.5696520000000  0.4987370000000 1.0
C      1  0.4461150000000  0.4684560000000  0.5088560000000 1.0
C      1  0.5323280000000  0.4438030000000  0.5505100000000 1.0
C      1  0.4472380000000  0.5416560000000  0.4822190000000 1.0
C      1  0.5475380000000  0.5472140000000  0.5418280000000 1.0
C      1  0.4934430000000  0.5031780000000  0.4057180000000 1.0
C      1  0.5048480000000  0.4434980000000  0.5598110000000 1.0
C      1  0.4568490000000  0.5063030000000  0.5644740000000 1.0
C      1  0.4861240000000  0.5504150000000  0.5425450000000 1.0
C      1  0.5412290000000  0.4520750000000  0.4429710000000 1.0
C      1  0.5026150000000  0.4674420000000  0.4722280000000 1.0
C      1  0.4766060000000  0.5069690000000  0.4884030000000 1.0
C      1  0.5634400000000  0.5260550000000  0.5204790000000 1.0
C      1  0.5079940000000  0.5411430000000  0.4601630000000 1.0
C      1  0.4997070000000  0.4344330000000  0.4646050000000 1.0
C      1  0.5794490000000  0.4742390000000  0.5115750000000 1.0
C      1  0.4461900000000  0.5199630000000  0.4270200000000 1.0
C      1  0.5544470000000  0.4613290000000  0.4924600000000 1.0
C      1  0.4750680000000  0.5593760000000  0.4732370000000 1.0
C      1  0.4253610000000  0.5349320000000  0.5320540000000 1.0
C      1  0.4081750000000  0.5144990000000  0.4891710000000 1.0
C      1  0.4730960000000  0.5287270000000  0.4285760000000 1.0
C      1  0.4639950000000  0.4614950000000  0.4450210000000 1.0
C      1  0.5036080000000  0.4887010000000  0.4980720000000 1.0
C      1  0.5050290000000  0.4317960000000  0.5216780000000 1.0
C      1  0.4826540000000  0.5513720000000  0.4424050000000 1.0
C      1  0.5213220000000  0.5128860000000  0.4467240000000 1.0
C      1  0.5446910000000  0.4920340000000  0.5033470000000 1.0
C      1  0.4361850000000  0.4901770000000  0.5721490000000 1.0
C      1  0.4991870000000  0.4708190000000  0.5727530000000 1.0
C      1  0.5000020000000  0.5275830000000  0.4895600000000 1.0
C      1  0.4744340000000  0.5020570000000  0.5396420000000 1.0
C      1  0.4397970000000  0.5063020000000  0.4512850000000 1.0
C      1  0.5796220000000  0.5544620000000  0.5111420000000 1.0
C      1  0.4139550000000  0.5097610000000  0.5167570000000 1.0
C      1  0.5448410000000  0.5022860000000  0.5361370000000 1.0
C      1  0.4280660000000  0.5221520000000  0.4706630000000 1.0
C      1  0.5211160000000  0.4797670000000  0.5327850000000 1.0
C      1  0.5356280000000  0.5755730000000  0.5270230000000 1.0
C      1  0.4568490000000  0.5564850000000  0.5308220000000 1.0
C      1  0.5375590000000  0.4550460000000  0.5213080000000 1.0
C      1  0.5260510000000  0.5076690000000  0.4805570000000 1.0
C      1  0.4899220000000  0.4760930000000  0.5425910000000 1.0
C      1  0.4578170000000  0.4388050000000  0.5213010000000 1.0
C      1  0.5467450000000  0.5341990000000  0.4392410000000 1.0
C      1  0.5156310000000  0.5182220000000  0.4133310000000 1.0
C      1  0.4497690000000  0.4438900000000  0.4621610000000 1.0
C      1  0.5177340000000  0.5594430000000  0.5504960000000 1.0
C      1  0.5507420000000  0.4602600000000  0.5657480000000 1.0
END
