TITL C-2847947-6848-336 -0.00236338834967237 125000 -712.670319561448 0 0 129 (C1) n - 1
REM
REM in /home/bkarasulu/work/CARBON/AIRSS/Generating-Clusters/AIREBO/with-SteepDescent/Only-C1/SD-CG-opt/Try1-1.4A-POS3A/HFTN-CG
REM
REM
REM
REM
REM
REM ./C.cell (11c1c37f851c82e70ff6c80c92926a4b)
REM
REM compiler GCC version 9.2.1 20190827 (Red Hat 9.2.1-1)
REM options -cpp -mtune=generic -march=x86-64 -g -O0 -fpre-include=/usr/include/finclude/math-vector-fortran.h
REM seed 2001548020 351213099 115580081 -1432297624 -1438171663 779598407 -777522756 675570402 1176092994 1265338168 -2087538023 -2045227898 580597247 528223748 926766792 778920735 -1480440880 775465004 878058896 -687855241 -1113997915 1125280595 -195777097 -1055942259 -287190853 2103309396 2105817319 -923878776 1539361446 -1332207387 -1115068765 1524792603 2086235956
REM
CELL 1.54180   50.00000   50.00000   50.00000   90.00000   90.00000   90.00000
LATT -1
SFAC C  
C      1  0.6155150000000  0.4870590000000  0.4885390000000 1.0
C      1  0.5553560000000  0.4531870000000  0.4433980000000 1.0
C      1  0.4314350000000  0.4323360000000  0.4922760000000 1.0
C      1  0.4709600000000  0.4183990000000  0.5404380000000 1.0
C      1  0.5413550000000  0.5017650000000  0.5090290000000 1.0
C      1  0.5103440000000  0.5856990000000  0.5429350000000 1.0
C      1  0.5427460000000  0.5486270000000  0.5724170000000 1.0
C      1  0.5815850000000  0.4897150000000  0.5560240000000 1.0
C      1  0.4184100000000  0.5281350000000  0.4673010000000 1.0
C      1  0.5146740000000  0.4174280000000  0.4999490000000 1.0
C      1  0.5208230000000  0.4819430000000  0.4010970000000 1.0
C      1  0.4834140000000  0.5005800000000  0.4407190000000 1.0
C      1  0.5382340000000  0.5489950000000  0.4377070000000 1.0
C      1  0.5006510000000  0.4558190000000  0.5620710000000 1.0
C      1  0.4556340000000  0.4547860000000  0.5359890000000 1.0
C      1  0.5286050000000  0.5276110000000  0.4601650000000 1.0
C      1  0.5082390000000  0.4788780000000  0.6060570000000 1.0
C      1  0.5775850000000  0.4281510000000  0.5113990000000 1.0
C      1  0.4638120000000  0.4877880000000  0.5632550000000 1.0
C      1  0.5455970000000  0.5263490000000  0.4859260000000 1.0
C      1  0.5330980000000  0.4790030000000  0.5917460000000 1.0
C      1  0.5090120000000  0.4479020000000  0.4859740000000 1.0
C      1  0.4613500000000  0.5403880000000  0.4585870000000 1.0
C      1  0.5264950000000  0.4961460000000  0.4363740000000 1.0
C      1  0.5684340000000  0.5459110000000  0.5259830000000 1.0
C      1  0.5695150000000  0.5374450000000  0.4444910000000 1.0
C      1  0.5543700000000  0.5301390000000  0.4144400000000 1.0
C      1  0.4221070000000  0.4861250000000  0.4338900000000 1.0
C      1  0.4328550000000  0.5613420000000  0.5013440000000 1.0
C      1  0.4607910000000  0.5773450000000  0.4990320000000 1.0
C      1  0.4565320000000  0.4967890000000  0.5939470000000 1.0
C      1  0.4867830000000  0.5414210000000  0.5620670000000 1.0
C      1  0.4618380000000  0.4924050000000  0.4653880000000 1.0
C      1  0.5228490000000  0.4626170000000  0.5203900000000 1.0
C      1  0.4507150000000  0.4296510000000  0.5163800000000 1.0
C      1  0.5101340000000  0.4751110000000  0.4551500000000 1.0
C      1  0.4688200000000  0.5442990000000  0.4988100000000 1.0
C      1  0.4897650000000  0.4814760000000  0.4761250000000 1.0
C      1  0.4756590000000  0.4112440000000  0.5061630000000 1.0
C      1  0.5170440000000  0.4377550000000  0.5406640000000 1.0
C      1  0.4371410000000  0.5552160000000  0.5512060000000 1.0
C      1  0.5487540000000  0.4399580000000  0.5484560000000 1.0
C      1  0.4948740000000  0.4887250000000  0.5590080000000 1.0
C      1  0.4288800000000  0.5481540000000  0.5249370000000 1.0
C      1  0.5332910000000  0.4654490000000  0.5642120000000 1.0
C      1  0.5765150000000  0.5204060000000  0.5048880000000 1.0
C      1  0.5955350000000  0.4867110000000  0.4657020000000 1.0
C      1  0.4799420000000  0.4289590000000  0.4496000000000 1.0
C      1  0.4727990000000  0.5463720000000  0.5314590000000 1.0
C      1  0.4554920000000  0.4635350000000  0.5854630000000 1.0
C      1  0.4236750000000  0.5558550000000  0.4740110000000 1.0
C      1  0.4417900000000  0.4200750000000  0.4513510000000 1.0
C      1  0.5484530000000  0.4866630000000  0.4822670000000 1.0
C      1  0.4476390000000  0.5262020000000  0.5890850000000 1.0
C      1  0.4244790000000  0.4657650000000  0.5347310000000 1.0
C      1  0.4534600000000  0.5094310000000  0.4273760000000 1.0
C      1  0.4914420000000  0.5918860000000  0.4948900000000 1.0
C      1  0.5155220000000  0.5372460000000  0.5456520000000 1.0
C      1  0.5197990000000  0.4056330000000  0.4724490000000 1.0
C      1  0.4689240000000  0.5435510000000  0.5881170000000 1.0
C      1  0.5065460000000  0.4916760000000  0.5271940000000 1.0
C      1  0.4378480000000  0.5720940000000  0.4542390000000 1.0
C      1  0.5015230000000  0.4148690000000  0.5279790000000 1.0
C      1  0.5089110000000  0.5577800000000  0.4229970000000 1.0
C      1  0.5281070000000  0.5079510000000  0.5482890000000 1.0
C      1  0.4621130000000  0.4253950000000  0.4783490000000 1.0
C      1  0.4974760000000  0.4023280000000  0.4568150000000 1.0
C      1  0.5196550000000  0.5273440000000  0.5148570000000 1.0
C      1  0.5294730000000  0.5267840000000  0.5859870000000 1.0
C      1  0.5507810000000  0.5034260000000  0.4540100000000 1.0
C      1  0.4549300000000  0.5191920000000  0.4804840000000 1.0
C      1  0.5379740000000  0.5548940000000  0.5155590000000 1.0
C      1  0.4701800000000  0.5705930000000  0.4688340000000 1.0
C      1  0.5738340000000  0.5411350000000  0.4780520000000 1.0
C      1  0.4912190000000  0.5949580000000  0.4609990000000 1.0
C      1  0.5017670000000  0.5168010000000  0.5769950000000 1.0
C      1  0.5194390000000  0.5664660000000  0.4825660000000 1.0
C      1  0.4949650000000  0.5357200000000  0.4115700000000 1.0
C      1  0.4888680000000  0.4963910000000  0.5977200000000 1.0
C      1  0.4709180000000  0.4446330000000  0.5623690000000 1.0
C      1  0.5704860000000  0.4444870000000  0.5318220000000 1.0
C      1  0.5883920000000  0.4226640000000  0.4656980000000 1.0
C      1  0.4286710000000  0.5329840000000  0.5693660000000 1.0
C      1  0.5441480000000  0.4817340000000  0.5363760000000 1.0
C      1  0.4121480000000  0.4540730000000  0.5098580000000 1.0
C      1  0.4967870000000  0.4741480000000  0.4238920000000 1.0
C      1  0.5766270000000  0.4746380000000  0.5292500000000 1.0
C      1  0.4347870000000  0.4823770000000  0.4930730000000 1.0
C      1  0.5296060000000  0.4362260000000  0.4375610000000 1.0
C      1  0.4844880000000  0.5173340000000  0.5305410000000 1.0
C      1  0.4226990000000  0.5146760000000  0.4425450000000 1.0
C      1  0.4998330000000  0.5182740000000  0.4649430000000 1.0
C      1  0.5037750000000  0.5044980000000  0.4958030000000 1.0
C      1  0.4595910000000  0.4727950000000  0.5005680000000 1.0
C      1  0.4743520000000  0.4808270000000  0.5256000000000 1.0
C      1  0.5087560000000  0.5111110000000  0.4115230000000 1.0
C      1  0.4605540000000  0.5610470000000  0.4315870000000 1.0
C      1  0.5029700000000  0.4431220000000  0.4325180000000 1.0
C      1  0.4547650000000  0.4480440000000  0.4370110000000 1.0
C      1  0.5589850000000  0.5087090000000  0.5625540000000 1.0
C      1  0.5406480000000  0.5742230000000  0.4576810000000 1.0
C      1  0.4258060000000  0.5178010000000  0.5241260000000 1.0
C      1  0.5464060000000  0.5034200000000  0.5910340000000 1.0
C      1  0.4094660000000  0.4860200000000  0.5563020000000 1.0
C      1  0.4952080000000  0.5491320000000  0.4779220000000 1.0
C      1  0.5642760000000  0.4344930000000  0.4807580000000 1.0
C      1  0.4144070000000  0.5129030000000  0.5539480000000 1.0
C      1  0.4198010000000  0.4597240000000  0.4771290000000 1.0
C      1  0.4508090000000  0.4766570000000  0.4184380000000 1.0
C      1  0.4900270000000  0.5760590000000  0.4346450000000 1.0
C      1  0.5874750000000  0.5668780000000  0.5233810000000 1.0
C      1  0.4447350000000  0.4929220000000  0.5376390000000 1.0
C      1  0.5382830000000  0.4407290000000  0.5017770000000 1.0
C      1  0.5641040000000  0.5382570000000  0.5554850000000 1.0
C      1  0.4631380000000  0.5712750000000  0.5500850000000 1.0
C      1  0.4776660000000  0.4525270000000  0.4861640000000 1.0
C      1  0.5164320000000  0.5814160000000  0.5129710000000 1.0
C      1  0.5344960000000  0.4615990000000  0.4680620000000 1.0
C      1  0.5742070000000  0.4670200000000  0.4813250000000 1.0
C      1  0.5404510000000  0.4204970000000  0.4607720000000 1.0
C      1  0.5854230000000  0.4899590000000  0.5041040000000 1.0
C      1  0.4669150000000  0.5353660000000  0.4157320000000 1.0
C      1  0.5535070000000  0.5652400000000  0.4871380000000 1.0
C      1  0.5821440000000  0.5089310000000  0.4561680000000 1.0
C      1  0.4402170000000  0.4705720000000  0.4555710000000 1.0
C      1  0.5239060000000  0.5664390000000  0.5574800000000 1.0
C      1  0.5400140000000  0.5101360000000  0.4016570000000 1.0
C      1  0.4261090000000  0.5112980000000  0.4949620000000 1.0
C      1  0.4834300000000  0.5907500000000  0.5510910000000 1.0
END
