TITL C-2848501-3133-262 -0.00067273877515654 125000 -495.466532730303 0 0 92 (C1) n - 1
REM
REM in /home/bkarasulu/work/CARBON/AIRSS/Generating-Clusters/AIREBO/with-SteepDescent/Only-C1/SD-CG-opt/Try1-1.4A-POS3A/HFTN-CG
REM
REM
REM
REM
REM
REM ./C.cell (11c1c37f851c82e70ff6c80c92926a4b)
REM
REM compiler GCC version 9.2.1 20190827 (Red Hat 9.2.1-1)
REM options -cpp -mtune=generic -march=x86-64 -g -O0 -fpre-include=/usr/include/finclude/math-vector-fortran.h
REM seed 1005496018 21337832 1527571054 237459988 -535003801 1069180403 -545148706 -221172239 554220451 1543511834 -2139249868 -1716779865 131598934 -757907995 -606671130 258030697 738846533 -1377335043 638780041 -1463909652 -945514402 -463566149 1365076643 1504901565 -35940257 35416852 458296152 -498982437 -457169620 61333211 1463195619 -1716272771 -698136937
REM
CELL 1.54180   50.00000   50.00000   50.00000   90.00000   90.00000   90.00000
LATT -1
SFAC C  
C      1  0.5253350000000  0.5372960000000  0.4419350000000 1.0
C      1  0.5427170000000  0.4762700000000  0.5446550000000 1.0
C      1  0.4941850000000  0.5127640000000  0.4374170000000 1.0
C      1  0.5468790000000  0.4754580000000  0.5109100000000 1.0
C      1  0.4948810000000  0.5437990000000  0.4491560000000 1.0
C      1  0.4543530000000  0.4857510000000  0.5866030000000 1.0
C      1  0.4610050000000  0.4681230000000  0.5125520000000 1.0
C      1  0.4227830000000  0.5414820000000  0.5240930000000 1.0
C      1  0.5511160000000  0.5454850000000  0.5302720000000 1.0
C      1  0.5083820000000  0.4458850000000  0.5270450000000 1.0
C      1  0.4837520000000  0.5019790000000  0.5921740000000 1.0
C      1  0.4735060000000  0.4064960000000  0.5009620000000 1.0
C      1  0.4882460000000  0.4449880000000  0.4454960000000 1.0
C      1  0.5364060000000  0.4841810000000  0.4789470000000 1.0
C      1  0.5086720000000  0.5214710000000  0.4994140000000 1.0
C      1  0.4932390000000  0.5755390000000  0.4559300000000 1.0
C      1  0.5178270000000  0.5823430000000  0.4986940000000 1.0
C      1  0.5286730000000  0.4930940000000  0.4048780000000 1.0
C      1  0.4058560000000  0.5162230000000  0.5408900000000 1.0
C      1  0.5734680000000  0.5028560000000  0.4734940000000 1.0
C      1  0.4609540000000  0.5649850000000  0.4541610000000 1.0
C      1  0.4317010000000  0.5274180000000  0.5597980000000 1.0
C      1  0.4517790000000  0.5383760000000  0.5782520000000 1.0
C      1  0.4127500000000  0.4866490000000  0.5369820000000 1.0
C      1  0.4684510000000  0.5435000000000  0.5507680000000 1.0
C      1  0.5171900000000  0.5846900000000  0.4687340000000 1.0
C      1  0.4283360000000  0.4762120000000  0.5148100000000 1.0
C      1  0.4571270000000  0.5104570000000  0.4533000000000 1.0
C      1  0.5507910000000  0.4387180000000  0.5420890000000 1.0
C      1  0.4762640000000  0.5472550000000  0.4778000000000 1.0
C      1  0.5584700000000  0.5540280000000  0.4581630000000 1.0
C      1  0.5275890000000  0.4854550000000  0.5723110000000 1.0
C      1  0.4835460000000  0.4995660000000  0.5025930000000 1.0
C      1  0.5705480000000  0.4449190000000  0.5009170000000 1.0
C      1  0.5158000000000  0.4584570000000  0.4383580000000 1.0
C      1  0.4325380000000  0.4710720000000  0.5829530000000 1.0
C      1  0.4862930000000  0.4839330000000  0.4466610000000 1.0
C      1  0.4984710000000  0.4769990000000  0.5215090000000 1.0
C      1  0.4614380000000  0.4619200000000  0.4393310000000 1.0
C      1  0.5046760000000  0.4869820000000  0.5498660000000 1.0
C      1  0.5694180000000  0.5269730000000  0.5136970000000 1.0
C      1  0.4432830000000  0.5150370000000  0.5303020000000 1.0
C      1  0.5068310000000  0.4717920000000  0.4684450000000 1.0
C      1  0.4847690000000  0.5337100000000  0.5857680000000 1.0
C      1  0.5202360000000  0.6076220000000  0.5211960000000 1.0
C      1  0.5385410000000  0.5081000000000  0.4548600000000 1.0
C      1  0.5120510000000  0.5154050000000  0.5769690000000 1.0
C      1  0.5097210000000  0.5145030000000  0.5305250000000 1.0
C      1  0.5379840000000  0.5480820000000  0.5025510000000 1.0
C      1  0.5195660000000  0.5783450000000  0.5326870000000 1.0
C      1  0.5747520000000  0.4740240000000  0.4914790000000 1.0
C      1  0.4784800000000  0.5169520000000  0.4737610000000 1.0
C      1  0.5391090000000  0.4275310000000  0.4482950000000 1.0
C      1  0.4776010000000  0.4852550000000  0.5641760000000 1.0
C      1  0.4633720000000  0.4898680000000  0.5357130000000 1.0
C      1  0.5382070000000  0.4422980000000  0.5111000000000 1.0
C      1  0.5128690000000  0.4377800000000  0.4882980000000 1.0
C      1  0.4517290000000  0.5050750000000  0.5006540000000 1.0
C      1  0.4450920000000  0.5352670000000  0.4468250000000 1.0
C      1  0.5414760000000  0.5745840000000  0.4575270000000 1.0
C      1  0.5635490000000  0.5264310000000  0.4428360000000 1.0
C      1  0.4368030000000  0.5502020000000  0.4729950000000 1.0
C      1  0.4143930000000  0.4721730000000  0.5619430000000 1.0
C      1  0.4810490000000  0.5177260000000  0.5413950000000 1.0
C      1  0.4477460000000  0.4843860000000  0.4572740000000 1.0
C      1  0.5410460000000  0.4095500000000  0.5090360000000 1.0
C      1  0.5099230000000  0.4254350000000  0.4602400000000 1.0
C      1  0.4455930000000  0.4508590000000  0.4196110000000 1.0
C      1  0.5611040000000  0.5324140000000  0.4828980000000 1.0
C      1  0.5628500000000  0.4729200000000  0.4607710000000 1.0
C      1  0.5161330000000  0.5608970000000  0.5532960000000 1.0
C      1  0.4733270000000  0.5550700000000  0.5066670000000 1.0
C      1  0.5651100000000  0.5015720000000  0.5236860000000 1.0
C      1  0.4911420000000  0.4239130000000  0.5102840000000 1.0
C      1  0.5425900000000  0.5213100000000  0.4173810000000 1.0
C      1  0.5093850000000  0.5167740000000  0.4117010000000 1.0
C      1  0.5095740000000  0.5116380000000  0.4677220000000 1.0
C      1  0.4547290000000  0.5530070000000  0.5261300000000 1.0
C      1  0.4366220000000  0.5341930000000  0.4958770000000 1.0
C      1  0.4984960000000  0.3964610000000  0.4616020000000 1.0
C      1  0.5925680000000  0.5130170000000  0.4500340000000 1.0
C      1  0.4781640000000  0.3903420000000  0.4790820000000 1.0
C      1  0.4387770000000  0.4812130000000  0.4832240000000 1.0
C      1  0.5541940000000  0.5058740000000  0.5517880000000 1.0
C      1  0.5187700000000  0.4686320000000  0.4127810000000 1.0
C      1  0.5532050000000  0.4479610000000  0.4470110000000 1.0
C      1  0.4913830000000  0.5597370000000  0.5663430000000 1.0
C      1  0.5301810000000  0.5299500000000  0.5521090000000 1.0
C      1  0.5090960000000  0.4349620000000  0.5559070000000 1.0
C      1  0.5071850000000  0.4261350000000  0.5797930000000 1.0
C      1  0.5053930000000  0.5534710000000  0.5043390000000 1.0
C      1  0.4888400000000  0.4604960000000  0.4945440000000 1.0
END
