TITL C-2847944-5688-399 -0.00205229833871679 125000 -985.863428106726 0 0 182 (C1) n - 1
REM
REM in /home/bkarasulu/work/CARBON/AIRSS/Generating-Clusters/AIREBO/with-SteepDescent/Only-C1/SD-CG-opt/Try1-1.4A-POS3A/HFTN-CG
REM
REM
REM
REM
REM
REM ./C.cell (11c1c37f851c82e70ff6c80c92926a4b)
REM
REM compiler GCC version 9.2.1 20190827 (Red Hat 9.2.1-1)
REM options -cpp -mtune=generic -march=x86-64 -g -O0 -fpre-include=/usr/include/finclude/math-vector-fortran.h
REM seed 1310366669 -1545518408 1636287564 336985478 457770854 1308643690 -1985128446 1959981565 771947671 -926800339 746682506 689460549 -1579845685 -1492108922 -1685013329 140927864 1712284089 1567080128 -372815567 1245606038 -117450886 1046990275 2037326587 -2092723555 -1764343162 1671320610 274716734 -1292526687 -487221659 -1540264412 -973622920 -1537196342 -988946448
REM
CELL 1.54180   50.00000   50.00000   50.00000   90.00000   90.00000   90.00000
LATT -1
SFAC C  
C      1  0.5456580000000  0.5609250000000  0.5081960000000 1.0
C      1  0.4589600000000  0.5609720000000  0.4180440000000 1.0
C      1  0.4122630000000  0.4873590000000  0.5550390000000 1.0
C      1  0.5969430000000  0.5067980000000  0.4785590000000 1.0
C      1  0.5559560000000  0.5752270000000  0.4179280000000 1.0
C      1  0.5786980000000  0.4208760000000  0.5428290000000 1.0
C      1  0.4330940000000  0.5225000000000  0.4621600000000 1.0
C      1  0.5450770000000  0.5049020000000  0.4023710000000 1.0
C      1  0.5383520000000  0.5598250000000  0.5717880000000 1.0
C      1  0.4439590000000  0.4845110000000  0.4560080000000 1.0
C      1  0.5225490000000  0.4522850000000  0.5140140000000 1.0
C      1  0.5329750000000  0.4225270000000  0.5672670000000 1.0
C      1  0.4762430000000  0.5384290000000  0.5626190000000 1.0
C      1  0.4874980000000  0.4644750000000  0.5665710000000 1.0
C      1  0.3941010000000  0.4986190000000  0.5096920000000 1.0
C      1  0.5349130000000  0.6095570000000  0.5185820000000 1.0
C      1  0.4548750000000  0.5142260000000  0.4869360000000 1.0
C      1  0.4254310000000  0.5853690000000  0.4835700000000 1.0
C      1  0.5394840000000  0.4998590000000  0.5639580000000 1.0
C      1  0.5551690000000  0.4693800000000  0.5912910000000 1.0
C      1  0.5598950000000  0.5529330000000  0.4785710000000 1.0
C      1  0.4596650000000  0.4142540000000  0.5612270000000 1.0
C      1  0.5428260000000  0.5898150000000  0.4964260000000 1.0
C      1  0.5352480000000  0.5238590000000  0.4983310000000 1.0
C      1  0.4418590000000  0.4610860000000  0.4237900000000 1.0
C      1  0.3916970000000  0.5581070000000  0.4617170000000 1.0
C      1  0.4568830000000  0.4814900000000  0.5940570000000 1.0
C      1  0.4840370000000  0.5088030000000  0.5584890000000 1.0
C      1  0.4595280000000  0.4059170000000  0.4666780000000 1.0
C      1  0.5486160000000  0.3960460000000  0.5208250000000 1.0
C      1  0.4779260000000  0.4658030000000  0.5352230000000 1.0
C      1  0.3948520000000  0.4953650000000  0.4788350000000 1.0
C      1  0.5177570000000  0.4702820000000  0.5410070000000 1.0
C      1  0.5165200000000  0.5620880000000  0.4496500000000 1.0
C      1  0.4811900000000  0.4577540000000  0.4247970000000 1.0
C      1  0.5003250000000  0.5062770000000  0.3898230000000 1.0
C      1  0.4467230000000  0.5530200000000  0.4920150000000 1.0
C      1  0.5633070000000  0.5193890000000  0.5384940000000 1.0
C      1  0.5803140000000  0.4586330000000  0.4663200000000 1.0
C      1  0.4948860000000  0.4514190000000  0.3968160000000 1.0
C      1  0.5167000000000  0.5481460000000  0.5130650000000 1.0
C      1  0.5069140000000  0.6078850000000  0.5212370000000 1.0
C      1  0.4849830000000  0.5527230000000  0.4035590000000 1.0
C      1  0.5037200000000  0.4015200000000  0.4988960000000 1.0
C      1  0.4237810000000  0.4772580000000  0.5246830000000 1.0
C      1  0.4998790000000  0.5335120000000  0.5856560000000 1.0
C      1  0.4804440000000  0.4625210000000  0.6104790000000 1.0
C      1  0.5404730000000  0.4273490000000  0.4416400000000 1.0
C      1  0.5554530000000  0.4905730000000  0.4914580000000 1.0
C      1  0.5558570000000  0.5206310000000  0.5844130000000 1.0
C      1  0.4997450000000  0.5836400000000  0.5410350000000 1.0
C      1  0.4399190000000  0.5626890000000  0.4622350000000 1.0
C      1  0.5072400000000  0.4552760000000  0.6000790000000 1.0
C      1  0.4132850000000  0.4493130000000  0.4633750000000 1.0
C      1  0.4968780000000  0.4244930000000  0.4094900000000 1.0
C      1  0.4147680000000  0.5537440000000  0.4452860000000 1.0
C      1  0.5722290000000  0.5415100000000  0.5167860000000 1.0
C      1  0.5320150000000  0.4496940000000  0.4735170000000 1.0
C      1  0.4356530000000  0.5484100000000  0.5300710000000 1.0
C      1  0.4688600000000  0.5448390000000  0.5317870000000 1.0
C      1  0.5559750000000  0.4808920000000  0.5449790000000 1.0
C      1  0.5243020000000  0.5452120000000  0.3959970000000 1.0
C      1  0.5174010000000  0.4527530000000  0.5677260000000 1.0
C      1  0.4979440000000  0.5807900000000  0.5748860000000 1.0
C      1  0.5299340000000  0.4762690000000  0.6021720000000 1.0
C      1  0.5274060000000  0.4756920000000  0.4933710000000 1.0
C      1  0.5020840000000  0.4919340000000  0.4958600000000 1.0
C      1  0.5556410000000  0.4171060000000  0.5013780000000 1.0
C      1  0.5752320000000  0.5797620000000  0.5273000000000 1.0
C      1  0.4276910000000  0.4375810000000  0.4414630000000 1.0
C      1  0.4803200000000  0.4320230000000  0.5321690000000 1.0
C      1  0.5722110000000  0.4917750000000  0.5851090000000 1.0
C      1  0.4653660000000  0.4831520000000  0.4798870000000 1.0
C      1  0.4972130000000  0.5926070000000  0.4686440000000 1.0
C      1  0.5700140000000  0.4515860000000  0.5471600000000 1.0
C      1  0.5326890000000  0.4563960000000  0.4257290000000 1.0
C      1  0.4908730000000  0.5614010000000  0.5187530000000 1.0
C      1  0.5619550000000  0.5918120000000  0.4696020000000 1.0
C      1  0.5318640000000  0.4940040000000  0.4460370000000 1.0
C      1  0.5214290000000  0.5040090000000  0.5385400000000 1.0
C      1  0.4617720000000  0.4559950000000  0.4508780000000 1.0
C      1  0.4956120000000  0.4743830000000  0.4670450000000 1.0
C      1  0.4927130000000  0.6097380000000  0.4976710000000 1.0
C      1  0.5800080000000  0.5757520000000  0.4938030000000 1.0
C      1  0.5212530000000  0.4643030000000  0.3963740000000 1.0
C      1  0.5789710000000  0.5549450000000  0.5472870000000 1.0
C      1  0.5383090000000  0.5234310000000  0.6120620000000 1.0
C      1  0.5991150000000  0.4760570000000  0.4866730000000 1.0
C      1  0.4388560000000  0.5950160000000  0.5426720000000 1.0
C      1  0.5589420000000  0.5182770000000  0.4746320000000 1.0
C      1  0.4183000000000  0.5274670000000  0.4319470000000 1.0
C      1  0.4033290000000  0.5210020000000  0.4708350000000 1.0
C      1  0.5068720000000  0.4765190000000  0.4350140000000 1.0
C      1  0.5502300000000  0.5906490000000  0.5354900000000 1.0
C      1  0.4752810000000  0.5401950000000  0.4787410000000 1.0
C      1  0.5268850000000  0.5467960000000  0.4731040000000 1.0
C      1  0.5834180000000  0.4469800000000  0.4969040000000 1.0
C      1  0.4905080000000  0.5019680000000  0.4192650000000 1.0
C      1  0.4698200000000  0.5926280000000  0.5544560000000 1.0
C      1  0.5956350000000  0.5292190000000  0.4966580000000 1.0
C      1  0.5919920000000  0.4224310000000  0.5179380000000 1.0
C      1  0.4893960000000  0.5067350000000  0.4586320000000 1.0
C      1  0.4816320000000  0.5165880000000  0.6088220000000 1.0
C      1  0.4447080000000  0.5762870000000  0.5676210000000 1.0
C      1  0.3986240000000  0.4849200000000  0.4298520000000 1.0
C      1  0.5489100000000  0.4223660000000  0.4742540000000 1.0
C      1  0.4400060000000  0.4117770000000  0.4461170000000 1.0
C      1  0.4624370000000  0.5066190000000  0.4379000000000 1.0
C      1  0.5510020000000  0.4751380000000  0.4613450000000 1.0
C      1  0.4543410000000  0.4480660000000  0.5967660000000 1.0
C      1  0.4625360000000  0.5867180000000  0.4285970000000 1.0
C      1  0.5095480000000  0.4223140000000  0.5920660000000 1.0
C      1  0.5676740000000  0.4930090000000  0.5183380000000 1.0
C      1  0.4152810000000  0.4557120000000  0.5647250000000 1.0
C      1  0.4558960000000  0.5855450000000  0.4957920000000 1.0
C      1  0.5027050000000  0.4412220000000  0.4642740000000 1.0
C      1  0.5303840000000  0.5691510000000  0.5441440000000 1.0
C      1  0.4095290000000  0.5135370000000  0.5335090000000 1.0
C      1  0.5340430000000  0.5721380000000  0.4005490000000 1.0
C      1  0.4803530000000  0.4342190000000  0.5793390000000 1.0
C      1  0.4104860000000  0.4787060000000  0.4584260000000 1.0
C      1  0.4548810000000  0.5395010000000  0.4423380000000 1.0
C      1  0.4474560000000  0.5491370000000  0.5682690000000 1.0
C      1  0.5082410000000  0.4085140000000  0.4717570000000 1.0
C      1  0.4542250000000  0.4018240000000  0.5000210000000 1.0
C      1  0.5187730000000  0.5056140000000  0.5903020000000 1.0
C      1  0.4909220000000  0.4452220000000  0.5036570000000 1.0
C      1  0.4435020000000  0.4306070000000  0.4932610000000 1.0
C      1  0.5651320000000  0.4578910000000  0.4356560000000 1.0
C      1  0.4938940000000  0.3905140000000  0.5295280000000 1.0
C      1  0.4878630000000  0.4923710000000  0.5852170000000 1.0
C      1  0.5739940000000  0.5548800000000  0.4214650000000 1.0
C      1  0.5074130000000  0.5731500000000  0.4189180000000 1.0
C      1  0.4718120000000  0.4364800000000  0.4769060000000 1.0
C      1  0.5558420000000  0.4457580000000  0.5168010000000 1.0
C      1  0.4177900000000  0.4315920000000  0.5329630000000 1.0
C      1  0.4371070000000  0.4949210000000  0.5762040000000 1.0
C      1  0.5974950000000  0.4832530000000  0.5168920000000 1.0
C      1  0.5561980000000  0.4459350000000  0.5756170000000 1.0
C      1  0.6005030000000  0.4620020000000  0.5424480000000 1.0
C      1  0.4827300000000  0.5717740000000  0.4900510000000 1.0
C      1  0.5253180000000  0.4912400000000  0.3882970000000 1.0
C      1  0.5774930000000  0.5468970000000  0.4501110000000 1.0
C      1  0.4425830000000  0.4894290000000  0.4162940000000 1.0
C      1  0.5244400000000  0.3819950000000  0.5170900000000 1.0
C      1  0.5632090000000  0.5468900000000  0.5702640000000 1.0
C      1  0.4636680000000  0.5158590000000  0.5197530000000 1.0
C      1  0.4435310000000  0.4436460000000  0.5669350000000 1.0
C      1  0.4880290000000  0.5449810000000  0.4475750000000 1.0
C      1  0.5335350000000  0.5358030000000  0.5378990000000 1.0
C      1  0.4906480000000  0.5301590000000  0.3807670000000 1.0
C      1  0.4880030000000  0.5904030000000  0.4394470000000 1.0
C      1  0.4229390000000  0.5349700000000  0.5026600000000 1.0
C      1  0.4195770000000  0.4435020000000  0.4897010000000 1.0
C      1  0.6039430000000  0.5555220000000  0.4893150000000 1.0
C      1  0.5139420000000  0.5600660000000  0.5850960000000 1.0
C      1  0.3936660000000  0.5439730000000  0.4882420000000 1.0
C      1  0.5426790000000  0.5828040000000  0.4430640000000 1.0
C      1  0.4270130000000  0.5011480000000  0.5014020000000 1.0
C      1  0.4474870000000  0.4704940000000  0.5464110000000 1.0
C      1  0.5175850000000  0.4211030000000  0.5207180000000 1.0
C      1  0.4472400000000  0.4240460000000  0.5324150000000 1.0
C      1  0.5073720000000  0.4267060000000  0.4338810000000 1.0
C      1  0.5682760000000  0.5217030000000  0.4207860000000 1.0
C      1  0.4901940000000  0.4965330000000  0.5273810000000 1.0
C      1  0.4466690000000  0.5044570000000  0.5449910000000 1.0
C      1  0.4112910000000  0.4515680000000  0.5151500000000 1.0
C      1  0.5272050000000  0.3981380000000  0.4529070000000 1.0
C      1  0.5044180000000  0.5236950000000  0.4839840000000 1.0
C      1  0.5550110000000  0.4056290000000  0.5473680000000 1.0
C      1  0.4311730000000  0.5796630000000  0.5172700000000 1.0
C      1  0.4641650000000  0.3954930000000  0.5319310000000 1.0
C      1  0.4170360000000  0.5031580000000  0.4174410000000 1.0
C      1  0.5356060000000  0.5186100000000  0.4296940000000 1.0
C      1  0.5056310000000  0.5323550000000  0.4213520000000 1.0
C      1  0.4651200000000  0.4661050000000  0.5036460000000 1.0
C      1  0.5815890000000  0.5138990000000  0.4512530000000 1.0
C      1  0.4262170000000  0.5291010000000  0.5564540000000 1.0
C      1  0.5835310000000  0.5055890000000  0.5600880000000 1.0
C      1  0.5050610000000  0.4157880000000  0.5490530000000 1.0
C      1  0.6048830000000  0.4927750000000  0.5478370000000 1.0
C      1  0.5273460000000  0.5952060000000  0.4692560000000 1.0
END
