TITL C-2848499-1157-113 -0.00870987290987889 125000 -997.241953244513 0 0 183 (C1) n - 1
REM
REM in /home/bkarasulu/work/CARBON/AIRSS/Generating-Clusters/AIREBO/with-SteepDescent/Only-C1/SD-CG-opt/Try1-1.4A-POS3A/HFTN-CG
REM
REM
REM
REM
REM
REM ./C.cell (11c1c37f851c82e70ff6c80c92926a4b)
REM
REM compiler GCC version 9.2.1 20190827 (Red Hat 9.2.1-1)
REM options -cpp -mtune=generic -march=x86-64 -g -O0 -fpre-include=/usr/include/finclude/math-vector-fortran.h
REM seed 972609820 620930955 -504735983 466044667 -684909195 -2077307468 41510551 21345824 -1603778327 320327068 -1539862532 989159729 -1586283735 749667651 -1414805929 -275752255 1765235038 -140698706 27101482 523122752 -682848608 -2034889370 434566189 1512267338 -1619295501 734637316 162954381 -2025435728 -180669667 1802503305 1116621515 1351102211 1923385818
REM
CELL 1.54180   50.00000   50.00000   50.00000   90.00000   90.00000   90.00000
LATT -1
SFAC C  
C      1  0.4508340000000  0.4511790000000  0.5758980000000 1.0
C      1  0.4766330000000  0.5246010000000  0.4364730000000 1.0
C      1  0.5337830000000  0.4290700000000  0.5128950000000 1.0
C      1  0.5497650000000  0.5613260000000  0.4678060000000 1.0
C      1  0.5474730000000  0.4133800000000  0.4372550000000 1.0
C      1  0.5567670000000  0.5803160000000  0.4951840000000 1.0
C      1  0.5375720000000  0.4575610000000  0.4522750000000 1.0
C      1  0.5124510000000  0.5232740000000  0.4936340000000 1.0
C      1  0.4674890000000  0.4787550000000  0.5522440000000 1.0
C      1  0.4172470000000  0.4295040000000  0.5153670000000 1.0
C      1  0.4631120000000  0.4539840000000  0.4799330000000 1.0
C      1  0.4316770000000  0.5251080000000  0.4497090000000 1.0
C      1  0.4825570000000  0.5756230000000  0.5663130000000 1.0
C      1  0.5058650000000  0.4457730000000  0.5636530000000 1.0
C      1  0.4239550000000  0.4617900000000  0.4778910000000 1.0
C      1  0.5607060000000  0.5091880000000  0.4258290000000 1.0
C      1  0.4962150000000  0.6097630000000  0.5263750000000 1.0
C      1  0.4568280000000  0.4647720000000  0.4319110000000 1.0
C      1  0.4408270000000  0.5615850000000  0.4968010000000 1.0
C      1  0.5720140000000  0.5397690000000  0.5197240000000 1.0
C      1  0.4977800000000  0.4704860000000  0.4899930000000 1.0
C      1  0.5065960000000  0.5270310000000  0.5960790000000 1.0
C      1  0.3947060000000  0.4495780000000  0.5166870000000 1.0
C      1  0.4930190000000  0.5492730000000  0.6061940000000 1.0
C      1  0.5037550000000  0.5612530000000  0.4673880000000 1.0
C      1  0.4474090000000  0.5599820000000  0.4121420000000 1.0
C      1  0.5586530000000  0.5020760000000  0.5943740000000 1.0
C      1  0.4307660000000  0.5325160000000  0.4161710000000 1.0
C      1  0.5181700000000  0.4678350000000  0.4168990000000 1.0
C      1  0.4217440000000  0.4749410000000  0.3923210000000 1.0
C      1  0.5588190000000  0.4124790000000  0.5252670000000 1.0
C      1  0.4025930000000  0.4767050000000  0.4978300000000 1.0
C      1  0.4459270000000  0.4950740000000  0.4422810000000 1.0
C      1  0.5735040000000  0.4702910000000  0.4882180000000 1.0
C      1  0.5047070000000  0.4712360000000  0.5289240000000 1.0
C      1  0.5626020000000  0.5801680000000  0.5776230000000 1.0
C      1  0.4664710000000  0.4220790000000  0.5376360000000 1.0
C      1  0.4742440000000  0.5383110000000  0.5284210000000 1.0
C      1  0.4695660000000  0.4356320000000  0.5064080000000 1.0
C      1  0.5300180000000  0.4157240000000  0.4663570000000 1.0
C      1  0.5567090000000  0.5035440000000  0.5544950000000 1.0
C      1  0.5400780000000  0.5929220000000  0.5556100000000 1.0
C      1  0.5801050000000  0.4571130000000  0.5260650000000 1.0
C      1  0.5079540000000  0.3932810000000  0.5216610000000 1.0
C      1  0.4478780000000  0.4789490000000  0.4921000000000 1.0
C      1  0.5064220000000  0.5144560000000  0.4492530000000 1.0
C      1  0.5108360000000  0.4407570000000  0.4796470000000 1.0
C      1  0.5503440000000  0.5351010000000  0.5435180000000 1.0
C      1  0.5682210000000  0.4802100000000  0.4230820000000 1.0
C      1  0.4512670000000  0.4394860000000  0.4529290000000 1.0
C      1  0.4770980000000  0.4102720000000  0.4700470000000 1.0
C      1  0.4909040000000  0.4128960000000  0.4427120000000 1.0
C      1  0.5978950000000  0.5411670000000  0.5403180000000 1.0
C      1  0.5539080000000  0.4620560000000  0.5472130000000 1.0
C      1  0.5262710000000  0.5367490000000  0.4655840000000 1.0
C      1  0.5040240000000  0.5808770000000  0.5435570000000 1.0
C      1  0.5260980000000  0.5062270000000  0.5627100000000 1.0
C      1  0.4173730000000  0.5481130000000  0.5259380000000 1.0
C      1  0.3925650000000  0.5029430000000  0.4807650000000 1.0
C      1  0.4344670000000  0.5288940000000  0.5036630000000 1.0
C      1  0.5986590000000  0.5278900000000  0.4594670000000 1.0
C      1  0.5452270000000  0.4395240000000  0.6025710000000 1.0
C      1  0.4249210000000  0.5210140000000  0.5843390000000 1.0
C      1  0.5109010000000  0.3901390000000  0.4532910000000 1.0
C      1  0.5310370000000  0.3985400000000  0.5382640000000 1.0
C      1  0.5001970000000  0.5818330000000  0.4423470000000 1.0
C      1  0.4426250000000  0.5937250000000  0.5296000000000 1.0
C      1  0.5343860000000  0.4596060000000  0.6134700000000 1.0
C      1  0.4076340000000  0.5567390000000  0.4940480000000 1.0
C      1  0.4963950000000  0.5596630000000  0.4184110000000 1.0
C      1  0.5028100000000  0.4992040000000  0.5961330000000 1.0
C      1  0.5521320000000  0.5489810000000  0.5838610000000 1.0
C      1  0.4800540000000  0.4873550000000  0.5830450000000 1.0
C      1  0.5295420000000  0.5750390000000  0.5836960000000 1.0
C      1  0.4609320000000  0.4043150000000  0.4993600000000 1.0
C      1  0.5343870000000  0.5169280000000  0.4067270000000 1.0
C      1  0.4765510000000  0.4647740000000  0.5159350000000 1.0
C      1  0.5277770000000  0.4675620000000  0.5040240000000 1.0
C      1  0.4687510000000  0.5576350000000  0.4381110000000 1.0
C      1  0.5602620000000  0.5672370000000  0.5462150000000 1.0
C      1  0.5465100000000  0.5456960000000  0.4191160000000 1.0
C      1  0.5715760000000  0.5723400000000  0.5168610000000 1.0
C      1  0.5449140000000  0.4872450000000  0.4551070000000 1.0
C      1  0.5036680000000  0.4973710000000  0.5438390000000 1.0
C      1  0.5719710000000  0.5169100000000  0.4869390000000 1.0
C      1  0.5388070000000  0.5059060000000  0.5062900000000 1.0
C      1  0.3948450000000  0.5350300000000  0.4729840000000 1.0
C      1  0.5746550000000  0.4527150000000  0.5797020000000 1.0
C      1  0.4719570000000  0.5904150000000  0.5167400000000 1.0
C      1  0.4474360000000  0.4772130000000  0.5247920000000 1.0
C      1  0.4776500000000  0.3928520000000  0.5243240000000 1.0
C      1  0.5297810000000  0.4897090000000  0.4813550000000 1.0
C      1  0.4889820000000  0.4096600000000  0.5599210000000 1.0
C      1  0.4518800000000  0.4765540000000  0.5889700000000 1.0
C      1  0.4996470000000  0.4124160000000  0.4947890000000 1.0
C      1  0.4213370000000  0.4727760000000  0.4496490000000 1.0
C      1  0.5267980000000  0.6008950000000  0.5281640000000 1.0
C      1  0.4072400000000  0.5126700000000  0.4206970000000 1.0
C      1  0.5063110000000  0.5142690000000  0.3920700000000 1.0
C      1  0.4638450000000  0.6122390000000  0.4748240000000 1.0
C      1  0.5564500000000  0.4893410000000  0.5269800000000 1.0
C      1  0.5080970000000  0.4420730000000  0.4457680000000 1.0
C      1  0.5404840000000  0.6016170000000  0.5013830000000 1.0
C      1  0.4652140000000  0.5437070000000  0.6078230000000 1.0
C      1  0.6194050000000  0.5181170000000  0.4986860000000 1.0
C      1  0.3981360000000  0.5134810000000  0.5313920000000 1.0
C      1  0.5372170000000  0.3999740000000  0.4956230000000 1.0
C      1  0.4172790000000  0.4711330000000  0.5283820000000 1.0
C      1  0.4061400000000  0.5028210000000  0.4524230000000 1.0
C      1  0.4273170000000  0.4917340000000  0.5848520000000 1.0
C      1  0.5595040000000  0.4418910000000  0.4452360000000 1.0
C      1  0.5831900000000  0.4248850000000  0.4844630000000 1.0
C      1  0.5770880000000  0.4761830000000  0.4556600000000 1.0
C      1  0.4828770000000  0.4630920000000  0.4537160000000 1.0
C      1  0.5501300000000  0.4613570000000  0.4116480000000 1.0
C      1  0.5794850000000  0.5486090000000  0.4784270000000 1.0
C      1  0.5476320000000  0.5369000000000  0.4992940000000 1.0
C      1  0.5743630000000  0.4826480000000  0.5747090000000 1.0
C      1  0.4763760000000  0.4474110000000  0.5580600000000 1.0
C      1  0.5064590000000  0.5866320000000  0.4867450000000 1.0
C      1  0.4423790000000  0.5766450000000  0.4480900000000 1.0
C      1  0.5981990000000  0.4836680000000  0.5302460000000 1.0
C      1  0.5293450000000  0.4357560000000  0.4199590000000 1.0
C      1  0.5634240000000  0.4095280000000  0.4680050000000 1.0
C      1  0.4764930000000  0.6180470000000  0.4997560000000 1.0
C      1  0.4059670000000  0.5156610000000  0.5059890000000 1.0
C      1  0.4260680000000  0.5427570000000  0.5574120000000 1.0
C      1  0.5006050000000  0.5725830000000  0.5912040000000 1.0
C      1  0.4559890000000  0.5322050000000  0.5807940000000 1.0
C      1  0.4883130000000  0.5006000000000  0.5029700000000 1.0
C      1  0.4516750000000  0.5824040000000  0.4783650000000 1.0
C      1  0.5541460000000  0.4527120000000  0.5048090000000 1.0
C      1  0.4716790000000  0.5556360000000  0.4720700000000 1.0
C      1  0.5256260000000  0.6081540000000  0.4773920000000 1.0
C      1  0.4470150000000  0.5165150000000  0.5519680000000 1.0
C      1  0.4731480000000  0.5460550000000  0.5578470000000 1.0
C      1  0.5968790000000  0.5030780000000  0.4568120000000 1.0
C      1  0.5791390000000  0.4946390000000  0.5043220000000 1.0
C      1  0.5927700000000  0.5241900000000  0.5634860000000 1.0
C      1  0.4790970000000  0.4940420000000  0.4471900000000 1.0
C      1  0.5311530000000  0.5874210000000  0.4553860000000 1.0
C      1  0.5201880000000  0.5509400000000  0.5420080000000 1.0
C      1  0.4912310000000  0.4258120000000  0.4133520000000 1.0
C      1  0.4733240000000  0.5061990000000  0.5330070000000 1.0
C      1  0.5129210000000  0.3838210000000  0.4831450000000 1.0
C      1  0.4598140000000  0.5223030000000  0.4090500000000 1.0
C      1  0.4573670000000  0.5086350000000  0.4958520000000 1.0
C      1  0.6190470000000  0.4953090000000  0.5090260000000 1.0
C      1  0.5726020000000  0.5273330000000  0.5866900000000 1.0
C      1  0.5020300000000  0.5440690000000  0.5162190000000 1.0
C      1  0.4710150000000  0.5963860000000  0.4469100000000 1.0
C      1  0.4141570000000  0.4833800000000  0.4184260000000 1.0
C      1  0.5203720000000  0.4442370000000  0.5351410000000 1.0
C      1  0.4040780000000  0.4629610000000  0.3758680000000 1.0
C      1  0.4329490000000  0.4277360000000  0.5393030000000 1.0
C      1  0.4162380000000  0.5049870000000  0.5490810000000 1.0
C      1  0.4700310000000  0.4682840000000  0.4046590000000 1.0
C      1  0.4942210000000  0.4519390000000  0.4053580000000 1.0
C      1  0.4431930000000  0.4131870000000  0.4721100000000 1.0
C      1  0.4279460000000  0.4466730000000  0.5598700000000 1.0
C      1  0.4846040000000  0.5662950000000  0.5019250000000 1.0
C      1  0.5241930000000  0.5367150000000  0.5728430000000 1.0
C      1  0.4876660000000  0.5363360000000  0.3999930000000 1.0
C      1  0.5307080000000  0.4846140000000  0.5958050000000 1.0
C      1  0.4118960000000  0.4748010000000  0.5610740000000 1.0
C      1  0.5820720000000  0.4255790000000  0.5135010000000 1.0
C      1  0.4249810000000  0.4326440000000  0.4875970000000 1.0
C      1  0.4209430000000  0.5545950000000  0.4628200000000 1.0
C      1  0.5847410000000  0.4433520000000  0.4601590000000 1.0
C      1  0.4477770000000  0.4805950000000  0.3849190000000 1.0
C      1  0.4572750000000  0.5274860000000  0.4711840000000 1.0
C      1  0.4490040000000  0.5677500000000  0.5633270000000 1.0
C      1  0.5222710000000  0.4160010000000  0.5627280000000 1.0
C      1  0.5459300000000  0.4375900000000  0.5695860000000 1.0
C      1  0.5212590000000  0.5482360000000  0.4339570000000 1.0
C      1  0.4487080000000  0.5607150000000  0.5298640000000 1.0
C      1  0.5958850000000  0.4963990000000  0.5573300000000 1.0
C      1  0.5542000000000  0.5188730000000  0.4580100000000 1.0
C      1  0.4754990000000  0.4992800000000  0.3918000000000 1.0
C      1  0.5267120000000  0.4722660000000  0.5646440000000 1.0
C      1  0.6007580000000  0.5404080000000  0.5038370000000 1.0
C      1  0.5643920000000  0.5563700000000  0.4375030000000 1.0
C      1  0.5236240000000  0.4954180000000  0.4298830000000 1.0
END
