TITL C-2848497-6229-172 -0.00698776312823078 125000 -413.409266654575 0 0 77 (C1) n - 1
REM
REM in /home/bkarasulu/work/CARBON/AIRSS/Generating-Clusters/AIREBO/with-SteepDescent/Only-C1/SD-CG-opt/Try1-1.4A-POS3A/HFTN-CG
REM
REM
REM
REM
REM
REM ./C.cell (11c1c37f851c82e70ff6c80c92926a4b)
REM
REM compiler GCC version 9.2.1 20190827 (Red Hat 9.2.1-1)
REM options -cpp -mtune=generic -march=x86-64 -g -O0 -fpre-include=/usr/include/finclude/math-vector-fortran.h
REM seed 93849931 -528996718 -186769642 169176971 421617500 -922453268 -234596474 278854355 -1367034219 1446363223 -2045857753 -1352598788 -1941463234 -1154777214 -1394164082 -272975627 1787606630 1726485255 1183721542 -379495338 477699310 1141282662 721984834 -655718338 68138568 490397433 657117293 -1408199084 -882909619 -960237708 1395930056 1086086892 -1907311233
REM
CELL 1.54180   50.00000   50.00000   50.00000   90.00000   90.00000   90.00000
LATT -1
SFAC C  
C      1  0.5162930000000  0.4645850000000  0.5318840000000 1.0
C      1  0.4283070000000  0.5291540000000  0.5297510000000 1.0
C      1  0.4640060000000  0.5462280000000  0.5082730000000 1.0
C      1  0.4927160000000  0.4987510000000  0.5528890000000 1.0
C      1  0.5430850000000  0.4818810000000  0.5560160000000 1.0
C      1  0.5373100000000  0.5835510000000  0.4722220000000 1.0
C      1  0.4558800000000  0.4357410000000  0.4864520000000 1.0
C      1  0.4810480000000  0.5758560000000  0.4876190000000 1.0
C      1  0.5423930000000  0.4500310000000  0.5167040000000 1.0
C      1  0.4681400000000  0.4879400000000  0.5337190000000 1.0
C      1  0.4644910000000  0.4262410000000  0.4587580000000 1.0
C      1  0.5558220000000  0.4607610000000  0.5444740000000 1.0
C      1  0.4402570000000  0.4912870000000  0.4552130000000 1.0
C      1  0.5329940000000  0.4303740000000  0.4958780000000 1.0
C      1  0.5369640000000  0.5458210000000  0.5117300000000 1.0
C      1  0.4547690000000  0.5399490000000  0.5465740000000 1.0
C      1  0.5312320000000  0.5574560000000  0.5626540000000 1.0
C      1  0.4452080000000  0.4758510000000  0.5507510000000 1.0
C      1  0.5015220000000  0.4378570000000  0.4972270000000 1.0
C      1  0.4840580000000  0.4724440000000  0.4688030000000 1.0
C      1  0.4660890000000  0.5181080000000  0.5230920000000 1.0
C      1  0.5619670000000  0.4696190000000  0.4754250000000 1.0
C      1  0.4938410000000  0.4803930000000  0.5145790000000 1.0
C      1  0.5411610000000  0.5620720000000  0.5378230000000 1.0
C      1  0.4909010000000  0.4482360000000  0.5472300000000 1.0
C      1  0.4382730000000  0.4623360000000  0.4985820000000 1.0
C      1  0.5205990000000  0.4731500000000  0.4371230000000 1.0
C      1  0.4698390000000  0.4684400000000  0.4234510000000 1.0
C      1  0.5440540000000  0.5111400000000  0.5483170000000 1.0
C      1  0.4686640000000  0.4402570000000  0.5310530000000 1.0
C      1  0.5122910000000  0.4753390000000  0.5635600000000 1.0
C      1  0.5122780000000  0.4988390000000  0.4932310000000 1.0
C      1  0.5132530000000  0.4272370000000  0.4683600000000 1.0
C      1  0.4394870000000  0.4953000000000  0.4889800000000 1.0
C      1  0.4753700000000  0.4304980000000  0.5059850000000 1.0
C      1  0.5579970000000  0.5001180000000  0.5008980000000 1.0
C      1  0.5569750000000  0.4980970000000  0.4677340000000 1.0
C      1  0.4701390000000  0.5342550000000  0.5752630000000 1.0
C      1  0.4622240000000  0.4579180000000  0.4537930000000 1.0
C      1  0.4931490000000  0.4322100000000  0.4488160000000 1.0
C      1  0.5344570000000  0.5400690000000  0.4512460000000 1.0
C      1  0.4723810000000  0.4994380000000  0.4957640000000 1.0
C      1  0.4837510000000  0.5443410000000  0.4361680000000 1.0
C      1  0.4955900000000  0.4547290000000  0.4320490000000 1.0
C      1  0.5178480000000  0.5605250000000  0.4877530000000 1.0
C      1  0.4979600000000  0.4960920000000  0.4349080000000 1.0
C      1  0.4447200000000  0.4557930000000  0.5296730000000 1.0
C      1  0.4856840000000  0.5515540000000  0.5434730000000 1.0
C      1  0.5308410000000  0.5127880000000  0.5170190000000 1.0
C      1  0.4327610000000  0.4630170000000  0.4664650000000 1.0
C      1  0.5118540000000  0.4665830000000  0.4822490000000 1.0
C      1  0.5294020000000  0.5375510000000  0.4236620000000 1.0
C      1  0.5217300000000  0.4986290000000  0.5852890000000 1.0
C      1  0.5937900000000  0.4617370000000  0.5167450000000 1.0
C      1  0.4497140000000  0.4874600000000  0.5763810000000 1.0
C      1  0.5661330000000  0.4682700000000  0.5066170000000 1.0
C      1  0.4587450000000  0.5416430000000  0.4689920000000 1.0
C      1  0.4883340000000  0.5724520000000  0.5177400000000 1.0
C      1  0.5263870000000  0.5264710000000  0.5710390000000 1.0
C      1  0.4836530000000  0.5035670000000  0.4648460000000 1.0
C      1  0.5329840000000  0.5001970000000  0.4535940000000 1.0
C      1  0.5716780000000  0.5261830000000  0.5095630000000 1.0
C      1  0.4410330000000  0.5277430000000  0.4789060000000 1.0
C      1  0.4917940000000  0.5496520000000  0.4687800000000 1.0
C      1  0.5360430000000  0.4618150000000  0.4640320000000 1.0
C      1  0.5118290000000  0.5184980000000  0.4144760000000 1.0
C      1  0.5514350000000  0.5571170000000  0.4664800000000 1.0
C      1  0.4976580000000  0.5414380000000  0.5073520000000 1.0
C      1  0.4222070000000  0.5106480000000  0.5139260000000 1.0
C      1  0.5112830000000  0.5217700000000  0.4681240000000 1.0
C      1  0.5049920000000  0.5243590000000  0.5358670000000 1.0
C      1  0.4748620000000  0.5195750000000  0.4293690000000 1.0
C      1  0.5611750000000  0.5468720000000  0.4908400000000 1.0
C      1  0.5004670000000  0.5485790000000  0.5726430000000 1.0
C      1  0.5699030000000  0.5272280000000  0.5371250000000 1.0
C      1  0.4580490000000  0.4945540000000  0.4338780000000 1.0
C      1  0.4718270000000  0.5057410000000  0.5760840000000 1.0
END
