TITL C-2847957-7266-625 0.00116332141399196 125000 -573.339767094908 0 0 108 (C1) n - 1
REM
REM in /home/bkarasulu/work/CARBON/AIRSS/Generating-Clusters/AIREBO/with-SteepDescent/Only-C1/SD-CG-opt/Try1-1.4A-POS3A/HFTN-CG
REM
REM
REM
REM
REM
REM ./C.cell (11c1c37f851c82e70ff6c80c92926a4b)
REM
REM compiler GCC version 9.2.1 20190827 (Red Hat 9.2.1-1)
REM options -cpp -mtune=generic -march=x86-64 -g -O0 -fpre-include=/usr/include/finclude/math-vector-fortran.h
REM seed -1054826453 921051104 -1875578645 546178913 269034352 -598837215 1769011937 -36992390 1721844437 705648964 -344631232 1356425959 -972919377 -1562356708 938576919 -313107148 574884572 1808147082 1901686905 521167797 -286817286 -2119268830 -491824264 -1215328847 1295739880 1413369600 564739526 -153580580 335130362 897386044 -949739483 329547284 -58416250
REM
CELL 1.54180   50.00000   50.00000   50.00000   90.00000   90.00000   90.00000
LATT -1
SFAC C  
C      1  0.5369890000000  0.5757550000000  0.4593490000000 1.0
C      1  0.5205440000000  0.5848620000000  0.4812080000000 1.0
C      1  0.5231940000000  0.4792430000000  0.5765600000000 1.0
C      1  0.5113560000000  0.5329450000000  0.4919230000000 1.0
C      1  0.5254740000000  0.4904680000000  0.5445180000000 1.0
C      1  0.5417350000000  0.4304580000000  0.5009600000000 1.0
C      1  0.5417920000000  0.5608430000000  0.5626160000000 1.0
C      1  0.4435820000000  0.4676370000000  0.5229390000000 1.0
C      1  0.4950640000000  0.5294860000000  0.4248030000000 1.0
C      1  0.4968340000000  0.5635650000000  0.5157750000000 1.0
C      1  0.4912070000000  0.5245870000000  0.5374140000000 1.0
C      1  0.5232850000000  0.4374520000000  0.4437530000000 1.0
C      1  0.5142120000000  0.5021610000000  0.4986930000000 1.0
C      1  0.4709500000000  0.5278770000000  0.5716160000000 1.0
C      1  0.5459940000000  0.5280080000000  0.5651960000000 1.0
C      1  0.5609220000000  0.4957490000000  0.5137160000000 1.0
C      1  0.4727230000000  0.5764230000000  0.4954410000000 1.0
C      1  0.5142600000000  0.4503760000000  0.4987470000000 1.0
C      1  0.5650580000000  0.5582380000000  0.5137760000000 1.0
C      1  0.4462860000000  0.5377180000000  0.5398020000000 1.0
C      1  0.5432790000000  0.4806670000000  0.4346050000000 1.0
C      1  0.5256920000000  0.4943390000000  0.4603080000000 1.0
C      1  0.4254580000000  0.5144690000000  0.5508740000000 1.0
C      1  0.4521130000000  0.4850200000000  0.4545730000000 1.0
C      1  0.4676560000000  0.4885030000000  0.5348520000000 1.0
C      1  0.4550160000000  0.4548830000000  0.5523340000000 1.0
C      1  0.5167050000000  0.5412170000000  0.5751720000000 1.0
C      1  0.5094440000000  0.4693090000000  0.4766330000000 1.0
C      1  0.5423990000000  0.5162710000000  0.5335410000000 1.0
C      1  0.4683370000000  0.4715930000000  0.5777830000000 1.0
C      1  0.5714250000000  0.5328720000000  0.5237610000000 1.0
C      1  0.5610530000000  0.5575960000000  0.4853990000000 1.0
C      1  0.4709850000000  0.4273690000000  0.5477270000000 1.0
C      1  0.4271800000000  0.4951350000000  0.5070190000000 1.0
C      1  0.4650430000000  0.5237120000000  0.5154800000000 1.0
C      1  0.4805800000000  0.5017380000000  0.4987140000000 1.0
C      1  0.5858960000000  0.5146110000000  0.5057780000000 1.0
C      1  0.5511850000000  0.4653870000000  0.4706900000000 1.0
C      1  0.5721230000000  0.4675940000000  0.5203950000000 1.0
C      1  0.4511650000000  0.5550930000000  0.4922580000000 1.0
C      1  0.5738420000000  0.5072040000000  0.4600920000000 1.0
C      1  0.4759770000000  0.4586790000000  0.4157430000000 1.0
C      1  0.4231990000000  0.4762080000000  0.4285940000000 1.0
C      1  0.4795840000000  0.5396000000000  0.4817880000000 1.0
C      1  0.5480790000000  0.4863370000000  0.5905030000000 1.0
C      1  0.4942660000000  0.4905590000000  0.5890200000000 1.0
C      1  0.4555210000000  0.5057290000000  0.5615960000000 1.0
C      1  0.4763720000000  0.4772440000000  0.4771060000000 1.0
C      1  0.5413980000000  0.4899040000000  0.4901620000000 1.0
C      1  0.4205740000000  0.4455260000000  0.5111760000000 1.0
C      1  0.5160300000000  0.5879950000000  0.5406140000000 1.0
C      1  0.5259650000000  0.4647080000000  0.5254240000000 1.0
C      1  0.4951430000000  0.4835520000000  0.4139800000000 1.0
C      1  0.5393910000000  0.5381650000000  0.4809120000000 1.0
C      1  0.4103140000000  0.5077390000000  0.5265190000000 1.0
C      1  0.5112020000000  0.5067200000000  0.4113850000000 1.0
C      1  0.4944520000000  0.5224260000000  0.5852430000000 1.0
C      1  0.5587950000000  0.5086450000000  0.5850570000000 1.0
C      1  0.4328820000000  0.4218810000000  0.4984910000000 1.0
C      1  0.4343910000000  0.5537290000000  0.5176180000000 1.0
C      1  0.4389750000000  0.4546110000000  0.4768950000000 1.0
C      1  0.5025840000000  0.4291030000000  0.5566480000000 1.0
C      1  0.4376780000000  0.5405960000000  0.4672040000000 1.0
C      1  0.5376150000000  0.4391000000000  0.4683240000000 1.0
C      1  0.4485470000000  0.4259010000000  0.4683650000000 1.0
C      1  0.5007250000000  0.5694800000000  0.5647010000000 1.0
C      1  0.4644190000000  0.4545630000000  0.4994490000000 1.0
C      1  0.4341730000000  0.4815730000000  0.5553860000000 1.0
C      1  0.5251180000000  0.5482920000000  0.4431760000000 1.0
C      1  0.5368850000000  0.4521790000000  0.4247070000000 1.0
C      1  0.4765620000000  0.4267010000000  0.4621530000000 1.0
C      1  0.4642000000000  0.4209580000000  0.5047080000000 1.0
C      1  0.4145670000000  0.4718270000000  0.4918230000000 1.0
C      1  0.4966250000000  0.4805850000000  0.5188540000000 1.0
C      1  0.4930740000000  0.4262760000000  0.4883690000000 1.0
C      1  0.4937160000000  0.4958200000000  0.5554310000000 1.0
C      1  0.4753610000000  0.5514270000000  0.5510110000000 1.0
C      1  0.4446400000000  0.5158140000000  0.4894330000000 1.0
C      1  0.4924880000000  0.4765440000000  0.4471510000000 1.0
C      1  0.5389980000000  0.5657260000000  0.5290850000000 1.0
C      1  0.4971620000000  0.5100740000000  0.4503800000000 1.0
C      1  0.5715790000000  0.4466950000000  0.4995520000000 1.0
C      1  0.4847860000000  0.4498460000000  0.5262700000000 1.0
C      1  0.5515180000000  0.4522230000000  0.5335510000000 1.0
C      1  0.4886940000000  0.4101640000000  0.5243400000000 1.0
C      1  0.5103390000000  0.5578470000000  0.4140820000000 1.0
C      1  0.4200340000000  0.4751730000000  0.4600750000000 1.0
C      1  0.5439010000000  0.5225680000000  0.4551050000000 1.0
C      1  0.4952190000000  0.5644690000000  0.4439670000000 1.0
C      1  0.4668330000000  0.5137120000000  0.4637340000000 1.0
C      1  0.4450710000000  0.5465790000000  0.4422730000000 1.0
C      1  0.5186510000000  0.5389000000000  0.5242810000000 1.0
C      1  0.5155280000000  0.4091480000000  0.5057690000000 1.0
C      1  0.5933060000000  0.5135120000000  0.4790880000000 1.0
C      1  0.5693570000000  0.4806280000000  0.4522130000000 1.0
C      1  0.4948670000000  0.5692020000000  0.4743040000000 1.0
C      1  0.4919960000000  0.4428530000000  0.4412190000000 1.0
C      1  0.4781740000000  0.5911640000000  0.5524350000000 1.0
C      1  0.5459120000000  0.4230980000000  0.5339060000000 1.0
C      1  0.5585780000000  0.5341570000000  0.4267070000000 1.0
C      1  0.4766300000000  0.5869680000000  0.5260140000000 1.0
C      1  0.5254150000000  0.4159190000000  0.5517690000000 1.0
C      1  0.5628880000000  0.5574090000000  0.4514080000000 1.0
C      1  0.5264100000000  0.5891540000000  0.5078870000000 1.0
C      1  0.4992220000000  0.4622620000000  0.5548030000000 1.0
C      1  0.4692590000000  0.5488830000000  0.4316330000000 1.0
C      1  0.5388710000000  0.5076030000000  0.4184360000000 1.0
C      1  0.4512820000000  0.4689360000000  0.4242010000000 1.0
END
