TITL C-2848498-1409-405 0.00256829434200694 125000 -276.778763837667 0 0 53 (C1) n - 1
REM
REM in /home/bkarasulu/work/CARBON/AIRSS/Generating-Clusters/AIREBO/with-SteepDescent/Only-C1/SD-CG-opt/Try1-1.4A-POS3A/HFTN-CG
REM
REM
REM
REM
REM
REM ./C.cell (11c1c37f851c82e70ff6c80c92926a4b)
REM
REM compiler GCC version 9.2.1 20190827 (Red Hat 9.2.1-1)
REM options -cpp -mtune=generic -march=x86-64 -g -O0 -fpre-include=/usr/include/finclude/math-vector-fortran.h
REM seed -1526632270 1013662947 43914158 1896149931 -2012932851 1803900258 2002960127 1152140620 -1874032299 1785225541 -677485522 -127640387 788568906 33186491 406538388 -527973524 -1862298022 1569141881 1453108397 1271954026 802248394 -1760851244 944524842 -1206862607 -524288403 1410433202 1443459608 1527127988 1029648134 298074065 -213831653 -2138743017 -964355409
REM
CELL 1.54180   50.00000   50.00000   50.00000   90.00000   90.00000   90.00000
LATT -1
SFAC C  
C      1  0.5509510000000  0.5395070000000  0.5264570000000 1.0
C      1  0.4603440000000  0.5279330000000  0.4935490000000 1.0
C      1  0.5168510000000  0.5128600000000  0.5375370000000 1.0
C      1  0.4682300000000  0.5195950000000  0.5602670000000 1.0
C      1  0.5267010000000  0.4846730000000  0.5110930000000 1.0
C      1  0.5218390000000  0.5008490000000  0.4227560000000 1.0
C      1  0.4834850000000  0.4678470000000  0.4393050000000 1.0
C      1  0.5277380000000  0.5551910000000  0.4495740000000 1.0
C      1  0.5358920000000  0.5571100000000  0.5399010000000 1.0
C      1  0.4987950000000  0.4781770000000  0.5647250000000 1.0
C      1  0.4621020000000  0.5096350000000  0.5221660000000 1.0
C      1  0.5572140000000  0.4547270000000  0.5093840000000 1.0
C      1  0.5163540000000  0.5038240000000  0.4731580000000 1.0
C      1  0.5389480000000  0.5778880000000  0.4392530000000 1.0
C      1  0.4420000000000  0.4993410000000  0.4949590000000 1.0
C      1  0.5393670000000  0.4791280000000  0.4288210000000 1.0
C      1  0.5154120000000  0.4572940000000  0.5503170000000 1.0
C      1  0.4997080000000  0.5348290000000  0.4919720000000 1.0
C      1  0.4441680000000  0.5281790000000  0.5451550000000 1.0
C      1  0.4934080000000  0.4602860000000  0.4678080000000 1.0
C      1  0.4813240000000  0.4925880000000  0.5444490000000 1.0
C      1  0.4504400000000  0.4736190000000  0.4795140000000 1.0
C      1  0.5328410000000  0.4843860000000  0.5448490000000 1.0
C      1  0.4725130000000  0.5054150000000  0.4455600000000 1.0
C      1  0.5318000000000  0.5244600000000  0.4635420000000 1.0
C      1  0.5105320000000  0.5573880000000  0.4757950000000 1.0
C      1  0.4463300000000  0.4804550000000  0.5297240000000 1.0
C      1  0.5344450000000  0.5177040000000  0.5088470000000 1.0
C      1  0.5609830000000  0.4845470000000  0.5123310000000 1.0
C      1  0.4450230000000  0.4431430000000  0.4886110000000 1.0
C      1  0.5428740000000  0.4676860000000  0.4536380000000 1.0
C      1  0.5067080000000  0.4498630000000  0.5212250000000 1.0
C      1  0.4533990000000  0.4574590000000  0.5182930000000 1.0
C      1  0.4805700000000  0.4825030000000  0.4891290000000 1.0
C      1  0.4858340000000  0.5667000000000  0.5213720000000 1.0
C      1  0.4779610000000  0.4376550000000  0.4816990000000 1.0
C      1  0.4551610000000  0.4792400000000  0.4491780000000 1.0
C      1  0.4832900000000  0.5116530000000  0.4744390000000 1.0
C      1  0.4242920000000  0.4260730000000  0.4839770000000 1.0
C      1  0.4987830000000  0.5268530000000  0.5627120000000 1.0
C      1  0.5314750000000  0.4463870000000  0.5009760000000 1.0
C      1  0.5051220000000  0.5508530000000  0.5408220000000 1.0
C      1  0.5299580000000  0.5256260000000  0.4328850000000 1.0
C      1  0.4945980000000  0.4944070000000  0.4259900000000 1.0
C      1  0.4906560000000  0.5736660000000  0.4901070000000 1.0
C      1  0.5231140000000  0.4716880000000  0.4798460000000 1.0
C      1  0.4912680000000  0.5271030000000  0.5207420000000 1.0
C      1  0.5423440000000  0.4980460000000  0.5745020000000 1.0
C      1  0.5675970000000  0.5136340000000  0.5152660000000 1.0
C      1  0.4933540000000  0.4807680000000  0.5164530000000 1.0
C      1  0.5130660000000  0.5007620000000  0.5754380000000 1.0
C      1  0.4649140000000  0.5565640000000  0.4986630000000 1.0
C      1  0.4779240000000  0.4422360000000  0.5112660000000 1.0
END
