TITL C-2848502-4955-641 -142.40323908565 125000 -377.451277498946 0 0 74 (C1) n - 1
REM
REM in /home/bkarasulu/work/CARBON/AIRSS/Generating-Clusters/AIREBO/with-SteepDescent/Only-C1/SD-CG-opt/Try1-1.4A-POS3A/HFTN-CG
REM
REM
REM
REM
REM
REM ./C.cell (11c1c37f851c82e70ff6c80c92926a4b)
REM
REM compiler GCC version 9.2.1 20190827 (Red Hat 9.2.1-1)
REM options -cpp -mtune=generic -march=x86-64 -g -O0 -fpre-include=/usr/include/finclude/math-vector-fortran.h
REM seed -176997562 2085410085 -1791420319 174735222 -295335410 -1959811683 932406864 -1591175257 -442943616 1358233689 1981702240 302631962 -1626808437 1608232337 1083680435 -548247680 485788429 -960609618 44713638 -2112093642 -523456782 1422163176 -640915820 -1494726761 224891456 -526874254 -439589921 1980145306 -546656652 -39583911 1050436316 -1480773210 589148875
REM
CELL 1.54180   50.00000   50.00000   50.00000   90.00000   90.00000   90.00000
LATT -1
SFAC C  
C      1  0.4868910000000  0.4816880000000  0.4723960000000 1.0
C      1  0.5467010000000  0.4314970000000  0.4596670000000 1.0
C      1  0.5404240000000  0.4629380000000  0.5153420000000 1.0
C      1  0.5100060000000  0.5580890000000  0.4518870000000 1.0
C      1  0.5572240000000  0.5300090000000  0.5455720000000 1.0
C      1  0.5441820000000  0.5300860000000  0.4581030000000 1.0
C      1  0.4854210000000  0.4611860000000  0.5064650000000 1.0
C      1  0.5620230000000  0.5023000000000  0.5474510000000 1.0
C      1  0.4565590000000  0.5058020000000  0.4459740000000 1.0
C      1  0.4496660000000  0.5366120000000  0.4570930000000 1.0
C      1  0.5821110000000  0.5245430000000  0.5005100000000 1.0
C      1  0.5702090000000  0.4470510000000  0.4939820000000 1.0
C      1  0.5056150000000  0.4547380000000  0.5506450000000 1.0
C      1  0.5101030000000  0.5058710000000  0.4324290000000 1.0
C      1  0.4912800000000  0.5691430000000  0.5415750000000 1.0
C      1  0.4338830000000  0.5497660000000  0.5017520000000 1.0
C      1  0.5407180000000  0.4446410000000  0.5419100000000 1.0
C      1  0.4826400000000  0.4919930000000  0.5797890000000 1.0
C      1  0.4724540000000  0.5419020000000  0.5082700000000 1.0
C      1  0.4363070000000  0.4822160000000  0.5228850000000 1.0
C      1  0.5359880000000  0.5023730000000  0.4488420000000 1.0
C      1  0.4576370000000  0.5668460000000  0.4529380000000 1.0
C      1  0.4619450000000  0.4401810000000  0.4588890000000 1.0
C      1  0.4631270000000  0.4666600000000  0.5294990000000 1.0
C      1  0.4794900000000  0.4500000000000  0.4342740000000 1.0
C      1  0.5140740000000  0.4348050000000  0.5259780000000 1.0
C      1  0.4322380000000  0.4584910000000  0.4991240000000 1.0
C      1  0.4590500000000  0.4828870000000  0.4216210000000 1.0
C      1  0.4470390000000  0.4320420000000  0.4877440000000 1.0
C      1  0.5120070000000  0.4622430000000  0.4647170000000 1.0
C      1  0.5129600000000  0.4335630000000  0.4980670000000 1.0
C      1  0.4461000000000  0.5264810000000  0.5564760000000 1.0
C      1  0.4865900000000  0.5740310000000  0.4695490000000 1.0
C      1  0.5444510000000  0.5121370000000  0.5041740000000 1.0
C      1  0.5578230000000  0.4895980000000  0.5210500000000 1.0
C      1  0.5484450000000  0.4876450000000  0.5697010000000 1.0
C      1  0.4809810000000  0.4356270000000  0.4866910000000 1.0
C      1  0.5096110000000  0.4845780000000  0.5769450000000 1.0
C      1  0.5118600000000  0.5284200000000  0.4683940000000 1.0
C      1  0.5052440000000  0.5045800000000  0.5276360000000 1.0
C      1  0.4729090000000  0.5069730000000  0.5508480000000 1.0
C      1  0.5795160000000  0.4706950000000  0.5041460000000 1.0
C      1  0.4529440000000  0.4726610000000  0.4534670000000 1.0
C      1  0.5133050000000  0.5395370000000  0.4280610000000 1.0
C      1  0.5175450000000  0.5590220000000  0.5369510000000 1.0
C      1  0.5372430000000  0.5605340000000  0.5088100000000 1.0
C      1  0.4881190000000  0.5037620000000  0.4982560000000 1.0
C      1  0.5072610000000  0.4474340000000  0.4420860000000 1.0
C      1  0.4949320000000  0.5324120000000  0.5562420000000 1.0
C      1  0.5230990000000  0.5311020000000  0.5183250000000 1.0
C      1  0.5381290000000  0.4512070000000  0.4834780000000 1.0
C      1  0.4273240000000  0.5104960000000  0.5395320000000 1.0
C      1  0.5178290000000  0.5711940000000  0.4827440000000 1.0
C      1  0.4594660000000  0.5621030000000  0.4862230000000 1.0
C      1  0.5230540000000  0.5049310000000  0.5558910000000 1.0
C      1  0.5320100000000  0.4597730000000  0.5705900000000 1.0
C      1  0.5588020000000  0.5303100000000  0.4808160000000 1.0
C      1  0.5124850000000  0.4729320000000  0.5047980000000 1.0
C      1  0.5195270000000  0.5001430000000  0.4856650000000 1.0
C      1  0.5458150000000  0.4826580000000  0.4730160000000 1.0
C      1  0.4611820000000  0.5050650000000  0.5189800000000 1.0
C      1  0.4720190000000  0.5249110000000  0.4788140000000 1.0
C      1  0.4318720000000  0.5191640000000  0.5083400000000 1.0
C      1  0.5286280000000  0.5367810000000  0.5576120000000 1.0
C      1  0.5637350000000  0.5427920000000  0.5208060000000 1.0
C      1  0.4085800000000  0.4781700000000  0.4914940000000 1.0
C      1  0.5021440000000  0.5442640000000  0.4963370000000 1.0
C      1  0.4596690000000  0.4695770000000  0.4859020000000 1.0
C      1  0.4885730000000  0.4824950000000  0.4384930000000 1.0
C      1  0.4686310000000  0.5448790000000  0.5388660000000 1.0
C      1  0.5753210000000  0.4946440000000  0.4857470000000 1.0
C      1  0.4896530000000  0.4784660000000  0.5428340000000 1.0
C      1  0.4125010000000  0.5029540000000  0.4908830000000 1.0
C      1  0.4850990000000  0.5207010000000  0.4489410000000 1.0
END
