TITL C-2848508-1660-179 -0.00602043449890344 125000 -332.385582807886 0 0 59 (C1) n - 1
REM
REM in /home/bkarasulu/work/CARBON/AIRSS/Generating-Clusters/AIREBO/with-SteepDescent/Only-C1/SD-CG-opt/Try1-1.4A-POS3A/HFTN-CG
REM
REM
REM
REM
REM
REM ./C.cell (11c1c37f851c82e70ff6c80c92926a4b)
REM
REM compiler GCC version 9.2.1 20190827 (Red Hat 9.2.1-1)
REM options -cpp -mtune=generic -march=x86-64 -g -O0 -fpre-include=/usr/include/finclude/math-vector-fortran.h
REM seed 2096210246 1089679420 -160699406 -1240383031 889105909 791883259 1131921081 -291402564 892384820 797612400 -266754590 -442430440 493358524 212196562 1598943232 989922962 -1843315076 1469352207 1236440258 666599298 1633659065 1636000599 1470840925 -796560076 -1885373963 308256728 1828440827 723013294 -1280268759 -1941820042 1682206149 -1063345497 -777954765
REM
CELL 1.54180   50.00000   50.00000   50.00000   90.00000   90.00000   90.00000
LATT -1
SFAC C  
C      1  0.5239160000000  0.4827070000000  0.4638210000000 1.0
C      1  0.5628400000000  0.4804960000000  0.5518150000000 1.0
C      1  0.5226110000000  0.5724190000000  0.5513120000000 1.0
C      1  0.5774190000000  0.4844040000000  0.5740600000000 1.0
C      1  0.4655790000000  0.5505180000000  0.4541150000000 1.0
C      1  0.5325500000000  0.5439270000000  0.4805220000000 1.0
C      1  0.5124780000000  0.4730820000000  0.5556560000000 1.0
C      1  0.4797140000000  0.5463600000000  0.4319470000000 1.0
C      1  0.5047690000000  0.5300910000000  0.4703910000000 1.0
C      1  0.4720130000000  0.5302200000000  0.4796630000000 1.0
C      1  0.4946490000000  0.4619630000000  0.5065400000000 1.0
C      1  0.5484980000000  0.5910350000000  0.4739500000000 1.0
C      1  0.4806600000000  0.4786020000000  0.4845140000000 1.0
C      1  0.5411800000000  0.5413250000000  0.5112790000000 1.0
C      1  0.4475740000000  0.4198350000000  0.4539660000000 1.0
C      1  0.5092410000000  0.5374720000000  0.4374940000000 1.0
C      1  0.4527660000000  0.5068190000000  0.4800340000000 1.0
C      1  0.5199070000000  0.5454450000000  0.5305050000000 1.0
C      1  0.4641920000000  0.4978070000000  0.5475530000000 1.0
C      1  0.5271230000000  0.5635590000000  0.4389320000000 1.0
C      1  0.4681460000000  0.4308810000000  0.5112310000000 1.0
C      1  0.5030460000000  0.5000960000000  0.4795090000000 1.0
C      1  0.4726180000000  0.4368300000000  0.5388850000000 1.0
C      1  0.5679150000000  0.4964070000000  0.5258910000000 1.0
C      1  0.4942630000000  0.5653180000000  0.5404880000000 1.0
C      1  0.5572530000000  0.6134910000000  0.4842440000000 1.0
C      1  0.4918730000000  0.4569100000000  0.5384850000000 1.0
C      1  0.4440620000000  0.4884300000000  0.5300890000000 1.0
C      1  0.4706410000000  0.5504520000000  0.5428270000000 1.0
C      1  0.4986440000000  0.5023050000000  0.5858250000000 1.0
C      1  0.5592470000000  0.5234530000000  0.4813230000000 1.0
C      1  0.4952790000000  0.4291090000000  0.4977940000000 1.0
C      1  0.4177000000000  0.4866560000000  0.5374490000000 1.0
C      1  0.5278050000000  0.4564800000000  0.4725910000000 1.0
C      1  0.5397720000000  0.4975750000000  0.4459540000000 1.0
C      1  0.4545320000000  0.4425360000000  0.4673820000000 1.0
C      1  0.4430760000000  0.3969730000000  0.4419660000000 1.0
C      1  0.5399890000000  0.4436450000000  0.5208830000000 1.0
C      1  0.4571390000000  0.4819110000000  0.4411490000000 1.0
C      1  0.5237960000000  0.4381190000000  0.4934710000000 1.0
C      1  0.5629650000000  0.5087830000000  0.4578660000000 1.0
C      1  0.5144370000000  0.5048150000000  0.5596310000000 1.0
C      1  0.4426840000000  0.5009940000000  0.4550640000000 1.0
C      1  0.4468220000000  0.4479810000000  0.4966520000000 1.0
C      1  0.4520210000000  0.4812610000000  0.5019220000000 1.0
C      1  0.4200850000000  0.4409780000000  0.5025890000000 1.0
C      1  0.4698430000000  0.4641270000000  0.4589880000000 1.0
C      1  0.4578750000000  0.5608970000000  0.4826400000000 1.0
C      1  0.5643500000000  0.5207780000000  0.5123420000000 1.0
C      1  0.5255180000000  0.5130850000000  0.4268670000000 1.0
C      1  0.5369080000000  0.5684440000000  0.4639390000000 1.0
C      1  0.5404980000000  0.4623870000000  0.5492570000000 1.0
C      1  0.5244890000000  0.4732250000000  0.5144910000000 1.0
C      1  0.5052520000000  0.5184830000000  0.5342800000000 1.0
C      1  0.4754710000000  0.5227570000000  0.5403900000000 1.0
C      1  0.5564760000000  0.4727310000000  0.5131670000000 1.0
C      1  0.4479240000000  0.5798070000000  0.4984160000000 1.0
C      1  0.5083530000000  0.4993060000000  0.5102880000000 1.0
C      1  0.4815550000000  0.4834950000000  0.5657040000000 1.0
END
