TITL C-2847957-7266-446 6.71791508824716e-06 125000 -288.522541757696 0 0 50 (C1) n - 1
REM
REM in /home/bkarasulu/work/CARBON/AIRSS/Generating-Clusters/AIREBO/with-SteepDescent/Only-C1/SD-CG-opt/Try1-1.4A-POS3A/HFTN-CG
REM
REM
REM
REM
REM
REM ./C.cell (11c1c37f851c82e70ff6c80c92926a4b)
REM
REM compiler GCC version 9.2.1 20190827 (Red Hat 9.2.1-1)
REM options -cpp -mtune=generic -march=x86-64 -g -O0 -fpre-include=/usr/include/finclude/math-vector-fortran.h
REM seed -1911371482 -2054215725 -647679071 541904644 -665088672 63933169 -1443142283 1857659588 1919304679 -1881898633 938079744 -1707844967 -2038394516 215151744 957185726 2031838731 397860211 -1281622420 -1046244426 1998072165 -463818852 -1005386082 284182624 -1289485192 -1903046900 -1714714402 1625469769 -330888226 1008543199 -1250907314 1935215249 418809751 1647962227
REM
CELL 1.54180   50.00000   50.00000   50.00000   90.00000   90.00000   90.00000
LATT -1
SFAC C  
C      1  0.5601430000000  0.5104770000000  0.4292460000000 1.0
C      1  0.4147710000000  0.5505090000000  0.4871420000000 1.0
C      1  0.4847860000000  0.4553230000000  0.4357400000000 1.0
C      1  0.4652360000000  0.5280750000000  0.5136410000000 1.0
C      1  0.4910050000000  0.4960810000000  0.4858400000000 1.0
C      1  0.3842350000000  0.5619200000000  0.4848750000000 1.0
C      1  0.5137280000000  0.5554960000000  0.4625090000000 1.0
C      1  0.5193400000000  0.5147620000000  0.5510900000000 1.0
C      1  0.5555470000000  0.4718760000000  0.4738160000000 1.0
C      1  0.4822640000000  0.5416850000000  0.5653590000000 1.0
C      1  0.4961580000000  0.5175000000000  0.5678150000000 1.0
C      1  0.5085670000000  0.4809750000000  0.4700190000000 1.0
C      1  0.4973870000000  0.5950970000000  0.5212760000000 1.0
C      1  0.5363950000000  0.4936660000000  0.5590790000000 1.0
C      1  0.4999470000000  0.4557700000000  0.4589540000000 1.0
C      1  0.4940660000000  0.5158070000000  0.5061010000000 1.0
C      1  0.4776820000000  0.5630570000000  0.5482290000000 1.0
C      1  0.4499340000000  0.5183890000000  0.4877260000000 1.0
C      1  0.4524320000000  0.5145130000000  0.5353880000000 1.0
C      1  0.4159590000000  0.5157960000000  0.4551140000000 1.0
C      1  0.5355510000000  0.4885090000000  0.4641480000000 1.0
C      1  0.4871830000000  0.5753160000000  0.5033320000000 1.0
C      1  0.5601470000000  0.4414210000000  0.5338780000000 1.0
C      1  0.4822990000000  0.4566520000000  0.5417440000000 1.0
C      1  0.4266600000000  0.5278720000000  0.4768230000000 1.0
C      1  0.4961550000000  0.4249030000000  0.4957950000000 1.0
C      1  0.4391400000000  0.5684780000000  0.5151650000000 1.0
C      1  0.4866190000000  0.4916850000000  0.5757940000000 1.0
C      1  0.4967710000000  0.5687040000000  0.4785350000000 1.0
C      1  0.5250800000000  0.4675230000000  0.5602670000000 1.0
C      1  0.4595310000000  0.4558460000000  0.5183310000000 1.0
C      1  0.6264380000000  0.4569660000000  0.4663910000000 1.0
C      1  0.4622510000000  0.4926960000000  0.4829840000000 1.0
C      1  0.4964620000000  0.4684140000000  0.5620010000000 1.0
C      1  0.4070810000000  0.5805310000000  0.4978960000000 1.0
C      1  0.5250870000000  0.5336080000000  0.4522170000000 1.0
C      1  0.4914530000000  0.5880860000000  0.5477490000000 1.0
C      1  0.5260150000000  0.4149860000000  0.4594100000000 1.0
C      1  0.4683630000000  0.4549650000000  0.4153190000000 1.0
C      1  0.6012750000000  0.4559030000000  0.4750650000000 1.0
C      1  0.6502710000000  0.4576260000000  0.4555030000000 1.0
C      1  0.4515330000000  0.4699240000000  0.4957560000000 1.0
C      1  0.5415260000000  0.4463190000000  0.5528120000000 1.0
C      1  0.5407890000000  0.5111190000000  0.4480370000000 1.0
C      1  0.5147730000000  0.5208100000000  0.5240120000000 1.0
C      1  0.4841240000000  0.4355450000000  0.5177360000000 1.0
C      1  0.5080650000000  0.4311910000000  0.4713590000000 1.0
C      1  0.5757650000000  0.4569530000000  0.4856560000000 1.0
C      1  0.5686270000000  0.4425460000000  0.5084380000000 1.0
C      1  0.4653870000000  0.5581290000000  0.5188850000000 1.0
END
