TITL C-2847944-5688-66 -0.00365135949633095 125000 -449.022670730474 0 0 81 (C1) n - 1
REM
REM in /home/bkarasulu/work/CARBON/AIRSS/Generating-Clusters/AIREBO/with-SteepDescent/Only-C1/SD-CG-opt/Try1-1.4A-POS3A/HFTN-CG
REM
REM
REM
REM
REM
REM ./C.cell (11c1c37f851c82e70ff6c80c92926a4b)
REM
REM compiler GCC version 9.2.1 20190827 (Red Hat 9.2.1-1)
REM options -cpp -mtune=generic -march=x86-64 -g -O0 -fpre-include=/usr/include/finclude/math-vector-fortran.h
REM seed -719126597 908178022 -780464365 412240011 -155200402 -1075838010 -768799804 1990940524 -1333836657 -1258967521 -1928054865 -1306282851 -1341868778 -1875701458 -2007086958 870209162 1042974061 19639511 1997871882 -292669790 -315086715 -300832121 382947285 1929006435 544830433 -67948975 -1515747345 -1186948847 523277864 -767147469 -1216479838 220863678 1138027399
REM
CELL 1.54180   50.00000   50.00000   50.00000   90.00000   90.00000   90.00000
LATT -1
SFAC C  
C      1  0.4338770000000  0.5262030000000  0.5210230000000 1.0
C      1  0.4850070000000  0.5077230000000  0.5008960000000 1.0
C      1  0.5200410000000  0.4904660000000  0.5798670000000 1.0
C      1  0.5028970000000  0.5622520000000  0.5384480000000 1.0
C      1  0.5209920000000  0.5167390000000  0.4332430000000 1.0
C      1  0.5224700000000  0.4763970000000  0.4779250000000 1.0
C      1  0.4919970000000  0.4796230000000  0.4636950000000 1.0
C      1  0.6077000000000  0.4575440000000  0.4868860000000 1.0
C      1  0.5497430000000  0.5227360000000  0.5591510000000 1.0
C      1  0.4648230000000  0.4925980000000  0.4795070000000 1.0
C      1  0.5040520000000  0.4262700000000  0.5174680000000 1.0
C      1  0.4885480000000  0.4854280000000  0.5799770000000 1.0
C      1  0.5031100000000  0.4887500000000  0.4328790000000 1.0
C      1  0.4112890000000  0.5461870000000  0.5129920000000 1.0
C      1  0.5083350000000  0.4303010000000  0.4499660000000 1.0
C      1  0.4350880000000  0.4648090000000  0.4867050000000 1.0
C      1  0.4312330000000  0.5137620000000  0.4695740000000 1.0
C      1  0.5631140000000  0.5494060000000  0.5198070000000 1.0
C      1  0.4949610000000  0.5337730000000  0.4876850000000 1.0
C      1  0.4814740000000  0.4387320000000  0.4952610000000 1.0
C      1  0.4588040000000  0.5428350000000  0.5238170000000 1.0
C      1  0.4863630000000  0.5150440000000  0.5626780000000 1.0
C      1  0.4802040000000  0.4575410000000  0.4424120000000 1.0
C      1  0.4718610000000  0.5556710000000  0.4973020000000 1.0
C      1  0.4368820000000  0.4741840000000  0.5171980000000 1.0
C      1  0.5054440000000  0.5086900000000  0.5352300000000 1.0
C      1  0.4403870000000  0.5392200000000  0.4624200000000 1.0
C      1  0.5496660000000  0.4678350000000  0.5493730000000 1.0
C      1  0.5351230000000  0.4469940000000  0.4894070000000 1.0
C      1  0.5064490000000  0.5441110000000  0.4312840000000 1.0
C      1  0.5431130000000  0.4922820000000  0.4322460000000 1.0
C      1  0.5487160000000  0.5167960000000  0.4530380000000 1.0
C      1  0.5687490000000  0.4908890000000  0.5445180000000 1.0
C      1  0.4449140000000  0.4271860000000  0.5389090000000 1.0
C      1  0.5814530000000  0.4633960000000  0.4855320000000 1.0
C      1  0.4665630000000  0.5112970000000  0.4511520000000 1.0
C      1  0.5478480000000  0.4390840000000  0.5353740000000 1.0
C      1  0.4904560000000  0.5370300000000  0.5272260000000 1.0
C      1  0.4398120000000  0.5027290000000  0.5002190000000 1.0
C      1  0.4911720000000  0.4498850000000  0.5331210000000 1.0
C      1  0.4642910000000  0.5440620000000  0.4426970000000 1.0
C      1  0.5797630000000  0.4989360000000  0.5158020000000 1.0
C      1  0.4534500000000  0.4454960000000  0.4783350000000 1.0
C      1  0.5402020000000  0.5703530000000  0.5102140000000 1.0
C      1  0.4358440000000  0.4824020000000  0.5491650000000 1.0
C      1  0.5135600000000  0.5759990000000  0.5155390000000 1.0
C      1  0.5467350000000  0.5448490000000  0.4909650000000 1.0
C      1  0.4918550000000  0.5310160000000  0.4584670000000 1.0
C      1  0.4596130000000  0.4512570000000  0.5278690000000 1.0
C      1  0.4809340000000  0.4880860000000  0.5281490000000 1.0
C      1  0.5731790000000  0.5604600000000  0.4517080000000 1.0
C      1  0.4948730000000  0.5766990000000  0.4935590000000 1.0
C      1  0.5079570000000  0.4351980000000  0.4769920000000 1.0
C      1  0.5374150000000  0.4695540000000  0.5786690000000 1.0
C      1  0.4738100000000  0.4694420000000  0.5028860000000 1.0
C      1  0.4679430000000  0.4809260000000  0.5533070000000 1.0
C      1  0.4886840000000  0.5678340000000  0.4438060000000 1.0
C      1  0.4740020000000  0.4946510000000  0.4289660000000 1.0
C      1  0.5567330000000  0.4470070000000  0.4494680000000 1.0
C      1  0.4534600000000  0.5073380000000  0.5665110000000 1.0
C      1  0.5316340000000  0.4321020000000  0.5149920000000 1.0
C      1  0.4439880000000  0.5584540000000  0.4826810000000 1.0
C      1  0.5199480000000  0.4911810000000  0.5099090000000 1.0
C      1  0.4587910000000  0.4439590000000  0.4506480000000 1.0
C      1  0.5658480000000  0.5228020000000  0.5319750000000 1.0
C      1  0.4952710000000  0.5839370000000  0.4660000000000 1.0
C      1  0.4893410000000  0.5466920000000  0.5656730000000 1.0
C      1  0.4271990000000  0.5143070000000  0.5478110000000 1.0
C      1  0.5265240000000  0.5099960000000  0.5612300000000 1.0
C      1  0.5571430000000  0.5435930000000  0.4631820000000 1.0
C      1  0.5101670000000  0.4556520000000  0.4288010000000 1.0
C      1  0.4655290000000  0.5577810000000  0.5518140000000 1.0
C      1  0.5459480000000  0.5008840000000  0.4802070000000 1.0
C      1  0.5242690000000  0.5218660000000  0.4959040000000 1.0
C      1  0.5623660000000  0.4451320000000  0.4762900000000 1.0
C      1  0.5712590000000  0.4885260000000  0.4924300000000 1.0
C      1  0.5185630000000  0.4709140000000  0.5359380000000 1.0
C      1  0.4218090000000  0.4841180000000  0.4699210000000 1.0
C      1  0.5004720000000  0.4603140000000  0.5624780000000 1.0
C      1  0.4209040000000  0.5660240000000  0.4965560000000 1.0
C      1  0.5339960000000  0.4678030000000  0.4470750000000 1.0
END
