TITL C-2848504-8560-112 -0.00175583746005726 125000 -1054.45047428336 0 0 198 (C1) n - 1
REM
REM in /home/bkarasulu/work/CARBON/AIRSS/Generating-Clusters/AIREBO/with-SteepDescent/Only-C1/SD-CG-opt/Try1-1.4A-POS3A/HFTN-CG
REM
REM
REM
REM
REM
REM ./C.cell (11c1c37f851c82e70ff6c80c92926a4b)
REM
REM compiler GCC version 9.2.1 20190827 (Red Hat 9.2.1-1)
REM options -cpp -mtune=generic -march=x86-64 -g -O0 -fpre-include=/usr/include/finclude/math-vector-fortran.h
REM seed 419012830 1809383587 -1874834191 -1070327360 -1350416370 -2006942771 1195337443 516554958 -179039521 -832496404 58446854 1799651256 297338544 2024640401 1056659377 -1999311646 909394620 -1932593314 179982728 -1038218273 -2019563895 1625655789 77177265 1704511325 897336076 -1613719853 824500011 1105968309 -67704683 -321109052 750674867 -1128857223 742965277
REM
CELL 1.54180   50.00000   50.00000   50.00000   90.00000   90.00000   90.00000
LATT -1
SFAC C  
C      1  0.4171240000000  0.5501790000000  0.5761220000000 1.0
C      1  0.4937930000000  0.5085210000000  0.5729660000000 1.0
C      1  0.4529150000000  0.5198110000000  0.4102440000000 1.0
C      1  0.4173510000000  0.5147360000000  0.4909010000000 1.0
C      1  0.5370140000000  0.4376290000000  0.4768490000000 1.0
C      1  0.5012170000000  0.4176750000000  0.5736350000000 1.0
C      1  0.4176380000000  0.5539150000000  0.5422610000000 1.0
C      1  0.5361530000000  0.4385610000000  0.6092420000000 1.0
C      1  0.5358920000000  0.5239960000000  0.5980750000000 1.0
C      1  0.5372350000000  0.5116410000000  0.3832360000000 1.0
C      1  0.4131500000000  0.4957580000000  0.5258540000000 1.0
C      1  0.5654540000000  0.5907590000000  0.4930200000000 1.0
C      1  0.5862430000000  0.5586500000000  0.5354360000000 1.0
C      1  0.5505270000000  0.4380410000000  0.5852900000000 1.0
C      1  0.5603510000000  0.5648940000000  0.5442680000000 1.0
C      1  0.4180760000000  0.4043000000000  0.4665130000000 1.0
C      1  0.4461400000000  0.4822700000000  0.5049470000000 1.0
C      1  0.4765770000000  0.3847560000000  0.5121010000000 1.0
C      1  0.4353210000000  0.5191380000000  0.5149790000000 1.0
C      1  0.5431510000000  0.5817570000000  0.5244760000000 1.0
C      1  0.4377020000000  0.5969060000000  0.4544500000000 1.0
C      1  0.3933500000000  0.4917860000000  0.4984900000000 1.0
C      1  0.5400640000000  0.4913780000000  0.4090010000000 1.0
C      1  0.4650100000000  0.4911980000000  0.3977340000000 1.0
C      1  0.5261820000000  0.4328460000000  0.4254840000000 1.0
C      1  0.3938640000000  0.4482030000000  0.5290390000000 1.0
C      1  0.4662350000000  0.5065810000000  0.5160880000000 1.0
C      1  0.5682670000000  0.5145570000000  0.6030970000000 1.0
C      1  0.4922780000000  0.4514630000000  0.4913820000000 1.0
C      1  0.5155080000000  0.5222940000000  0.4819330000000 1.0
C      1  0.4901840000000  0.4526830000000  0.4574540000000 1.0
C      1  0.4323130000000  0.4478950000000  0.4551210000000 1.0
C      1  0.3848810000000  0.5247670000000  0.4922270000000 1.0
C      1  0.5322270000000  0.4780140000000  0.4456190000000 1.0
C      1  0.5679750000000  0.4757530000000  0.4099570000000 1.0
C      1  0.4281540000000  0.4683750000000  0.5393250000000 1.0
C      1  0.4672150000000  0.4017240000000  0.4889930000000 1.0
C      1  0.5389440000000  0.5987930000000  0.4642680000000 1.0
C      1  0.5911120000000  0.4615490000000  0.4804930000000 1.0
C      1  0.5311350000000  0.4255290000000  0.5639160000000 1.0
C      1  0.4490530000000  0.4791670000000  0.5881190000000 1.0
C      1  0.4453840000000  0.5495750000000  0.4248610000000 1.0
C      1  0.4722230000000  0.5992890000000  0.5180900000000 1.0
C      1  0.4519910000000  0.4589030000000  0.5616640000000 1.0
C      1  0.5681830000000  0.4533250000000  0.5121930000000 1.0
C      1  0.4694630000000  0.4064120000000  0.4493930000000 1.0
C      1  0.6130690000000  0.5466450000000  0.5028470000000 1.0
C      1  0.5071170000000  0.5098760000000  0.4530990000000 1.0
C      1  0.4026600000000  0.5450480000000  0.5124460000000 1.0
C      1  0.5383810000000  0.5422670000000  0.4268080000000 1.0
C      1  0.5673970000000  0.5370530000000  0.5776140000000 1.0
C      1  0.6106950000000  0.4720160000000  0.5531000000000 1.0
C      1  0.5101230000000  0.5553450000000  0.4760270000000 1.0
C      1  0.4839460000000  0.4601710000000  0.5520040000000 1.0
C      1  0.5219360000000  0.5150200000000  0.4255720000000 1.0
C      1  0.4739810000000  0.4587740000000  0.3918160000000 1.0
C      1  0.5669310000000  0.4706270000000  0.4640830000000 1.0
C      1  0.4566800000000  0.4259520000000  0.5547270000000 1.0
C      1  0.4613810000000  0.5779700000000  0.4962150000000 1.0
C      1  0.5991360000000  0.5151130000000  0.4361700000000 1.0
C      1  0.4997790000000  0.4734330000000  0.3892640000000 1.0
C      1  0.4741840000000  0.4354410000000  0.4078310000000 1.0
C      1  0.4825560000000  0.4915950000000  0.6205670000000 1.0
C      1  0.4176660000000  0.4341430000000  0.4825520000000 1.0
C      1  0.5751850000000  0.4473230000000  0.4256790000000 1.0
C      1  0.5529370000000  0.5553770000000  0.5062870000000 1.0
C      1  0.5079730000000  0.4477400000000  0.6061340000000 1.0
C      1  0.3987720000000  0.5298190000000  0.4474140000000 1.0
C      1  0.5157620000000  0.5384590000000  0.5183600000000 1.0
C      1  0.4772360000000  0.5271540000000  0.4329210000000 1.0
C      1  0.5966410000000  0.5436240000000  0.4505010000000 1.0
C      1  0.4854370000000  0.5774150000000  0.4350830000000 1.0
C      1  0.4051240000000  0.4660360000000  0.4457490000000 1.0
C      1  0.4232330000000  0.4881320000000  0.4727720000000 1.0
C      1  0.5061610000000  0.5058410000000  0.3837160000000 1.0
C      1  0.5250750000000  0.4863190000000  0.5218840000000 1.0
C      1  0.5831730000000  0.4314670000000  0.4906750000000 1.0
C      1  0.4140440000000  0.4356080000000  0.5163300000000 1.0
C      1  0.6215180000000  0.5154010000000  0.5346790000000 1.0
C      1  0.3771070000000  0.5323480000000  0.4655990000000 1.0
C      1  0.5794650000000  0.5210150000000  0.5241120000000 1.0
C      1  0.5134040000000  0.5790100000000  0.4543530000000 1.0
C      1  0.5561060000000  0.5274470000000  0.4042450000000 1.0
C      1  0.4891530000000  0.6100670000000  0.4678770000000 1.0
C      1  0.5969610000000  0.5306920000000  0.5498980000000 1.0
C      1  0.4031710000000  0.5245600000000  0.5395820000000 1.0
C      1  0.5504480000000  0.3958730000000  0.5030320000000 1.0
C      1  0.4529290000000  0.5464360000000  0.5592890000000 1.0
C      1  0.5151270000000  0.5633430000000  0.4259910000000 1.0
C      1  0.4176570000000  0.5870040000000  0.4702690000000 1.0
C      1  0.4809960000000  0.4822040000000  0.4821880000000 1.0
C      1  0.5899290000000  0.5698550000000  0.5043080000000 1.0
C      1  0.3887570000000  0.4745560000000  0.5364440000000 1.0
C      1  0.5755690000000  0.5067800000000  0.4182690000000 1.0
C      1  0.5216170000000  0.3997800000000  0.5177890000000 1.0
C      1  0.5125130000000  0.4326540000000  0.4552900000000 1.0
C      1  0.5658400000000  0.4665780000000  0.5786540000000 1.0
C      1  0.5017560000000  0.3756440000000  0.5159070000000 1.0
C      1  0.4553640000000  0.5902520000000  0.5909770000000 1.0
C      1  0.5451270000000  0.4100480000000  0.4586830000000 1.0
C      1  0.5635200000000  0.4084370000000  0.4824470000000 1.0
C      1  0.4980720000000  0.4210700000000  0.5055320000000 1.0
C      1  0.5126650000000  0.6069160000000  0.4842600000000 1.0
C      1  0.4597690000000  0.4612730000000  0.4644890000000 1.0
C      1  0.5252310000000  0.6159270000000  0.5342050000000 1.0
C      1  0.4459350000000  0.5069510000000  0.4468500000000 1.0
C      1  0.5403680000000  0.6087330000000  0.5046110000000 1.0
C      1  0.4343820000000  0.5017790000000  0.5840080000000 1.0
C      1  0.5415780000000  0.5550390000000  0.5904990000000 1.0
C      1  0.4397790000000  0.3959360000000  0.4567120000000 1.0
C      1  0.4929610000000  0.5453090000000  0.4125380000000 1.0
C      1  0.4932060000000  0.4124810000000  0.4729760000000 1.0
C      1  0.5275260000000  0.5101350000000  0.5683170000000 1.0
C      1  0.4765110000000  0.4281660000000  0.5801610000000 1.0
C      1  0.4282280000000  0.5327220000000  0.4641640000000 1.0
C      1  0.4671750000000  0.4653050000000  0.5228710000000 1.0
C      1  0.4331050000000  0.5191160000000  0.5547840000000 1.0
C      1  0.5567190000000  0.5447710000000  0.4508470000000 1.0
C      1  0.4461880000000  0.4610940000000  0.4203500000000 1.0
C      1  0.4970220000000  0.4731820000000  0.5171280000000 1.0
C      1  0.5263070000000  0.4832150000000  0.5992460000000 1.0
C      1  0.5026820000000  0.5098780000000  0.5318730000000 1.0
C      1  0.4777070000000  0.5224090000000  0.4652550000000 1.0
C      1  0.4461260000000  0.4217020000000  0.4970140000000 1.0
C      1  0.5920270000000  0.4809710000000  0.5713400000000 1.0
C      1  0.4524780000000  0.4309390000000  0.4336190000000 1.0
C      1  0.5531330000000  0.4755940000000  0.5330290000000 1.0
C      1  0.5167130000000  0.4721220000000  0.4159380000000 1.0
C      1  0.4632810000000  0.5717150000000  0.4168990000000 1.0
C      1  0.5209900000000  0.4418890000000  0.5195800000000 1.0
C      1  0.4600200000000  0.4858120000000  0.4307430000000 1.0
C      1  0.4668620000000  0.4711270000000  0.6079570000000 1.0
C      1  0.5626510000000  0.5181460000000  0.4662380000000 1.0
C      1  0.5719840000000  0.5545890000000  0.4797740000000 1.0
C      1  0.4931460000000  0.5533290000000  0.5715420000000 1.0
C      1  0.5476740000000  0.5284180000000  0.5222110000000 1.0
C      1  0.5419940000000  0.4089080000000  0.5416010000000 1.0
C      1  0.4492750000000  0.4947760000000  0.5430910000000 1.0
C      1  0.5629180000000  0.5975260000000  0.4489440000000 1.0
C      1  0.4132370000000  0.4994700000000  0.4423060000000 1.0
C      1  0.5424680000000  0.5378410000000  0.5545010000000 1.0
C      1  0.5136030000000  0.5906110000000  0.5519090000000 1.0
C      1  0.5116870000000  0.4478910000000  0.5488560000000 1.0
C      1  0.6115210000000  0.4863750000000  0.5251820000000 1.0
C      1  0.5892580000000  0.4288930000000  0.5229170000000 1.0
C      1  0.5895170000000  0.5117790000000  0.5763880000000 1.0
C      1  0.4364600000000  0.5672810000000  0.5172910000000 1.0
C      1  0.4432170000000  0.6111000000000  0.5093410000000 1.0
C      1  0.4909480000000  0.5376400000000  0.6000200000000 1.0
C      1  0.5032160000000  0.5991240000000  0.5144690000000 1.0
C      1  0.4541100000000  0.5537530000000  0.4575110000000 1.0
C      1  0.4794170000000  0.4455730000000  0.6036510000000 1.0
C      1  0.5592370000000  0.4815220000000  0.4940940000000 1.0
C      1  0.6054130000000  0.4856170000000  0.4917650000000 1.0
C      1  0.5185230000000  0.4606910000000  0.5781430000000 1.0
C      1  0.4824150000000  0.5436840000000  0.5142320000000 1.0
C      1  0.4235860000000  0.5902250000000  0.5004300000000 1.0
C      1  0.5445820000000  0.5123080000000  0.4924120000000 1.0
C      1  0.4192420000000  0.4586390000000  0.5708790000000 1.0
C      1  0.4806910000000  0.4913910000000  0.5499960000000 1.0
C      1  0.4339420000000  0.5332710000000  0.5917930000000 1.0
C      1  0.5797320000000  0.4907210000000  0.5196220000000 1.0
C      1  0.6020360000000  0.5184800000000  0.4999060000000 1.0
C      1  0.5476340000000  0.4486440000000  0.4066480000000 1.0
C      1  0.4675820000000  0.5743910000000  0.5684790000000 1.0
C      1  0.5948960000000  0.5149420000000  0.4699080000000 1.0
C      1  0.4770990000000  0.5511440000000  0.4824420000000 1.0
C      1  0.5781080000000  0.5705280000000  0.4503720000000 1.0
C      1  0.5066660000000  0.5078110000000  0.6044350000000 1.0
C      1  0.4715760000000  0.4136920000000  0.5267260000000 1.0
C      1  0.5651510000000  0.4180440000000  0.5328810000000 1.0
C      1  0.4983570000000  0.4214310000000  0.4132040000000 1.0
C      1  0.4656300000000  0.5262590000000  0.5815770000000 1.0
C      1  0.4673530000000  0.5845950000000  0.4629810000000 1.0
C      1  0.5401640000000  0.4812520000000  0.5618560000000 1.0
C      1  0.5223890000000  0.5631050000000  0.5667080000000 1.0
C      1  0.4919870000000  0.5032990000000  0.4145330000000 1.0
C      1  0.5133580000000  0.5686590000000  0.5259460000000 1.0
C      1  0.4889700000000  0.5374290000000  0.5463390000000 1.0
C      1  0.4022960000000  0.4646390000000  0.4796110000000 1.0
C      1  0.4165490000000  0.5576330000000  0.4841780000000 1.0
C      1  0.5240170000000  0.3955770000000  0.4460260000000 1.0
C      1  0.4935790000000  0.5085860000000  0.4991360000000 1.0
C      1  0.4530820000000  0.5424240000000  0.5277710000000 1.0
C      1  0.4982000000000  0.4014080000000  0.4348900000000 1.0
C      1  0.5483440000000  0.4480850000000  0.4465450000000 1.0
C      1  0.4537420000000  0.5021960000000  0.4784520000000 1.0
C      1  0.5297040000000  0.4647750000000  0.4959760000000 1.0
C      1  0.4373730000000  0.4165540000000  0.5285030000000 1.0
C      1  0.5369600000000  0.5736060000000  0.4858580000000 1.0
C      1  0.4526000000000  0.4517730000000  0.4951640000000 1.0
C      1  0.5132980000000  0.4819730000000  0.4715290000000 1.0
C      1  0.5529430000000  0.4871690000000  0.5991930000000 1.0
C      1  0.5619740000000  0.4944940000000  0.4454560000000 1.0
C      1  0.4913810000000  0.4771950000000  0.4365810000000 1.0
C      1  0.4926040000000  0.5346670000000  0.3871370000000 1.0
C      1  0.4819710000000  0.5909470000000  0.5472630000000 1.0
C      1  0.4213930000000  0.5254830000000  0.4219490000000 1.0
END
