TITL C-2847947-6848-34 0.00391985679647381 125000 -547.531908352478 0 0 104 (C1) n - 1
REM
REM in /home/bkarasulu/work/CARBON/AIRSS/Generating-Clusters/AIREBO/with-SteepDescent/Only-C1/SD-CG-opt/Try1-1.4A-POS3A/HFTN-CG
REM
REM
REM
REM
REM
REM ./C.cell (11c1c37f851c82e70ff6c80c92926a4b)
REM
REM compiler GCC version 9.2.1 20190827 (Red Hat 9.2.1-1)
REM options -cpp -mtune=generic -march=x86-64 -g -O0 -fpre-include=/usr/include/finclude/math-vector-fortran.h
REM seed -134645912 1882158497 473574635 1024586292 1262097161 1832026856 1353204340 -33456305 1352351667 -1513398535 -1870901538 493997433 703102924 1353918597 1354236393 852195138 -1848145497 -1805629716 98574477 -232986410 1569930850 1283828219 1210831023 -691207283 -1733851351 1831095191 -452569522 -1935331986 -389246615 -1067127484 -582670575 638168027 563691267
REM
CELL 1.54180   50.00000   50.00000   50.00000   90.00000   90.00000   90.00000
LATT -1
SFAC C  
C      1  0.5812290000000  0.5017320000000  0.4974890000000 1.0
C      1  0.5105190000000  0.4493610000000  0.4234320000000 1.0
C      1  0.5075900000000  0.4682900000000  0.5040180000000 1.0
C      1  0.4482140000000  0.5203710000000  0.4909290000000 1.0
C      1  0.5444630000000  0.4566820000000  0.5585170000000 1.0
C      1  0.4966720000000  0.4417430000000  0.5742180000000 1.0
C      1  0.5136180000000  0.4249580000000  0.4702180000000 1.0
C      1  0.4744120000000  0.4564180000000  0.5406310000000 1.0
C      1  0.4633700000000  0.4601630000000  0.5024450000000 1.0
C      1  0.4879330000000  0.4783040000000  0.5583620000000 1.0
C      1  0.4880820000000  0.4698680000000  0.5913020000000 1.0
C      1  0.5508780000000  0.5399330000000  0.4329120000000 1.0
C      1  0.5738730000000  0.5312720000000  0.4716450000000 1.0
C      1  0.5545390000000  0.5660560000000  0.4747110000000 1.0
C      1  0.4647290000000  0.5421480000000  0.5411300000000 1.0
C      1  0.4724390000000  0.5361890000000  0.4168770000000 1.0
C      1  0.5105000000000  0.4061180000000  0.4983660000000 1.0
C      1  0.5936850000000  0.4972130000000  0.5456070000000 1.0
C      1  0.4991250000000  0.5869300000000  0.5319120000000 1.0
C      1  0.4657210000000  0.5248760000000  0.4553730000000 1.0
C      1  0.5054550000000  0.5541930000000  0.4921570000000 1.0
C      1  0.5229440000000  0.5833520000000  0.4917040000000 1.0
C      1  0.4245210000000  0.4970960000000  0.5131430000000 1.0
C      1  0.4635620000000  0.4502780000000  0.5782120000000 1.0
C      1  0.5481940000000  0.5651770000000  0.4429080000000 1.0
C      1  0.5189480000000  0.4359510000000  0.5491410000000 1.0
C      1  0.4567100000000  0.5815390000000  0.4899830000000 1.0
C      1  0.4577510000000  0.5078510000000  0.4266310000000 1.0
C      1  0.5086850000000  0.5098740000000  0.4198760000000 1.0
C      1  0.5069540000000  0.4756580000000  0.4595250000000 1.0
C      1  0.4267860000000  0.4453620000000  0.4848890000000 1.0
C      1  0.5113460000000  0.4097620000000  0.5285400000000 1.0
C      1  0.5209830000000  0.4568460000000  0.4794500000000 1.0
C      1  0.5443730000000  0.5013840000000  0.5229350000000 1.0
C      1  0.5196690000000  0.5061440000000  0.5000380000000 1.0
C      1  0.4719430000000  0.5632890000000  0.5657720000000 1.0
C      1  0.4783380000000  0.5638480000000  0.4614110000000 1.0
C      1  0.5654450000000  0.5693900000000  0.5024160000000 1.0
C      1  0.4759350000000  0.5390520000000  0.4845750000000 1.0
C      1  0.5392770000000  0.5171210000000  0.5500090000000 1.0
C      1  0.5141900000000  0.4909150000000  0.5853550000000 1.0
C      1  0.4437220000000  0.4780590000000  0.5236670000000 1.0
C      1  0.5257440000000  0.5865270000000  0.5213170000000 1.0
C      1  0.5459260000000  0.4259780000000  0.4665480000000 1.0
C      1  0.4738050000000  0.5302600000000  0.5693720000000 1.0
C      1  0.4988180000000  0.5355040000000  0.4254890000000 1.0
C      1  0.4830290000000  0.5728460000000  0.5096750000000 1.0
C      1  0.4304390000000  0.5255690000000  0.5170040000000 1.0
C      1  0.5197170000000  0.4892260000000  0.5518400000000 1.0
C      1  0.4249190000000  0.4391230000000  0.5351090000000 1.0
C      1  0.4336690000000  0.4343790000000  0.5092680000000 1.0
C      1  0.4638320000000  0.4279100000000  0.5110030000000 1.0
C      1  0.4163060000000  0.4946060000000  0.4861810000000 1.0
C      1  0.4500030000000  0.5714150000000  0.5182690000000 1.0
C      1  0.4465640000000  0.5646510000000  0.4685630000000 1.0
C      1  0.4245600000000  0.4780690000000  0.5690650000000 1.0
C      1  0.5466110000000  0.5167360000000  0.4574150000000 1.0
C      1  0.4432190000000  0.4613030000000  0.5532600000000 1.0
C      1  0.4829600000000  0.5850450000000  0.4395130000000 1.0
C      1  0.5529520000000  0.5428930000000  0.5180400000000 1.0
C      1  0.4126040000000  0.5183960000000  0.4681150000000 1.0
C      1  0.4395600000000  0.5031600000000  0.4548510000000 1.0
C      1  0.5032800000000  0.5136510000000  0.4711940000000 1.0
C      1  0.5581650000000  0.4258690000000  0.4917630000000 1.0
C      1  0.5759450000000  0.4995700000000  0.4651830000000 1.0
C      1  0.5665320000000  0.4556950000000  0.5348180000000 1.0
C      1  0.5335780000000  0.4636240000000  0.4323300000000 1.0
C      1  0.4868470000000  0.4301820000000  0.4905260000000 1.0
C      1  0.4697510000000  0.4990530000000  0.5712700000000 1.0
C      1  0.4376310000000  0.5480730000000  0.5299630000000 1.0
C      1  0.4817300000000  0.5270070000000  0.5158670000000 1.0
C      1  0.5298320000000  0.5429260000000  0.4712320000000 1.0
C      1  0.4954260000000  0.5793820000000  0.5585240000000 1.0
C      1  0.4719740000000  0.4399370000000  0.4477970000000 1.0
C      1  0.5431900000000  0.5687830000000  0.5354890000000 1.0
C      1  0.5424560000000  0.4414210000000  0.5172560000000 1.0
C      1  0.4993190000000  0.4294720000000  0.4418220000000 1.0
C      1  0.5740190000000  0.4534150000000  0.5016810000000 1.0
C      1  0.5522580000000  0.4633220000000  0.4793880000000 1.0
C      1  0.4815900000000  0.4577550000000  0.4735870000000 1.0
C      1  0.4997480000000  0.4476100000000  0.5240900000000 1.0
C      1  0.4685880000000  0.4688010000000  0.4374270000000 1.0
C      1  0.5206410000000  0.5358630000000  0.5151550000000 1.0
C      1  0.4789770000000  0.4941140000000  0.4576170000000 1.0
C      1  0.5737980000000  0.4862900000000  0.5243460000000 1.0
C      1  0.5385100000000  0.5444250000000  0.5551290000000 1.0
C      1  0.5108240000000  0.5542080000000  0.5663860000000 1.0
C      1  0.5758420000000  0.5309690000000  0.5013980000000 1.0
C      1  0.5266940000000  0.4953250000000  0.4400050000000 1.0
C      1  0.5308020000000  0.4724590000000  0.5248210000000 1.0
C      1  0.5017110000000  0.5421990000000  0.4542700000000 1.0
C      1  0.4883340000000  0.4660100000000  0.4135320000000 1.0
C      1  0.5325960000000  0.5882830000000  0.4624000000000 1.0
C      1  0.5401690000000  0.4920400000000  0.4798850000000 1.0
C      1  0.4879750000000  0.4951740000000  0.5056830000000 1.0
C      1  0.5511660000000  0.4504720000000  0.4494690000000 1.0
C      1  0.5044190000000  0.5187590000000  0.5735880000000 1.0
C      1  0.4329430000000  0.5414340000000  0.4710430000000 1.0
C      1  0.4815840000000  0.4228820000000  0.5384780000000 1.0
C      1  0.4343520000000  0.4737170000000  0.4718410000000 1.0
C      1  0.5030510000000  0.5316630000000  0.5421480000000 1.0
C      1  0.4609170000000  0.4897200000000  0.4858200000000 1.0
C      1  0.4856500000000  0.4951780000000  0.4128280000000 1.0
C      1  0.5246290000000  0.4589060000000  0.5806210000000 1.0
END
