TITL C-2847944-5688-201 0.00244616740606695 125000 -1027.17764687683 0 0 185 (C1) n - 1
REM
REM in /home/bkarasulu/work/CARBON/AIRSS/Generating-Clusters/AIREBO/with-SteepDescent/Only-C1/SD-CG-opt/Try1-1.4A-POS3A/HFTN-CG
REM
REM
REM
REM
REM
REM ./C.cell (11c1c37f851c82e70ff6c80c92926a4b)
REM
REM compiler GCC version 9.2.1 20190827 (Red Hat 9.2.1-1)
REM options -cpp -mtune=generic -march=x86-64 -g -O0 -fpre-include=/usr/include/finclude/math-vector-fortran.h
REM seed 876023439 -249494929 881344872 -891700428 1485382663 -903899867 -1350815321 -1008203735 -863917131 -742803627 -1505500225 801082531 -892254998 2043667593 679605074 -1454018504 1422635460 -421938817 1574550105 952846842 -753490374 1444656549 -290647897 -1336115258 86159167 -716687388 -784630540 1881614094 -1462797300 241198187 453248517 -19286436 -900836171
REM
CELL 1.54180   50.00000   50.00000   50.00000   90.00000   90.00000   90.00000
LATT -1
SFAC C  
C      1  0.5497190000000  0.4977410000000  0.5795310000000 1.0
C      1  0.5604770000000  0.4661830000000  0.5748760000000 1.0
C      1  0.4853730000000  0.5602020000000  0.5190600000000 1.0
C      1  0.5662910000000  0.4823960000000  0.5465570000000 1.0
C      1  0.4880650000000  0.3799160000000  0.4873020000000 1.0
C      1  0.4033610000000  0.5392220000000  0.4920570000000 1.0
C      1  0.4344640000000  0.5041410000000  0.5788460000000 1.0
C      1  0.4543850000000  0.4618400000000  0.4065290000000 1.0
C      1  0.4510250000000  0.4798270000000  0.4920490000000 1.0
C      1  0.4903210000000  0.4391400000000  0.4439600000000 1.0
C      1  0.4363500000000  0.4346590000000  0.5625290000000 1.0
C      1  0.5450800000000  0.3977120000000  0.5269060000000 1.0
C      1  0.5580650000000  0.5655000000000  0.5028290000000 1.0
C      1  0.5677660000000  0.4066630000000  0.5028980000000 1.0
C      1  0.5978870000000  0.5276030000000  0.5644210000000 1.0
C      1  0.5246770000000  0.5758510000000  0.5488250000000 1.0
C      1  0.5676040000000  0.5166570000000  0.4638070000000 1.0
C      1  0.5478820000000  0.5759770000000  0.4155920000000 1.0
C      1  0.4753170000000  0.4773490000000  0.3969590000000 1.0
C      1  0.4109960000000  0.4664000000000  0.4800110000000 1.0
C      1  0.5448220000000  0.4862040000000  0.4025670000000 1.0
C      1  0.4707790000000  0.5101120000000  0.4034560000000 1.0
C      1  0.4759950000000  0.4204030000000  0.5027100000000 1.0
C      1  0.5120750000000  0.4155900000000  0.4552680000000 1.0
C      1  0.5041440000000  0.5047840000000  0.5622550000000 1.0
C      1  0.3982620000000  0.4648860000000  0.5792040000000 1.0
C      1  0.5017410000000  0.4620310000000  0.4026160000000 1.0
C      1  0.4064730000000  0.4467970000000  0.4353330000000 1.0
C      1  0.5419040000000  0.4601800000000  0.4109800000000 1.0
C      1  0.4173500000000  0.5686600000000  0.4823330000000 1.0
C      1  0.4245210000000  0.4495210000000  0.5851650000000 1.0
C      1  0.3860780000000  0.4667580000000  0.5112310000000 1.0
C      1  0.5448990000000  0.5140880000000  0.6048620000000 1.0
C      1  0.5107630000000  0.5241260000000  0.3946970000000 1.0
C      1  0.4489990000000  0.5145970000000  0.4279390000000 1.0
C      1  0.5309360000000  0.5300180000000  0.5247100000000 1.0
C      1  0.5291370000000  0.4727030000000  0.4581120000000 1.0
C      1  0.5117360000000  0.4541140000000  0.5527760000000 1.0
C      1  0.4608550000000  0.3906020000000  0.4964820000000 1.0
C      1  0.4890180000000  0.5147340000000  0.4851320000000 1.0
C      1  0.5307600000000  0.5622660000000  0.5188660000000 1.0
C      1  0.5965420000000  0.5416120000000  0.4504470000000 1.0
C      1  0.4699340000000  0.4693590000000  0.5781150000000 1.0
C      1  0.5772000000000  0.4962630000000  0.5106840000000 1.0
C      1  0.5569730000000  0.5614170000000  0.4702270000000 1.0
C      1  0.5637260000000  0.5542560000000  0.4137090000000 1.0
C      1  0.5243540000000  0.5005570000000  0.4419560000000 1.0
C      1  0.5306630000000  0.5383640000000  0.6078170000000 1.0
C      1  0.5597520000000  0.4218160000000  0.4398980000000 1.0
C      1  0.5337570000000  0.6248080000000  0.5556320000000 1.0
C      1  0.5474320000000  0.4293750000000  0.4968880000000 1.0
C      1  0.5493910000000  0.4426690000000  0.5217760000000 1.0
C      1  0.4902400000000  0.4939530000000  0.5900070000000 1.0
C      1  0.5040960000000  0.4247150000000  0.5101630000000 1.0
C      1  0.5835480000000  0.4287270000000  0.5551180000000 1.0
C      1  0.5211770000000  0.5291370000000  0.4266990000000 1.0
C      1  0.5963350000000  0.5909840000000  0.4575450000000 1.0
C      1  0.6037340000000  0.5303060000000  0.5097640000000 1.0
C      1  0.5691460000000  0.5489550000000  0.5569810000000 1.0
C      1  0.4421970000000  0.4740360000000  0.5928450000000 1.0
C      1  0.5083860000000  0.4368190000000  0.5786580000000 1.0
C      1  0.5748360000000  0.5449740000000  0.5154850000000 1.0
C      1  0.5650510000000  0.5070570000000  0.4049730000000 1.0
C      1  0.5202940000000  0.6071440000000  0.4927940000000 1.0
C      1  0.4871580000000  0.5295900000000  0.4262690000000 1.0
C      1  0.5718380000000  0.4869870000000  0.4805710000000 1.0
C      1  0.4307070000000  0.4588430000000  0.5404760000000 1.0
C      1  0.4300840000000  0.5212830000000  0.4888230000000 1.0
C      1  0.5190710000000  0.5682980000000  0.4596480000000 1.0
C      1  0.4994270000000  0.4851690000000  0.4274490000000 1.0
C      1  0.4687400000000  0.5771270000000  0.4212690000000 1.0
C      1  0.4682560000000  0.4970230000000  0.4723870000000 1.0
C      1  0.4073660000000  0.5605710000000  0.5173640000000 1.0
C      1  0.4367240000000  0.4507560000000  0.4406070000000 1.0
C      1  0.5420400000000  0.5363270000000  0.4526160000000 1.0
C      1  0.4499400000000  0.5391270000000  0.4730270000000 1.0
C      1  0.4266380000000  0.4450520000000  0.4926080000000 1.0
C      1  0.4821590000000  0.5232070000000  0.5962870000000 1.0
C      1  0.4622590000000  0.4236820000000  0.5627320000000 1.0
C      1  0.4081740000000  0.5567030000000  0.5441060000000 1.0
C      1  0.5293760000000  0.6010250000000  0.4168370000000 1.0
C      1  0.5467790000000  0.5643830000000  0.5674860000000 1.0
C      1  0.5204530000000  0.5119460000000  0.4906710000000 1.0
C      1  0.4477760000000  0.5241110000000  0.5547250000000 1.0
C      1  0.5982500000000  0.5481230000000  0.5384010000000 1.0
C      1  0.5208410000000  0.4342790000000  0.4074400000000 1.0
C      1  0.5597060000000  0.5187900000000  0.5233340000000 1.0
C      1  0.5391470000000  0.4223240000000  0.5786410000000 1.0
C      1  0.4318750000000  0.5373150000000  0.3871420000000 1.0
C      1  0.5405060000000  0.4702560000000  0.5322910000000 1.0
C      1  0.5032310000000  0.5366510000000  0.6139990000000 1.0
C      1  0.3773150000000  0.4595110000000  0.4832820000000 1.0
C      1  0.4985600000000  0.3885780000000  0.4638380000000 1.0
C      1  0.5269060000000  0.4827830000000  0.5608330000000 1.0
C      1  0.4661580000000  0.5035250000000  0.5234570000000 1.0
C      1  0.5981190000000  0.5243620000000  0.4767610000000 1.0
C      1  0.5191370000000  0.4974010000000  0.4025530000000 1.0
C      1  0.5151250000000  0.6053200000000  0.5502940000000 1.0
C      1  0.5059770000000  0.5074590000000  0.5197800000000 1.0
C      1  0.5862580000000  0.4339230000000  0.5042660000000 1.0
C      1  0.4277160000000  0.4247680000000  0.5198730000000 1.0
C      1  0.5919490000000  0.4734470000000  0.5314850000000 1.0
C      1  0.4906850000000  0.4718920000000  0.6120550000000 1.0
C      1  0.6092130000000  0.4755990000000  0.4720510000000 1.0
C      1  0.4134360000000  0.5015790000000  0.5260180000000 1.0
C      1  0.5792270000000  0.4954530000000  0.4399030000000 1.0
C      1  0.5409310000000  0.5604770000000  0.5937070000000 1.0
C      1  0.4482640000000  0.4301090000000  0.4625590000000 1.0
C      1  0.4791280000000  0.5775950000000  0.5740820000000 1.0
C      1  0.4613540000000  0.5591780000000  0.5922220000000 1.0
C      1  0.4636430000000  0.4684710000000  0.6177900000000 1.0
C      1  0.4879380000000  0.6119170000000  0.5441140000000 1.0
C      1  0.5619500000000  0.4386830000000  0.5747240000000 1.0
C      1  0.5843020000000  0.5664870000000  0.4576320000000 1.0
C      1  0.4351140000000  0.5556610000000  0.5534670000000 1.0
C      1  0.4828670000000  0.5302460000000  0.5124090000000 1.0
C      1  0.3895190000000  0.4952880000000  0.5143430000000 1.0
C      1  0.4854920000000  0.4068640000000  0.5444600000000 1.0
C      1  0.4388110000000  0.4834520000000  0.5201100000000 1.0
C      1  0.5215390000000  0.4288180000000  0.4825720000000 1.0
C      1  0.4904820000000  0.4795100000000  0.5213550000000 1.0
C      1  0.5375560000000  0.5879390000000  0.4745190000000 1.0
C      1  0.4687880000000  0.4706070000000  0.5459440000000 1.0
C      1  0.5857360000000  0.4556720000000  0.4809870000000 1.0
C      1  0.4691910000000  0.5229300000000  0.4521460000000 1.0
C      1  0.3804630000000  0.5177740000000  0.4987660000000 1.0
C      1  0.5172250000000  0.5724700000000  0.4307350000000 1.0
C      1  0.4302380000000  0.4770410000000  0.4113500000000 1.0
C      1  0.4030150000000  0.4476910000000  0.5246190000000 1.0
C      1  0.4841320000000  0.6418600000000  0.5035210000000 1.0
C      1  0.6125280000000  0.4983190000000  0.4879330000000 1.0
C      1  0.4732470000000  0.5015780000000  0.5547800000000 1.0
C      1  0.4686240000000  0.5921560000000  0.5508800000000 1.0
C      1  0.4552760000000  0.5246710000000  0.3802980000000 1.0
C      1  0.4564470000000  0.4073750000000  0.5266820000000 1.0
C      1  0.4638230000000  0.5591500000000  0.4927480000000 1.0
C      1  0.4174580000000  0.4813570000000  0.5623100000000 1.0
C      1  0.5919250000000  0.4438030000000  0.5297160000000 1.0
C      1  0.5045270000000  0.3742200000000  0.5083240000000 1.0
C      1  0.5120250000000  0.4055870000000  0.5656940000000 1.0
C      1  0.4958940000000  0.5579280000000  0.5513440000000 1.0
C      1  0.4604710000000  0.4472290000000  0.4899590000000 1.0
C      1  0.3916980000000  0.4558610000000  0.4557340000000 1.0
C      1  0.6098810000000  0.4983550000000  0.5198420000000 1.0
C      1  0.4270940000000  0.5481770000000  0.4106570000000 1.0
C      1  0.5665410000000  0.5952340000000  0.5070110000000 1.0
C      1  0.5735320000000  0.4407940000000  0.4529510000000 1.0
C      1  0.5479430000000  0.5315080000000  0.4058590000000 1.0
C      1  0.4936360000000  0.5601170000000  0.4801260000000 1.0
C      1  0.4588370000000  0.4494020000000  0.5238590000000 1.0
C      1  0.5012760000000  0.6296910000000  0.4863630000000 1.0
C      1  0.5204960000000  0.4525770000000  0.4362850000000 1.0
C      1  0.4815300000000  0.6349570000000  0.5297650000000 1.0
C      1  0.4357100000000  0.5420920000000  0.4430500000000 1.0
C      1  0.4651540000000  0.4380750000000  0.4267410000000 1.0
C      1  0.5123700000000  0.4570410000000  0.5184760000000 1.0
C      1  0.4776060000000  0.4397430000000  0.5803880000000 1.0
C      1  0.6069270000000  0.4818050000000  0.4453550000000 1.0
C      1  0.4435710000000  0.4840460000000  0.4418470000000 1.0
C      1  0.5619050000000  0.4704390000000  0.4525730000000 1.0
C      1  0.4458940000000  0.4121090000000  0.4360480000000 1.0
C      1  0.5122710000000  0.4595750000000  0.4845590000000 1.0
C      1  0.5140920000000  0.5304190000000  0.5513180000000 1.0
C      1  0.4742990000000  0.5388420000000  0.5683940000000 1.0
C      1  0.4912620000000  0.5612320000000  0.4214130000000 1.0
C      1  0.4389630000000  0.4135060000000  0.4895970000000 1.0
C      1  0.4395680000000  0.5741640000000  0.5068530000000 1.0
C      1  0.5586240000000  0.4217530000000  0.5387280000000 1.0
C      1  0.4286040000000  0.4920640000000  0.4713320000000 1.0
C      1  0.4769550000000  0.4793840000000  0.4464170000000 1.0
C      1  0.4484680000000  0.5279530000000  0.5961100000000 1.0
C      1  0.5089380000000  0.5785440000000  0.5024250000000 1.0
C      1  0.5674290000000  0.5150020000000  0.5560700000000 1.0
C      1  0.5340750000000  0.4155440000000  0.4325840000000 1.0
C      1  0.5805500000000  0.5271560000000  0.4276790000000 1.0
C      1  0.5131970000000  0.3988850000000  0.5262390000000 1.0
C      1  0.4219960000000  0.5771670000000  0.4565130000000 1.0
C      1  0.4396300000000  0.5722100000000  0.4296700000000 1.0
C      1  0.4483840000000  0.5773020000000  0.5377800000000 1.0
C      1  0.5195270000000  0.5385530000000  0.4755600000000 1.0
C      1  0.5501710000000  0.6137980000000  0.5022930000000 1.0
C      1  0.5100450000000  0.4529360000000  0.6077910000000 1.0
C      1  0.5388350000000  0.4914960000000  0.4831770000000 1.0
C      1  0.4382950000000  0.5229460000000  0.5218320000000 1.0
C      1  0.4848850000000  0.4574340000000  0.4698570000000 1.0
END
