TITL C-2847953-8112-629 -0.00209820889359868 125000 -992.99029444634 0 0 187 (C1) n - 1
REM
REM in /home/bkarasulu/work/CARBON/AIRSS/Generating-Clusters/AIREBO/with-SteepDescent/Only-C1/SD-CG-opt/Try1-1.4A-POS3A/HFTN-CG
REM
REM
REM
REM
REM
REM ./C.cell (11c1c37f851c82e70ff6c80c92926a4b)
REM
REM compiler GCC version 9.2.1 20190827 (Red Hat 9.2.1-1)
REM options -cpp -mtune=generic -march=x86-64 -g -O0 -fpre-include=/usr/include/finclude/math-vector-fortran.h
REM seed 1397420473 -1668566397 1269248769 -891405756 460179697 1854258696 791179694 1050966894 -1554129361 1626468800 -1593291466 -901907052 -666340525 -1777910665 -1108229450 1356212432 -1147602222 -1410283283 -1350833691 1051207383 -610560810 -1139755662 1603989267 14549603 107016304 527054535 937204113 -412105092 1723563558 -238211237 1525246033 1863452347 559980634
REM
CELL 1.54180   50.00000   50.00000   50.00000   90.00000   90.00000   90.00000
LATT -1
SFAC C  
C      1  0.4587330000000  0.5565610000000  0.4872520000000 1.0
C      1  0.4350950000000  0.4384310000000  0.4385350000000 1.0
C      1  0.4213190000000  0.4200270000000  0.5298000000000 1.0
C      1  0.4400580000000  0.5733820000000  0.5191370000000 1.0
C      1  0.4766690000000  0.4753400000000  0.6167210000000 1.0
C      1  0.3875600000000  0.5139220000000  0.5240570000000 1.0
C      1  0.4832260000000  0.4258270000000  0.4327780000000 1.0
C      1  0.4122230000000  0.5222840000000  0.5748230000000 1.0
C      1  0.4784910000000  0.4332370000000  0.5167410000000 1.0
C      1  0.4879410000000  0.5055030000000  0.6055700000000 1.0
C      1  0.4748600000000  0.5355160000000  0.5015400000000 1.0
C      1  0.4411410000000  0.4125820000000  0.5549260000000 1.0
C      1  0.4153310000000  0.5002690000000  0.5352060000000 1.0
C      1  0.4619280000000  0.5669880000000  0.4083410000000 1.0
C      1  0.5056220000000  0.5750200000000  0.4909120000000 1.0
C      1  0.5354180000000  0.4359030000000  0.4204980000000 1.0
C      1  0.5397590000000  0.5343950000000  0.5879720000000 1.0
C      1  0.5665770000000  0.5129480000000  0.5820120000000 1.0
C      1  0.5360460000000  0.4144470000000  0.3987090000000 1.0
C      1  0.4682420000000  0.4710760000000  0.4223330000000 1.0
C      1  0.5468650000000  0.4746710000000  0.4692190000000 1.0
C      1  0.5408900000000  0.5115740000000  0.4315240000000 1.0
C      1  0.5357300000000  0.4207490000000  0.4694310000000 1.0
C      1  0.4808640000000  0.5958850000000  0.5008090000000 1.0
C      1  0.5210040000000  0.3976880000000  0.4841560000000 1.0
C      1  0.5100760000000  0.4038770000000  0.5359080000000 1.0
C      1  0.5156740000000  0.4626910000000  0.6002620000000 1.0
C      1  0.4651830000000  0.5093520000000  0.5812360000000 1.0
C      1  0.4682730000000  0.5110060000000  0.4096440000000 1.0
C      1  0.5920100000000  0.5089920000000  0.4372780000000 1.0
C      1  0.4614940000000  0.4719540000000  0.4860310000000 1.0
C      1  0.4536270000000  0.5434920000000  0.4562770000000 1.0
C      1  0.5024970000000  0.5200270000000  0.4646490000000 1.0
C      1  0.5518550000000  0.5689080000000  0.5399340000000 1.0
C      1  0.5816980000000  0.5302680000000  0.4974220000000 1.0
C      1  0.5038370000000  0.5668120000000  0.4585050000000 1.0
C      1  0.5981460000000  0.5036790000000  0.4702970000000 1.0
C      1  0.4756590000000  0.6038600000000  0.5449910000000 1.0
C      1  0.4167390000000  0.4626400000000  0.4524300000000 1.0
C      1  0.4705330000000  0.4216080000000  0.4793390000000 1.0
C      1  0.4218750000000  0.4557050000000  0.5747470000000 1.0
C      1  0.5702580000000  0.5964010000000  0.5390670000000 1.0
C      1  0.5602900000000  0.4705770000000  0.5329180000000 1.0
C      1  0.5575530000000  0.4547960000000  0.4944310000000 1.0
C      1  0.5519090000000  0.4282130000000  0.4452030000000 1.0
C      1  0.4857550000000  0.4971750000000  0.4353200000000 1.0
C      1  0.4422440000000  0.5410020000000  0.4143310000000 1.0
C      1  0.4784740000000  0.4000590000000  0.5117080000000 1.0
C      1  0.4537290000000  0.4451560000000  0.4966860000000 1.0
C      1  0.5462500000000  0.3876500000000  0.5407490000000 1.0
C      1  0.4933730000000  0.4104950000000  0.5647740000000 1.0
C      1  0.5638870000000  0.5184380000000  0.4505680000000 1.0
C      1  0.4443130000000  0.5673670000000  0.4358370000000 1.0
C      1  0.4650960000000  0.5716620000000  0.5420860000000 1.0
C      1  0.6017370000000  0.5703910000000  0.5161850000000 1.0
C      1  0.5600080000000  0.4393860000000  0.5432710000000 1.0
C      1  0.4441240000000  0.4066610000000  0.4923710000000 1.0
C      1  0.5095410000000  0.5825420000000  0.4289010000000 1.0
C      1  0.4369140000000  0.5475670000000  0.5567250000000 1.0
C      1  0.4374730000000  0.5260750000000  0.5343690000000 1.0
C      1  0.4924180000000  0.5328330000000  0.4184900000000 1.0
C      1  0.4119370000000  0.5557420000000  0.5266010000000 1.0
C      1  0.4233830000000  0.5778700000000  0.5493300000000 1.0
C      1  0.4395490000000  0.4939480000000  0.4612390000000 1.0
C      1  0.6167280000000  0.4823590000000  0.5228580000000 1.0
C      1  0.5710470000000  0.5823430000000  0.5077150000000 1.0
C      1  0.4690910000000  0.5386560000000  0.5349070000000 1.0
C      1  0.5410500000000  0.5968850000000  0.5009480000000 1.0
C      1  0.5195040000000  0.4786220000000  0.5478380000000 1.0
C      1  0.5066460000000  0.4728750000000  0.4467420000000 1.0
C      1  0.4926810000000  0.6087710000000  0.4658670000000 1.0
C      1  0.3981100000000  0.4716200000000  0.4756290000000 1.0
C      1  0.4484780000000  0.5025710000000  0.5130510000000 1.0
C      1  0.5613430000000  0.4220750000000  0.5886880000000 1.0
C      1  0.3916380000000  0.4985310000000  0.4757590000000 1.0
C      1  0.5176310000000  0.6036870000000  0.4542730000000 1.0
C      1  0.5509130000000  0.4642480000000  0.4109330000000 1.0
C      1  0.4914800000000  0.3956310000000  0.4804040000000 1.0
C      1  0.5346470000000  0.5036600000000  0.5749010000000 1.0
C      1  0.4681000000000  0.4292100000000  0.5584090000000 1.0
C      1  0.4265800000000  0.4761610000000  0.5560910000000 1.0
C      1  0.4916290000000  0.4948950000000  0.5501170000000 1.0
C      1  0.4852650000000  0.4556220000000  0.5536010000000 1.0
C      1  0.5311760000000  0.3945610000000  0.5129260000000 1.0
C      1  0.5416310000000  0.4994800000000  0.4919440000000 1.0
C      1  0.5725130000000  0.4062230000000  0.4982190000000 1.0
C      1  0.6085760000000  0.5505580000000  0.5298000000000 1.0
C      1  0.5150190000000  0.5391820000000  0.5404160000000 1.0
C      1  0.4294720000000  0.5025210000000  0.4878530000000 1.0
C      1  0.4957050000000  0.5720790000000  0.5295100000000 1.0
C      1  0.5265670000000  0.5708860000000  0.5173920000000 1.0
C      1  0.5849540000000  0.4361320000000  0.5001490000000 1.0
C      1  0.4865780000000  0.5427400000000  0.4479260000000 1.0
C      1  0.5012660000000  0.4342040000000  0.4840400000000 1.0
C      1  0.5901360000000  0.5282110000000  0.5735760000000 1.0
C      1  0.4216160000000  0.5346040000000  0.4590490000000 1.0
C      1  0.4292340000000  0.6104600000000  0.4640750000000 1.0
C      1  0.3991550000000  0.4250410000000  0.5050630000000 1.0
C      1  0.5633610000000  0.5594480000000  0.4684090000000 1.0
C      1  0.4164340000000  0.4146380000000  0.4836160000000 1.0
C      1  0.5785940000000  0.4646340000000  0.4291880000000 1.0
C      1  0.5455100000000  0.5448410000000  0.4270940000000 1.0
C      1  0.5157760000000  0.5689830000000  0.5567840000000 1.0
C      1  0.5023080000000  0.4824430000000  0.5059110000000 1.0
C      1  0.4429980000000  0.4370040000000  0.5788910000000 1.0
C      1  0.3904550000000  0.4815290000000  0.5216350000000 1.0
C      1  0.4044510000000  0.5506420000000  0.5599150000000 1.0
C      1  0.5764350000000  0.4410100000000  0.4475280000000 1.0
C      1  0.5886260000000  0.5361550000000  0.4657410000000 1.0
C      1  0.4694050000000  0.5844910000000  0.4708900000000 1.0
C      1  0.4468380000000  0.3987590000000  0.5241310000000 1.0
C      1  0.5124690000000  0.4313520000000  0.5160180000000 1.0
C      1  0.5446820000000  0.5574430000000  0.5691420000000 1.0
C      1  0.5725070000000  0.5842720000000  0.4470490000000 1.0
C      1  0.5053900000000  0.5379010000000  0.5101480000000 1.0
C      1  0.4592770000000  0.4950510000000  0.5444190000000 1.0
C      1  0.5990500000000  0.5239320000000  0.5435910000000 1.0
C      1  0.5294420000000  0.4343370000000  0.5681440000000 1.0
C      1  0.5807410000000  0.5080990000000  0.5203280000000 1.0
C      1  0.4694590000000  0.4511740000000  0.5945590000000 1.0
C      1  0.4079560000000  0.5259180000000  0.4847740000000 1.0
C      1  0.4359110000000  0.5056060000000  0.5686300000000 1.0
C      1  0.5180920000000  0.5191200000000  0.4111880000000 1.0
C      1  0.4813280000000  0.3874180000000  0.5427860000000 1.0
C      1  0.4513520000000  0.5394020000000  0.5836340000000 1.0
C      1  0.5733460000000  0.4878480000000  0.5591350000000 1.0
C      1  0.4728720000000  0.5038180000000  0.4893910000000 1.0
C      1  0.5213420000000  0.6094290000000  0.5257270000000 1.0
C      1  0.5282490000000  0.5993390000000  0.5506210000000 1.0
C      1  0.5682750000000  0.4503570000000  0.3882570000000 1.0
C      1  0.5491020000000  0.4495180000000  0.5913600000000 1.0
C      1  0.5230520000000  0.5461180000000  0.4865730000000 1.0
C      1  0.4484600000000  0.4671890000000  0.5316300000000 1.0
C      1  0.4000640000000  0.4590310000000  0.5037220000000 1.0
C      1  0.4451370000000  0.5919640000000  0.4526680000000 1.0
C      1  0.5008050000000  0.4906130000000  0.4751650000000 1.0
C      1  0.5872250000000  0.4411010000000  0.5307100000000 1.0
C      1  0.4898000000000  0.5636490000000  0.4128230000000 1.0
C      1  0.4921070000000  0.5269860000000  0.5572940000000 1.0
C      1  0.5904180000000  0.4487910000000  0.4725480000000 1.0
C      1  0.4287890000000  0.4483680000000  0.5169500000000 1.0
C      1  0.5135300000000  0.4978750000000  0.3931760000000 1.0
C      1  0.5335990000000  0.4822010000000  0.5186620000000 1.0
C      1  0.5793880000000  0.4787030000000  0.4601310000000 1.0
C      1  0.4794430000000  0.4787320000000  0.5774370000000 1.0
C      1  0.5348150000000  0.5171120000000  0.5441620000000 1.0
C      1  0.4233690000000  0.5042790000000  0.3824030000000 1.0
C      1  0.5407120000000  0.5758320000000  0.4384340000000 1.0
C      1  0.5063940000000  0.4459380000000  0.4258990000000 1.0
C      1  0.4325540000000  0.4383760000000  0.4709470000000 1.0
C      1  0.4931890000000  0.6115120000000  0.5236350000000 1.0
C      1  0.5607210000000  0.5504730000000  0.5135590000000 1.0
C      1  0.3964170000000  0.5372710000000  0.5094630000000 1.0
C      1  0.4813320000000  0.4654720000000  0.5228000000000 1.0
C      1  0.5823250000000  0.5931100000000  0.4774800000000 1.0
C      1  0.4965330000000  0.5591290000000  0.5806080000000 1.0
C      1  0.4693790000000  0.5622820000000  0.5744870000000 1.0
C      1  0.4478650000000  0.6007420000000  0.5075550000000 1.0
C      1  0.6048660000000  0.4910300000000  0.5466040000000 1.0
C      1  0.4856190000000  0.4031270000000  0.4477320000000 1.0
C      1  0.4328970000000  0.6158750000000  0.4909540000000 1.0
C      1  0.5735680000000  0.5581450000000  0.4252700000000 1.0
C      1  0.5441080000000  0.4243430000000  0.5028150000000 1.0
C      1  0.4991510000000  0.4403700000000  0.5806420000000 1.0
C      1  0.5377080000000  0.4822660000000  0.4365940000000 1.0
C      1  0.4367320000000  0.5096310000000  0.4092850000000 1.0
C      1  0.4230980000000  0.4904290000000  0.4338390000000 1.0
C      1  0.4973910000000  0.5090410000000  0.5209270000000 1.0
C      1  0.4603580000000  0.4414900000000  0.4279910000000 1.0
C      1  0.5341930000000  0.4814780000000  0.3882690000000 1.0
C      1  0.5798370000000  0.4761170000000  0.5087800000000 1.0
C      1  0.5408230000000  0.5851330000000  0.4711420000000 1.0
C      1  0.4945480000000  0.4547410000000  0.3974780000000 1.0
C      1  0.5260010000000  0.5416790000000  0.4529920000000 1.0
C      1  0.4110360000000  0.5209910000000  0.4372780000000 1.0
C      1  0.5526070000000  0.4111210000000  0.5591410000000 1.0
C      1  0.4643310000000  0.5112310000000  0.4573190000000 1.0
C      1  0.5060100000000  0.5285560000000  0.5882840000000 1.0
C      1  0.5505250000000  0.5183670000000  0.5188200000000 1.0
C      1  0.5152260000000  0.4909710000000  0.5982240000000 1.0
C      1  0.4642590000000  0.4713090000000  0.4555000000000 1.0
C      1  0.5222300000000  0.4512680000000  0.4678700000000 1.0
C      1  0.5274410000000  0.4488120000000  0.5397060000000 1.0
C      1  0.6061460000000  0.4894710000000  0.4961490000000 1.0
C      1  0.5522010000000  0.5296930000000  0.4805160000000 1.0
C      1  0.4855550000000  0.4859050000000  0.3970420000000 1.0
C      1  0.5449450000000  0.4722430000000  0.5695080000000 1.0
END
