TITL C-2848506-1665-182 0.000890680169946591 125000 -485.046278866312 0 0 89 (C1) n - 1
REM
REM in /home/bkarasulu/work/CARBON/AIRSS/Generating-Clusters/AIREBO/with-SteepDescent/Only-C1/SD-CG-opt/Try1-1.4A-POS3A/HFTN-CG
REM
REM
REM
REM
REM
REM ./C.cell (11c1c37f851c82e70ff6c80c92926a4b)
REM
REM compiler GCC version 9.2.1 20190827 (Red Hat 9.2.1-1)
REM options -cpp -mtune=generic -march=x86-64 -g -O0 -fpre-include=/usr/include/finclude/math-vector-fortran.h
REM seed -1292140243 -1445528053 -920230885 879794950 -1162244365 -1723001659 -114716823 -2011743433 -286954898 497072626 -1108870884 -1037806231 1853188166 1220660114 117758099 -643544322 -1856279615 -1036890172 -1160771799 16975660 -930951863 1618582114 1887858534 -1956606712 -439868185 -1781844628 1416571145 -2083904406 1055454674 -52908379 2100759240 -1223505885 -751408069
REM
CELL 1.54180   50.00000   50.00000   50.00000   90.00000   90.00000   90.00000
LATT -1
SFAC C  
C      1  0.4631890000000  0.5633350000000  0.4547730000000 1.0
C      1  0.4965110000000  0.5615250000000  0.4614820000000 1.0
C      1  0.4774740000000  0.5290330000000  0.5006950000000 1.0
C      1  0.5075230000000  0.4251880000000  0.4608350000000 1.0
C      1  0.4454110000000  0.4896430000000  0.5076010000000 1.0
C      1  0.5478060000000  0.5511430000000  0.5187490000000 1.0
C      1  0.4764840000000  0.4081030000000  0.4792540000000 1.0
C      1  0.4683770000000  0.5150270000000  0.5935070000000 1.0
C      1  0.4732330000000  0.5309760000000  0.4250590000000 1.0
C      1  0.5162220000000  0.5165120000000  0.4360780000000 1.0
C      1  0.4685330000000  0.5253520000000  0.5610940000000 1.0
C      1  0.4626650000000  0.5881070000000  0.4919740000000 1.0
C      1  0.4249960000000  0.5065340000000  0.5480830000000 1.0
C      1  0.4528210000000  0.5417330000000  0.4401980000000 1.0
C      1  0.5215420000000  0.5049980000000  0.4980540000000 1.0
C      1  0.5644920000000  0.4333160000000  0.4914570000000 1.0
C      1  0.4737330000000  0.4956810000000  0.5454690000000 1.0
C      1  0.4214150000000  0.4809960000000  0.4875850000000 1.0
C      1  0.5474190000000  0.5583420000000  0.5498150000000 1.0
C      1  0.4756940000000  0.4904480000000  0.5788320000000 1.0
C      1  0.5027940000000  0.5515420000000  0.4933890000000 1.0
C      1  0.4364450000000  0.4855850000000  0.5356020000000 1.0
C      1  0.4611100000000  0.4561310000000  0.4808700000000 1.0
C      1  0.5841000000000  0.4880360000000  0.4786930000000 1.0
C      1  0.5256460000000  0.4763390000000  0.4575200000000 1.0
C      1  0.5080690000000  0.4899270000000  0.4163110000000 1.0
C      1  0.4879490000000  0.5048410000000  0.5196480000000 1.0
C      1  0.5094630000000  0.5805400000000  0.5358190000000 1.0
C      1  0.4571450000000  0.4855980000000  0.4643560000000 1.0
C      1  0.5198080000000  0.4839590000000  0.5558170000000 1.0
C      1  0.5558430000000  0.5310220000000  0.4757630000000 1.0
C      1  0.5318490000000  0.5360060000000  0.4960640000000 1.0
C      1  0.5240070000000  0.5727680000000  0.5593650000000 1.0
C      1  0.4280270000000  0.4599540000000  0.4740190000000 1.0
C      1  0.5032720000000  0.4615500000000  0.4280460000000 1.0
C      1  0.5718920000000  0.5349930000000  0.5305060000000 1.0
C      1  0.4769200000000  0.4353400000000  0.4594690000000 1.0
C      1  0.4422510000000  0.5402460000000  0.5212500000000 1.0
C      1  0.5195320000000  0.5081100000000  0.5318750000000 1.0
C      1  0.5445670000000  0.5009730000000  0.5714710000000 1.0
C      1  0.5491840000000  0.4690380000000  0.5603020000000 1.0
C      1  0.5498570000000  0.4946750000000  0.5243000000000 1.0
C      1  0.4981110000000  0.5394890000000  0.4354160000000 1.0
C      1  0.5519410000000  0.4653690000000  0.5207310000000 1.0
C      1  0.4345120000000  0.5410140000000  0.4903440000000 1.0
C      1  0.4782780000000  0.4554010000000  0.4361420000000 1.0
C      1  0.4582890000000  0.5887460000000  0.5213540000000 1.0
C      1  0.5505630000000  0.5560410000000  0.4540080000000 1.0
C      1  0.4573310000000  0.4786440000000  0.4310750000000 1.0
C      1  0.4674860000000  0.5572340000000  0.5168710000000 1.0
C      1  0.4898270000000  0.5886070000000  0.4833030000000 1.0
C      1  0.4527330000000  0.5130000000000  0.4840020000000 1.0
C      1  0.4952470000000  0.4612380000000  0.5182420000000 1.0
C      1  0.5228940000000  0.4550800000000  0.5091750000000 1.0
C      1  0.4481150000000  0.5689880000000  0.4776380000000 1.0
C      1  0.5450080000000  0.5250550000000  0.4459730000000 1.0
C      1  0.4966670000000  0.5523010000000  0.5268520000000 1.0
C      1  0.5435660000000  0.5253800000000  0.5489060000000 1.0
C      1  0.5178180000000  0.4112740000000  0.4819580000000 1.0
C      1  0.5000780000000  0.4898220000000  0.4756240000000 1.0
C      1  0.5280270000000  0.5722300000000  0.4544880000000 1.0
C      1  0.5527330000000  0.4257170000000  0.5171670000000 1.0
C      1  0.5161720000000  0.5447570000000  0.5706280000000 1.0
C      1  0.4720000000000  0.4470980000000  0.5731040000000 1.0
C      1  0.4995610000000  0.5303650000000  0.5481240000000 1.0
C      1  0.4843550000000  0.4930320000000  0.4481950000000 1.0
C      1  0.4432280000000  0.4472550000000  0.5290360000000 1.0
C      1  0.5096180000000  0.5827920000000  0.5049460000000 1.0
C      1  0.4731050000000  0.4157830000000  0.5067510000000 1.0
C      1  0.5595410000000  0.4447580000000  0.5440610000000 1.0
C      1  0.4765930000000  0.5019930000000  0.4163150000000 1.0
C      1  0.5715660000000  0.5106190000000  0.5160170000000 1.0
C      1  0.5420480000000  0.4942710000000  0.4366340000000 1.0
C      1  0.4965310000000  0.4694560000000  0.5652750000000 1.0
C      1  0.5465780000000  0.4386480000000  0.4685400000000 1.0
C      1  0.5400300000000  0.4893120000000  0.4050260000000 1.0
C      1  0.4546490000000  0.4372100000000  0.5069710000000 1.0
C      1  0.5217340000000  0.4228250000000  0.5106630000000 1.0
C      1  0.4407360000000  0.5295510000000  0.5465860000000 1.0
C      1  0.4944350000000  0.4197650000000  0.5249320000000 1.0
C      1  0.5304540000000  0.5273650000000  0.5865220000000 1.0
C      1  0.4567650000000  0.4669250000000  0.5519500000000 1.0
C      1  0.4362850000000  0.5277720000000  0.4581610000000 1.0
C      1  0.5356990000000  0.4765690000000  0.4865590000000 1.0
C      1  0.5665940000000  0.4656440000000  0.4899080000000 1.0
C      1  0.5760670000000  0.5123510000000  0.4881650000000 1.0
C      1  0.4769500000000  0.4802620000000  0.4988810000000 1.0
C      1  0.4886850000000  0.4444480000000  0.5436180000000 1.0
C      1  0.5255290000000  0.4453800000000  0.4441180000000 1.0
END
