TITL C-2848503-6230-467 -0.00155317657292316 125000 -581.211635958742 0 0 112 (C1) n - 1
REM
REM in /home/bkarasulu/work/CARBON/AIRSS/Generating-Clusters/AIREBO/with-SteepDescent/Only-C1/SD-CG-opt/Try1-1.4A-POS3A/HFTN-CG
REM
REM
REM
REM
REM
REM ./C.cell (11c1c37f851c82e70ff6c80c92926a4b)
REM
REM compiler GCC version 9.2.1 20190827 (Red Hat 9.2.1-1)
REM options -cpp -mtune=generic -march=x86-64 -g -O0 -fpre-include=/usr/include/finclude/math-vector-fortran.h
REM seed -742257646 61226374 -1922491419 -945103860 412638763 -1336291952 255495370 1732191343 1942916913 -1323359592 262651358 1850958001 1927677181 811352190 1192417739 361332381 -1522469288 1441758939 373989742 -713260453 1639861436 1533225012 566469889 -348573538 -130633888 -1020628424 -1886388135 -1579618764 861764355 -2001033075 -1497649892 -1911142487 1567004723
REM
CELL 1.54180   50.00000   50.00000   50.00000   90.00000   90.00000   90.00000
LATT -1
SFAC C  
C      1  0.5495060000000  0.5575590000000  0.5090630000000 1.0
C      1  0.5308110000000  0.4094930000000  0.5088570000000 1.0
C      1  0.5290530000000  0.4833910000000  0.5765050000000 1.0
C      1  0.4458050000000  0.5289650000000  0.5504740000000 1.0
C      1  0.4214730000000  0.4948920000000  0.4852090000000 1.0
C      1  0.4745460000000  0.4582160000000  0.5061890000000 1.0
C      1  0.4997020000000  0.5234040000000  0.4951970000000 1.0
C      1  0.5564370000000  0.5274210000000  0.5037770000000 1.0
C      1  0.4337750000000  0.4489390000000  0.5585870000000 1.0
C      1  0.5042710000000  0.4586200000000  0.4224950000000 1.0
C      1  0.4160880000000  0.5222830000000  0.5041470000000 1.0
C      1  0.4353900000000  0.4771460000000  0.5636880000000 1.0
C      1  0.5617100000000  0.5652700000000  0.5382430000000 1.0
C      1  0.4286200000000  0.4673140000000  0.4663610000000 1.0
C      1  0.4587550000000  0.5178820000000  0.5756080000000 1.0
C      1  0.5145120000000  0.4542720000000  0.5710920000000 1.0
C      1  0.5431330000000  0.5646980000000  0.4569370000000 1.0
C      1  0.4677070000000  0.5906080000000  0.4932220000000 1.0
C      1  0.4568700000000  0.5586050000000  0.4593660000000 1.0
C      1  0.4877060000000  0.4176110000000  0.4542200000000 1.0
C      1  0.4525010000000  0.5590500000000  0.5421430000000 1.0
C      1  0.4883030000000  0.4578550000000  0.5344910000000 1.0
C      1  0.4143220000000  0.4715550000000  0.5039620000000 1.0
C      1  0.5001940000000  0.4036510000000  0.5046750000000 1.0
C      1  0.5834190000000  0.4473120000000  0.4910940000000 1.0
C      1  0.5960710000000  0.4698070000000  0.5056240000000 1.0
C      1  0.5002760000000  0.5333650000000  0.4477290000000 1.0
C      1  0.5215900000000  0.4631510000000  0.5390360000000 1.0
C      1  0.5693730000000  0.4928520000000  0.5498280000000 1.0
C      1  0.4828500000000  0.4267200000000  0.5470230000000 1.0
C      1  0.5798060000000  0.5253150000000  0.4801210000000 1.0
C      1  0.5045760000000  0.5553630000000  0.4719060000000 1.0
C      1  0.4769300000000  0.5089290000000  0.4439840000000 1.0
C      1  0.5449380000000  0.4382590000000  0.4961600000000 1.0
C      1  0.4446230000000  0.5098460000000  0.4439800000000 1.0
C      1  0.5131570000000  0.4961440000000  0.5094330000000 1.0
C      1  0.4814420000000  0.5650270000000  0.5377860000000 1.0
C      1  0.5520570000000  0.5260580000000  0.5819040000000 1.0
C      1  0.4167650000000  0.5490490000000  0.4831900000000 1.0
C      1  0.4375500000000  0.5421170000000  0.4444830000000 1.0
C      1  0.5538820000000  0.4730680000000  0.5609200000000 1.0
C      1  0.5461240000000  0.5209770000000  0.5335630000000 1.0
C      1  0.4526160000000  0.4251730000000  0.5023520000000 1.0
C      1  0.4865720000000  0.4445580000000  0.5757310000000 1.0
C      1  0.4912780000000  0.4338250000000  0.4917860000000 1.0
C      1  0.5618160000000  0.5091640000000  0.4399960000000 1.0
C      1  0.5334510000000  0.4457180000000  0.4354060000000 1.0
C      1  0.5775680000000  0.4951650000000  0.4734290000000 1.0
C      1  0.4359640000000  0.5705540000000  0.5229610000000 1.0
C      1  0.4370960000000  0.4575940000000  0.5196910000000 1.0
C      1  0.4981280000000  0.5378540000000  0.5259690000000 1.0
C      1  0.4480680000000  0.5321110000000  0.5015550000000 1.0
C      1  0.5045750000000  0.5967020000000  0.5441220000000 1.0
C      1  0.5614190000000  0.4414600000000  0.4421490000000 1.0
C      1  0.5277310000000  0.5336040000000  0.4768090000000 1.0
C      1  0.4344090000000  0.4825670000000  0.4375240000000 1.0
C      1  0.4873210000000  0.5913850000000  0.5174020000000 1.0
C      1  0.4491290000000  0.4542420000000  0.4418030000000 1.0
C      1  0.4511420000000  0.4316140000000  0.5357550000000 1.0
C      1  0.5337480000000  0.5488740000000  0.5485050000000 1.0
C      1  0.5172640000000  0.4464780000000  0.5097020000000 1.0
C      1  0.5072630000000  0.5296680000000  0.5577830000000 1.0
C      1  0.5363470000000  0.4660320000000  0.4784430000000 1.0
C      1  0.4855330000000  0.4995510000000  0.4755240000000 1.0
C      1  0.5734020000000  0.4881390000000  0.5205400000000 1.0
C      1  0.4821790000000  0.5321740000000  0.5801850000000 1.0
C      1  0.4785830000000  0.4443070000000  0.4351770000000 1.0
C      1  0.5271620000000  0.5146190000000  0.5789990000000 1.0
C      1  0.4781680000000  0.5441410000000  0.4251680000000 1.0
C      1  0.5109990000000  0.4425910000000  0.4583170000000 1.0
C      1  0.4667780000000  0.5247330000000  0.5270970000000 1.0
C      1  0.5327980000000  0.5026130000000  0.4092270000000 1.0
C      1  0.5500140000000  0.4788890000000  0.4500750000000 1.0
C      1  0.4767990000000  0.5422200000000  0.4785160000000 1.0
C      1  0.4328870000000  0.4925190000000  0.5402620000000 1.0
C      1  0.5568050000000  0.5367480000000  0.4593800000000 1.0
C      1  0.4801800000000  0.4741980000000  0.5760050000000 1.0
C      1  0.4768880000000  0.5793620000000  0.4477870000000 1.0
C      1  0.5662210000000  0.4476290000000  0.5191040000000 1.0
C      1  0.4980310000000  0.5688620000000  0.4295760000000 1.0
C      1  0.5392810000000  0.5764020000000  0.4826690000000 1.0
C      1  0.4801950000000  0.4541710000000  0.4668870000000 1.0
C      1  0.4200860000000  0.5210190000000  0.4645750000000 1.0
C      1  0.4843090000000  0.5962580000000  0.4685540000000 1.0
C      1  0.4192820000000  0.5178940000000  0.5347000000000 1.0
C      1  0.5187540000000  0.5603750000000  0.5129460000000 1.0
C      1  0.5456580000000  0.5048810000000  0.4801040000000 1.0
C      1  0.5332360000000  0.4763290000000  0.4206080000000 1.0
C      1  0.4849020000000  0.3987700000000  0.5277510000000 1.0
C      1  0.4583110000000  0.4843630000000  0.5201460000000 1.0
C      1  0.4460410000000  0.5644490000000  0.4910680000000 1.0
C      1  0.5756220000000  0.4622610000000  0.4650600000000 1.0
C      1  0.5108510000000  0.5692890000000  0.5543630000000 1.0
C      1  0.5051770000000  0.4720920000000  0.4761550000000 1.0
C      1  0.5673920000000  0.5209930000000  0.5585740000000 1.0
C      1  0.5522080000000  0.4489290000000  0.5430950000000 1.0
C      1  0.5146980000000  0.4242640000000  0.5353310000000 1.0
C      1  0.5275700000000  0.5271450000000  0.4309530000000 1.0
C      1  0.4691330000000  0.4116450000000  0.4785810000000 1.0
C      1  0.4873200000000  0.4980250000000  0.5314550000000 1.0
C      1  0.6082680000000  0.4936350000000  0.5204280000000 1.0
C      1  0.5249850000000  0.5015440000000  0.4532770000000 1.0
C      1  0.4771740000000  0.5179810000000  0.4106080000000 1.0
C      1  0.5254020000000  0.5609410000000  0.4342650000000 1.0
C      1  0.4603540000000  0.5031320000000  0.4942560000000 1.0
C      1  0.4996910000000  0.4863780000000  0.4394290000000 1.0
C      1  0.5448440000000  0.4843000000000  0.5058320000000 1.0
C      1  0.5264420000000  0.4968110000000  0.5390120000000 1.0
C      1  0.5068760000000  0.5832680000000  0.4907900000000 1.0
C      1  0.4463260000000  0.4542000000000  0.4876470000000 1.0
C      1  0.4564480000000  0.4888670000000  0.5791580000000 1.0
C      1  0.5002120000000  0.4896970000000  0.5596370000000 1.0
END
