TITL C-2847951-7423-218 -0.000866960168507517 125000 -454.037586804602 0 0 84 (C1) n - 1
REM
REM in /home/bkarasulu/work/CARBON/AIRSS/Generating-Clusters/AIREBO/with-SteepDescent/Only-C1/SD-CG-opt/Try1-1.4A-POS3A/HFTN-CG
REM
REM
REM
REM
REM
REM ./C.cell (11c1c37f851c82e70ff6c80c92926a4b)
REM
REM compiler GCC version 9.2.1 20190827 (Red Hat 9.2.1-1)
REM options -cpp -mtune=generic -march=x86-64 -g -O0 -fpre-include=/usr/include/finclude/math-vector-fortran.h
REM seed 1490161770 -1783372295 -807798306 970514422 -2021852054 1418091059 -356622113 1226912634 1613045532 187345256 -804400587 -3494414 92091232 -1581084289 1182054420 -730440428 -386561641 -1588530483 2073013288 -1380887303 1368748518 -157342393 1368817293 614430328 682094325 1917520337 131252145 1691583753 1189429882 -28237335 -697797915 1025317633 1044773058
REM
CELL 1.54180   50.00000   50.00000   50.00000   90.00000   90.00000   90.00000
LATT -1
SFAC C  
C      1  0.4835870000000  0.4752000000000  0.4872850000000 1.0
C      1  0.4778640000000  0.5751550000000  0.5428370000000 1.0
C      1  0.5060130000000  0.4215580000000  0.4682460000000 1.0
C      1  0.4552680000000  0.4375790000000  0.5207740000000 1.0
C      1  0.5242510000000  0.5320760000000  0.5558880000000 1.0
C      1  0.4421350000000  0.5409370000000  0.4526610000000 1.0
C      1  0.5572490000000  0.5036950000000  0.5527510000000 1.0
C      1  0.4465370000000  0.5276380000000  0.5566640000000 1.0
C      1  0.4952060000000  0.5564350000000  0.4808610000000 1.0
C      1  0.4572450000000  0.4377470000000  0.4712580000000 1.0
C      1  0.5615920000000  0.4577900000000  0.4603920000000 1.0
C      1  0.5496480000000  0.5574110000000  0.4741380000000 1.0
C      1  0.4881940000000  0.4502910000000  0.4646010000000 1.0
C      1  0.5084690000000  0.5926390000000  0.4905100000000 1.0
C      1  0.5101870000000  0.5108940000000  0.5356200000000 1.0
C      1  0.4670360000000  0.4281560000000  0.4969110000000 1.0
C      1  0.4550240000000  0.5131270000000  0.5270130000000 1.0
C      1  0.4279330000000  0.4999820000000  0.5532760000000 1.0
C      1  0.4953370000000  0.4273270000000  0.4965300000000 1.0
C      1  0.4813790000000  0.5521570000000  0.5180260000000 1.0
C      1  0.4840310000000  0.5143550000000  0.4298910000000 1.0
C      1  0.4922050000000  0.4534000000000  0.4303480000000 1.0
C      1  0.5621690000000  0.4778280000000  0.5412780000000 1.0
C      1  0.5078800000000  0.4339030000000  0.5550950000000 1.0
C      1  0.4837950000000  0.4650530000000  0.5154970000000 1.0
C      1  0.4427610000000  0.5479590000000  0.4803780000000 1.0
C      1  0.5040080000000  0.5846280000000  0.5234780000000 1.0
C      1  0.5477820000000  0.5193600000000  0.5263700000000 1.0
C      1  0.5451340000000  0.5515750000000  0.5369280000000 1.0
C      1  0.4349360000000  0.5234550000000  0.5013880000000 1.0
C      1  0.5011130000000  0.4856790000000  0.4516290000000 1.0
C      1  0.4710950000000  0.4903550000000  0.4598360000000 1.0
C      1  0.4725020000000  0.4867040000000  0.5394000000000 1.0
C      1  0.5757920000000  0.5010020000000  0.4909500000000 1.0
C      1  0.5313430000000  0.4948400000000  0.4751490000000 1.0
C      1  0.5434180000000  0.4458570000000  0.4843050000000 1.0
C      1  0.4325410000000  0.4505210000000  0.4709570000000 1.0
C      1  0.4786680000000  0.4423520000000  0.5402980000000 1.0
C      1  0.5191780000000  0.4637840000000  0.4685240000000 1.0
C      1  0.5027400000000  0.4256280000000  0.4369250000000 1.0
C      1  0.4397100000000  0.4954310000000  0.4841090000000 1.0
C      1  0.4261340000000  0.4649640000000  0.4467260000000 1.0
C      1  0.5080010000000  0.5365190000000  0.4274750000000 1.0
C      1  0.4399030000000  0.4785890000000  0.5403270000000 1.0
C      1  0.4654810000000  0.5610620000000  0.4895060000000 1.0
C      1  0.5291190000000  0.4239030000000  0.5338700000000 1.0
C      1  0.5299490000000  0.4907650000000  0.5218350000000 1.0
C      1  0.5019270000000  0.4996330000000  0.4915500000000 1.0
C      1  0.5161700000000  0.4629890000000  0.5704530000000 1.0
C      1  0.4538190000000  0.5513970000000  0.5379380000000 1.0
C      1  0.4659720000000  0.5329890000000  0.5824300000000 1.0
C      1  0.4863970000000  0.5186510000000  0.5151000000000 1.0
C      1  0.5606730000000  0.5428120000000  0.4564760000000 1.0
C      1  0.4296400000000  0.4680260000000  0.4937260000000 1.0
C      1  0.4658440000000  0.5166600000000  0.4888520000000 1.0
C      1  0.5319730000000  0.5214380000000  0.4265730000000 1.0
C      1  0.5709730000000  0.4812610000000  0.5142090000000 1.0
C      1  0.5114250000000  0.4480230000000  0.5182200000000 1.0
C      1  0.5449710000000  0.4767700000000  0.4409440000000 1.0
C      1  0.5068120000000  0.5640930000000  0.4360260000000 1.0
C      1  0.5732900000000  0.5487950000000  0.5182340000000 1.0
C      1  0.5475660000000  0.5146570000000  0.4531000000000 1.0
C      1  0.4860080000000  0.5138520000000  0.5548030000000 1.0
C      1  0.5454730000000  0.4754890000000  0.4960540000000 1.0
C      1  0.5717990000000  0.5284690000000  0.4958970000000 1.0
C      1  0.4844510000000  0.5214550000000  0.4631430000000 1.0
C      1  0.5154510000000  0.5639490000000  0.5479700000000 1.0
C      1  0.4836620000000  0.4646290000000  0.5627290000000 1.0
C      1  0.5141110000000  0.5575560000000  0.5087790000000 1.0
C      1  0.4875780000000  0.5474320000000  0.5599740000000 1.0
C      1  0.5442930000000  0.5157650000000  0.5752520000000 1.0
C      1  0.5121460000000  0.5286280000000  0.4815390000000 1.0
C      1  0.5314690000000  0.4630990000000  0.5412910000000 1.0
C      1  0.4403810000000  0.4923360000000  0.4508150000000 1.0
C      1  0.4524590000000  0.5191950000000  0.4393840000000 1.0
C      1  0.4933510000000  0.4801410000000  0.5894400000000 1.0
C      1  0.5395330000000  0.5386130000000  0.4995750000000 1.0
C      1  0.5685460000000  0.4900260000000  0.4618680000000 1.0
C      1  0.5410500000000  0.4240220000000  0.5065840000000 1.0
C      1  0.4363550000000  0.4589420000000  0.5197200000000 1.0
C      1  0.4854030000000  0.5070340000000  0.5866100000000 1.0
C      1  0.5299270000000  0.4921820000000  0.4245080000000 1.0
C      1  0.5088370000000  0.5767490000000  0.4619790000000 1.0
C      1  0.4987240000000  0.4849770000000  0.4195440000000 1.0
END
