TITL C-2847957-7266-281 0.00821923513104368 125000 -835.991324179197 0 0 153 (C1) n - 1
REM
REM in /home/bkarasulu/work/CARBON/AIRSS/Generating-Clusters/AIREBO/with-SteepDescent/Only-C1/SD-CG-opt/Try1-1.4A-POS3A/HFTN-CG
REM
REM
REM
REM
REM
REM ./C.cell (11c1c37f851c82e70ff6c80c92926a4b)
REM
REM compiler GCC version 9.2.1 20190827 (Red Hat 9.2.1-1)
REM options -cpp -mtune=generic -march=x86-64 -g -O0 -fpre-include=/usr/include/finclude/math-vector-fortran.h
REM seed 2068702089 -654867787 978904928 -459744097 762314167 2136491868 2091571907 71761099 1351408897 -488360263 -533360936 1924535993 306265906 -83994765 1557601463 -1350336542 -1084400327 -409930295 -731625770 -2076231277 -191341115 -31807289 -1892067199 98901501 -313364411 231082981 1136457522 1672617319 1661649379 -535351912 1714101054 659089342 2138360155
REM
CELL 1.54180   50.00000   50.00000   50.00000   90.00000   90.00000   90.00000
LATT -1
SFAC C  
C      1  0.4631870000000  0.4484850000000  0.4897590000000 1.0
C      1  0.5247180000000  0.5233470000000  0.5429960000000 1.0
C      1  0.5312050000000  0.5160690000000  0.4571970000000 1.0
C      1  0.5941370000000  0.5086840000000  0.4950390000000 1.0
C      1  0.4491980000000  0.4609030000000  0.5412590000000 1.0
C      1  0.5702090000000  0.5186910000000  0.5100140000000 1.0
C      1  0.5269420000000  0.4147530000000  0.5020040000000 1.0
C      1  0.4664280000000  0.5157090000000  0.4042910000000 1.0
C      1  0.4882300000000  0.4790190000000  0.4956430000000 1.0
C      1  0.5819430000000  0.5241790000000  0.4722630000000 1.0
C      1  0.5210020000000  0.4375490000000  0.5499390000000 1.0
C      1  0.4995410000000  0.4111260000000  0.4821810000000 1.0
C      1  0.4431420000000  0.5603010000000  0.5002640000000 1.0
C      1  0.5965490000000  0.4548760000000  0.4957240000000 1.0
C      1  0.5512540000000  0.5714730000000  0.5486530000000 1.0
C      1  0.4075370000000  0.5334580000000  0.4703460000000 1.0
C      1  0.5136160000000  0.5448940000000  0.4251080000000 1.0
C      1  0.4641810000000  0.4150590000000  0.5232790000000 1.0
C      1  0.5167420000000  0.5173530000000  0.5110390000000 1.0
C      1  0.4416560000000  0.4312340000000  0.5271540000000 1.0
C      1  0.5677120000000  0.5029610000000  0.4285950000000 1.0
C      1  0.4054830000000  0.4793660000000  0.4710880000000 1.0
C      1  0.4769550000000  0.5908750000000  0.5247870000000 1.0
C      1  0.5003140000000  0.5655690000000  0.5658160000000 1.0
C      1  0.5524410000000  0.5332440000000  0.4231710000000 1.0
C      1  0.4761830000000  0.4277580000000  0.4418990000000 1.0
C      1  0.5469620000000  0.5067110000000  0.4026270000000 1.0
C      1  0.5011810000000  0.4149040000000  0.4511990000000 1.0
C      1  0.4496310000000  0.4302710000000  0.4486230000000 1.0
C      1  0.4370800000000  0.4526370000000  0.4364430000000 1.0
C      1  0.4682750000000  0.4070350000000  0.4951230000000 1.0
C      1  0.3874360000000  0.4875890000000  0.4900710000000 1.0
C      1  0.4822000000000  0.5029460000000  0.5312200000000 1.0
C      1  0.5406540000000  0.4773900000000  0.4140730000000 1.0
C      1  0.5601800000000  0.5143330000000  0.4571570000000 1.0
C      1  0.4502800000000  0.5141060000000  0.5061880000000 1.0
C      1  0.4175780000000  0.4489800000000  0.4173580000000 1.0
C      1  0.5521370000000  0.4489900000000  0.4288280000000 1.0
C      1  0.5226050000000  0.4784900000000  0.4403150000000 1.0
C      1  0.4376930000000  0.5473260000000  0.4693080000000 1.0
C      1  0.3981350000000  0.5334210000000  0.5010680000000 1.0
C      1  0.6059850000000  0.4437740000000  0.4502180000000 1.0
C      1  0.4437040000000  0.5390420000000  0.5578980000000 1.0
C      1  0.4857110000000  0.4357360000000  0.5682540000000 1.0
C      1  0.5445530000000  0.4979330000000  0.5321870000000 1.0
C      1  0.4829790000000  0.5192820000000  0.5761910000000 1.0
C      1  0.4758690000000  0.4678130000000  0.4660060000000 1.0
C      1  0.5452180000000  0.5114770000000  0.4942740000000 1.0
C      1  0.5110940000000  0.4068420000000  0.5578530000000 1.0
C      1  0.4777750000000  0.5820510000000  0.4838500000000 1.0
C      1  0.5048630000000  0.4654730000000  0.5495980000000 1.0
C      1  0.4936120000000  0.4679790000000  0.4148530000000 1.0
C      1  0.4593550000000  0.5345920000000  0.4289310000000 1.0
C      1  0.5473870000000  0.3940340000000  0.4844070000000 1.0
C      1  0.4340620000000  0.5168020000000  0.5761030000000 1.0
C      1  0.5483680000000  0.4392490000000  0.5440480000000 1.0
C      1  0.4867220000000  0.5473260000000  0.4450500000000 1.0
C      1  0.4590770000000  0.5210420000000  0.4664860000000 1.0
C      1  0.5194110000000  0.4512840000000  0.4092370000000 1.0
C      1  0.5439840000000  0.4830570000000  0.4757490000000 1.0
C      1  0.5523280000000  0.5457060000000  0.5651460000000 1.0
C      1  0.5120850000000  0.4873980000000  0.5264380000000 1.0
C      1  0.4737690000000  0.5306880000000  0.5457890000000 1.0
C      1  0.5455510000000  0.4792370000000  0.5801040000000 1.0
C      1  0.5203980000000  0.4497540000000  0.4543140000000 1.0
C      1  0.5169140000000  0.5546110000000  0.5931800000000 1.0
C      1  0.4769430000000  0.5562720000000  0.5027760000000 1.0
C      1  0.6133950000000  0.4432020000000  0.4766740000000 1.0
C      1  0.4173360000000  0.4982270000000  0.5642810000000 1.0
C      1  0.5348210000000  0.5897510000000  0.4861140000000 1.0
C      1  0.4509340000000  0.4891250000000  0.4749630000000 1.0
C      1  0.4263340000000  0.5097820000000  0.4859100000000 1.0
C      1  0.4496120000000  0.4931060000000  0.5303540000000 1.0
C      1  0.5496770000000  0.4696300000000  0.5045570000000 1.0
C      1  0.5029060000000  0.6016440000000  0.5197170000000 1.0
C      1  0.4227980000000  0.4695550000000  0.5608650000000 1.0
C      1  0.4865480000000  0.5471300000000  0.5899780000000 1.0
C      1  0.5705160000000  0.4445340000000  0.5012960000000 1.0
C      1  0.4258060000000  0.4305650000000  0.5043940000000 1.0
C      1  0.4442710000000  0.4226050000000  0.4784180000000 1.0
C      1  0.4752680000000  0.4899180000000  0.5607470000000 1.0
C      1  0.5700470000000  0.5539840000000  0.5305520000000 1.0
C      1  0.4907570000000  0.4747380000000  0.5982590000000 1.0
C      1  0.5102230000000  0.4066470000000  0.5271710000000 1.0
C      1  0.4866300000000  0.5599730000000  0.5351700000000 1.0
C      1  0.5364010000000  0.5625970000000  0.5003100000000 1.0
C      1  0.4158640000000  0.5049250000000  0.4538350000000 1.0
C      1  0.5321270000000  0.4540810000000  0.5986530000000 1.0
C      1  0.4466440000000  0.4811290000000  0.4421860000000 1.0
C      1  0.5265680000000  0.4265670000000  0.4317120000000 1.0
C      1  0.5960930000000  0.4819700000000  0.5040730000000 1.0
C      1  0.5392420000000  0.5389340000000  0.5882000000000 1.0
C      1  0.5018050000000  0.5893590000000  0.4636360000000 1.0
C      1  0.4089710000000  0.4539130000000  0.5016650000000 1.0
C      1  0.5116700000000  0.4846410000000  0.4716470000000 1.0
C      1  0.3946280000000  0.5067820000000  0.5100510000000 1.0
C      1  0.5557290000000  0.4193180000000  0.4749530000000 1.0
C      1  0.4490060000000  0.5952020000000  0.4816800000000 1.0
C      1  0.5837580000000  0.4686280000000  0.5503190000000 1.0
C      1  0.5297850000000  0.4411950000000  0.4807820000000 1.0
C      1  0.4164290000000  0.5488470000000  0.5156430000000 1.0
C      1  0.5786430000000  0.5527650000000  0.4790400000000 1.0
C      1  0.5047450000000  0.4485650000000  0.5935730000000 1.0
C      1  0.5391720000000  0.5551360000000  0.4604360000000 1.0
C      1  0.4797750000000  0.4639420000000  0.5266740000000 1.0
C      1  0.4907640000000  0.4038790000000  0.5785210000000 1.0
C      1  0.4666910000000  0.4599550000000  0.5700220000000 1.0
C      1  0.5102170000000  0.6041890000000  0.4930530000000 1.0
C      1  0.4158210000000  0.4965900000000  0.5322730000000 1.0
C      1  0.5608540000000  0.5834680000000  0.4424420000000 1.0
C      1  0.5143230000000  0.5138210000000  0.5697030000000 1.0
C      1  0.5962720000000  0.4884750000000  0.5688340000000 1.0
C      1  0.5002470000000  0.5976750000000  0.5615380000000 1.0
C      1  0.4618370000000  0.4801070000000  0.5969750000000 1.0
C      1  0.4331480000000  0.5806290000000  0.4641190000000 1.0
C      1  0.5165140000000  0.4620960000000  0.5041130000000 1.0
C      1  0.5661630000000  0.5578940000000  0.5032310000000 1.0
C      1  0.4652390000000  0.4817400000000  0.4048920000000 1.0
C      1  0.5693670000000  0.5008400000000  0.5689840000000 1.0
C      1  0.4933150000000  0.4373730000000  0.5012300000000 1.0
C      1  0.5406430000000  0.5653330000000  0.4219240000000 1.0
C      1  0.5122820000000  0.4822620000000  0.5737420000000 1.0
C      1  0.5525490000000  0.5960780000000  0.4650410000000 1.0
C      1  0.5239580000000  0.5358360000000  0.4834260000000 1.0
C      1  0.4017500000000  0.4691730000000  0.5224490000000 1.0
C      1  0.4327280000000  0.4607370000000  0.4792990000000 1.0
C      1  0.4614130000000  0.5669760000000  0.5570270000000 1.0
C      1  0.4378540000000  0.5326680000000  0.5283530000000 1.0
C      1  0.4889720000000  0.4321510000000  0.5345660000000 1.0
C      1  0.4709940000000  0.5927120000000  0.5642910000000 1.0
C      1  0.4752500000000  0.5792660000000  0.4472720000000 1.0
C      1  0.4952500000000  0.4984080000000  0.3991730000000 1.0
C      1  0.5222240000000  0.5760560000000  0.4484160000000 1.0
C      1  0.4495800000000  0.5614300000000  0.4407390000000 1.0
C      1  0.5375020000000  0.5093200000000  0.5941710000000 1.0
C      1  0.4555620000000  0.5068950000000  0.5911320000000 1.0
C      1  0.5648720000000  0.5228200000000  0.5433510000000 1.0
C      1  0.4747300000000  0.4980530000000  0.4331850000000 1.0
C      1  0.4903370000000  0.4552230000000  0.4434280000000 1.0
C      1  0.4787950000000  0.5116230000000  0.4925380000000 1.0
C      1  0.5193240000000  0.5535510000000  0.5283350000000 1.0
C      1  0.4371710000000  0.5112680000000  0.4311530000000 1.0
C      1  0.5816910000000  0.4492130000000  0.4422510000000 1.0
C      1  0.4921190000000  0.5391380000000  0.4776300000000 1.0
C      1  0.4518540000000  0.5906840000000  0.5127980000000 1.0
C      1  0.5689950000000  0.5517900000000  0.4464340000000 1.0
C      1  0.5052080000000  0.5052120000000  0.4381540000000 1.0
C      1  0.5732300000000  0.4809570000000  0.5254160000000 1.0
C      1  0.5529470000000  0.4290830000000  0.5187140000000 1.0
C      1  0.5616050000000  0.4757550000000  0.4480600000000 1.0
C      1  0.5176580000000  0.5173730000000  0.4098330000000 1.0
C      1  0.5617200000000  0.4557680000000  0.5614570000000 1.0
C      1  0.5232810000000  0.5853260000000  0.5397720000000 1.0
END
