TITL C-2848495-5024-12 0.00282328733725773 125000 -725.472564950958 0 0 132 (C1) n - 1
REM
REM in /home/bkarasulu/work/CARBON/AIRSS/Generating-Clusters/AIREBO/with-SteepDescent/Only-C1/SD-CG-opt/Try1-1.4A-POS3A/HFTN-CG
REM
REM
REM
REM
REM
REM ./C.cell (11c1c37f851c82e70ff6c80c92926a4b)
REM
REM compiler GCC version 9.2.1 20190827 (Red Hat 9.2.1-1)
REM options -cpp -mtune=generic -march=x86-64 -g -O0 -fpre-include=/usr/include/finclude/math-vector-fortran.h
REM seed -476283812 1215576742 1251058053 -176127924 751713848 -1348684015 -1249582540 1758005697 1022194398 640585820 1681959636 -735488624 1161050621 938374180 -174882587 1946317072 549817686 -73897506 -115630391 2044336353 -1408815431 649087868 -84741763 -527180354 -1344139730 130405674 -1217435045 7096525 -1651592689 516038355 -916722469 -282366781 -1037039556
REM
CELL 1.54180   50.00000   50.00000   50.00000   90.00000   90.00000   90.00000
LATT -1
SFAC C  
C      1  0.4123960000000  0.5138360000000  0.5365650000000 1.0
C      1  0.4179420000000  0.5354100000000  0.5527480000000 1.0
C      1  0.5575940000000  0.5369410000000  0.4369580000000 1.0
C      1  0.4261290000000  0.4643930000000  0.4671240000000 1.0
C      1  0.4676160000000  0.4418060000000  0.5213390000000 1.0
C      1  0.4177240000000  0.5615790000000  0.5421100000000 1.0
C      1  0.4351750000000  0.5285970000000  0.5736700000000 1.0
C      1  0.5782840000000  0.5384000000000  0.4845520000000 1.0
C      1  0.4509290000000  0.3934340000000  0.5193580000000 1.0
C      1  0.4315630000000  0.4447680000000  0.4471610000000 1.0
C      1  0.4998380000000  0.4222860000000  0.4258730000000 1.0
C      1  0.5465150000000  0.5671520000000  0.4477260000000 1.0
C      1  0.3885420000000  0.5038290000000  0.5193000000000 1.0
C      1  0.5558990000000  0.4995160000000  0.5192980000000 1.0
C      1  0.5272920000000  0.5756430000000  0.4234320000000 1.0
C      1  0.5272740000000  0.5868620000000  0.4946560000000 1.0
C      1  0.5901850000000  0.4305240000000  0.5737550000000 1.0
C      1  0.5882860000000  0.4704370000000  0.4580620000000 1.0
C      1  0.4771840000000  0.5045270000000  0.5960360000000 1.0
C      1  0.5048190000000  0.5433160000000  0.5848960000000 1.0
C      1  0.5353560000000  0.4938430000000  0.5458100000000 1.0
C      1  0.4505440000000  0.5450150000000  0.4670470000000 1.0
C      1  0.5701990000000  0.5161630000000  0.4500840000000 1.0
C      1  0.5187230000000  0.5116800000000  0.5274730000000 1.0
C      1  0.5128390000000  0.5007980000000  0.4443500000000 1.0
C      1  0.4619400000000  0.4832220000000  0.4082430000000 1.0
C      1  0.5045200000000  0.4158330000000  0.4563430000000 1.0
C      1  0.4283750000000  0.4088910000000  0.5119260000000 1.0
C      1  0.5052940000000  0.5890220000000  0.4352330000000 1.0
C      1  0.4167460000000  0.5473410000000  0.4669320000000 1.0
C      1  0.4385710000000  0.4997230000000  0.5197210000000 1.0
C      1  0.4678490000000  0.5649450000000  0.5662530000000 1.0
C      1  0.4355940000000  0.4922250000000  0.4593120000000 1.0
C      1  0.5442530000000  0.5013940000000  0.5909000000000 1.0
C      1  0.5386970000000  0.5898470000000  0.5229050000000 1.0
C      1  0.5297380000000  0.4537760000000  0.5353270000000 1.0
C      1  0.4773570000000  0.5471860000000  0.4253040000000 1.0
C      1  0.5517870000000  0.4678760000000  0.4422140000000 1.0
C      1  0.4970450000000  0.5530580000000  0.5532600000000 1.0
C      1  0.4793760000000  0.5283550000000  0.5387890000000 1.0
C      1  0.4633320000000  0.4313410000000  0.5593900000000 1.0
C      1  0.4354850000000  0.5762940000000  0.5259400000000 1.0
C      1  0.4108890000000  0.4993450000000  0.4999700000000 1.0
C      1  0.4798920000000  0.5743980000000  0.4330940000000 1.0
C      1  0.5963530000000  0.4381810000000  0.5259220000000 1.0
C      1  0.4348910000000  0.4393320000000  0.5764930000000 1.0
C      1  0.5671530000000  0.4931700000000  0.5569940000000 1.0
C      1  0.4800750000000  0.5601060000000  0.5118030000000 1.0
C      1  0.4831260000000  0.4584280000000  0.5537110000000 1.0
C      1  0.4382000000000  0.4502390000000  0.5464520000000 1.0
C      1  0.3899810000000  0.5081420000000  0.4566450000000 1.0
C      1  0.6032980000000  0.4262960000000  0.5497710000000 1.0
C      1  0.4597810000000  0.4396980000000  0.4484670000000 1.0
C      1  0.5065100000000  0.4459860000000  0.4571130000000 1.0
C      1  0.5247530000000  0.4969770000000  0.4064960000000 1.0
C      1  0.5590730000000  0.4622470000000  0.5503120000000 1.0
C      1  0.5129960000000  0.5563940000000  0.4895570000000 1.0
C      1  0.5360890000000  0.5518650000000  0.5616610000000 1.0
C      1  0.5407690000000  0.5045020000000  0.4892560000000 1.0
C      1  0.5469200000000  0.5356090000000  0.4868060000000 1.0
C      1  0.5269110000000  0.5426130000000  0.4233610000000 1.0
C      1  0.4682050000000  0.5003190000000  0.4656900000000 1.0
C      1  0.5601230000000  0.4718590000000  0.5017070000000 1.0
C      1  0.5316590000000  0.4531110000000  0.4649000000000 1.0
C      1  0.5700240000000  0.4924230000000  0.4764950000000 1.0
C      1  0.5667740000000  0.4477540000000  0.5218340000000 1.0
C      1  0.4092120000000  0.5680510000000  0.4836560000000 1.0
C      1  0.5193660000000  0.5778130000000  0.5465100000000 1.0
C      1  0.5329000000000  0.4752250000000  0.5929810000000 1.0
C      1  0.4679130000000  0.4054430000000  0.5438440000000 1.0
C      1  0.4800680000000  0.4052850000000  0.5120880000000 1.0
C      1  0.4861360000000  0.4766520000000  0.5251230000000 1.0
C      1  0.4889660000000  0.4348770000000  0.4978620000000 1.0
C      1  0.5443900000000  0.5917280000000  0.4663210000000 1.0
C      1  0.5019350000000  0.4799750000000  0.4231580000000 1.0
C      1  0.4767430000000  0.4749250000000  0.5782190000000 1.0
C      1  0.4792650000000  0.5862990000000  0.4651920000000 1.0
C      1  0.5906010000000  0.5177450000000  0.5586170000000 1.0
C      1  0.5344490000000  0.4605260000000  0.4907610000000 1.0
C      1  0.5184620000000  0.4413680000000  0.5609920000000 1.0
C      1  0.5088920000000  0.4105990000000  0.4848390000000 1.0
C      1  0.4614310000000  0.5241600000000  0.5135550000000 1.0
C      1  0.5934380000000  0.5306810000000  0.5032320000000 1.0
C      1  0.5758640000000  0.4443850000000  0.4503490000000 1.0
C      1  0.5059570000000  0.5296820000000  0.4468710000000 1.0
C      1  0.4852270000000  0.5288430000000  0.4034500000000 1.0
C      1  0.5219290000000  0.5394410000000  0.5345000000000 1.0
C      1  0.4733860000000  0.4577550000000  0.4030280000000 1.0
C      1  0.4413420000000  0.4548070000000  0.4897580000000 1.0
C      1  0.4403030000000  0.5267920000000  0.4910240000000 1.0
C      1  0.5654000000000  0.4427910000000  0.5749540000000 1.0
C      1  0.4816460000000  0.4835660000000  0.4921030000000 1.0
C      1  0.5105170000000  0.4580020000000  0.5104740000000 1.0
C      1  0.5023280000000  0.4604600000000  0.3953180000000 1.0
C      1  0.5765000000000  0.4907240000000  0.4373660000000 1.0
C      1  0.5030680000000  0.4828250000000  0.5958920000000 1.0
C      1  0.5078410000000  0.5040870000000  0.4991430000000 1.0
C      1  0.4322260000000  0.5790050000000  0.4978190000000 1.0
C      1  0.5720210000000  0.5435940000000  0.5466330000000 1.0
C      1  0.5368200000000  0.5518770000000  0.5114950000000 1.0
C      1  0.4740700000000  0.5354460000000  0.5807790000000 1.0
C      1  0.5466520000000  0.4214750000000  0.5192560000000 1.0
C      1  0.4921130000000  0.5322660000000  0.5013050000000 1.0
C      1  0.5140360000000  0.5229370000000  0.4028660000000 1.0
C      1  0.4640070000000  0.5746960000000  0.5357830000000 1.0
C      1  0.5379570000000  0.4677120000000  0.4115260000000 1.0
C      1  0.5126200000000  0.4975690000000  0.5667740000000 1.0
C      1  0.5792910000000  0.5173450000000  0.5268910000000 1.0
C      1  0.4866910000000  0.4692790000000  0.4487140000000 1.0
C      1  0.4874890000000  0.5866430000000  0.4971410000000 1.0
C      1  0.4931170000000  0.5916440000000  0.5302990000000 1.0
C      1  0.5534660000000  0.5229580000000  0.5662780000000 1.0
C      1  0.4732360000000  0.5307840000000  0.4522840000000 1.0
C      1  0.5110360000000  0.5982900000000  0.4669910000000 1.0
C      1  0.5203260000000  0.5214260000000  0.5879010000000 1.0
C      1  0.4963420000000  0.4319790000000  0.5369120000000 1.0
C      1  0.4732890000000  0.4359080000000  0.4236690000000 1.0
C      1  0.5283900000000  0.5457230000000  0.4630950000000 1.0
C      1  0.4592130000000  0.4857240000000  0.4372830000000 1.0
C      1  0.5185370000000  0.4440440000000  0.4181980000000 1.0
C      1  0.4724850000000  0.4549660000000  0.4760940000000 1.0
C      1  0.5587370000000  0.5647010000000  0.5308320000000 1.0
C      1  0.5192520000000  0.4171330000000  0.5165570000000 1.0
C      1  0.4542210000000  0.5740270000000  0.4793000000000 1.0
C      1  0.4665430000000  0.5083110000000  0.3951980000000 1.0
C      1  0.4348980000000  0.4388210000000  0.5150620000000 1.0
C      1  0.4523250000000  0.4730580000000  0.5258740000000 1.0
C      1  0.4872640000000  0.5004870000000  0.5493550000000 1.0
C      1  0.4599490000000  0.5090850000000  0.5676950000000 1.0
C      1  0.5369280000000  0.4495780000000  0.5816730000000 1.0
C      1  0.5344140000000  0.4922990000000  0.4582810000000 1.0
C      1  0.4153110000000  0.5136240000000  0.4711150000000 1.0
END
