TITL C-2848502-4955-313 -0.00505073211819634 125000 -856.23341319487 0 0 156 (C1) n - 1
REM
REM in /home/bkarasulu/work/CARBON/AIRSS/Generating-Clusters/AIREBO/with-SteepDescent/Only-C1/SD-CG-opt/Try1-1.4A-POS3A/HFTN-CG
REM
REM
REM
REM
REM
REM ./C.cell (11c1c37f851c82e70ff6c80c92926a4b)
REM
REM compiler GCC version 9.2.1 20190827 (Red Hat 9.2.1-1)
REM options -cpp -mtune=generic -march=x86-64 -g -O0 -fpre-include=/usr/include/finclude/math-vector-fortran.h
REM seed 992440450 -223890002 -1964259940 -565992816 -921058427 330037184 622834891 1451575989 -841953400 -1582915250 -1637102370 -47731394 1836051037 -2075840901 773716236 897619876 -1234690642 1951589668 -1345120081 -113751957 -264105971 -1307331745 -132826741 -2056467096 -360278125 1808821172 865740766 -856624518 -2140178056 1880576103 -1534158688 515359064 -1794000465
REM
CELL 1.54180   50.00000   50.00000   50.00000   90.00000   90.00000   90.00000
LATT -1
SFAC C  
C      1  0.5124610000000  0.5024550000000  0.4268630000000 1.0
C      1  0.4224940000000  0.5055900000000  0.4695630000000 1.0
C      1  0.5663350000000  0.5221620000000  0.4398600000000 1.0
C      1  0.5230770000000  0.5672740000000  0.5589330000000 1.0
C      1  0.4777540000000  0.5602770000000  0.5778200000000 1.0
C      1  0.5548150000000  0.5760870000000  0.4988720000000 1.0
C      1  0.5055250000000  0.5289330000000  0.5120240000000 1.0
C      1  0.4726900000000  0.4345390000000  0.5869320000000 1.0
C      1  0.4449060000000  0.4742670000000  0.5032320000000 1.0
C      1  0.4681220000000  0.4159670000000  0.5274290000000 1.0
C      1  0.4571970000000  0.5298610000000  0.5094330000000 1.0
C      1  0.5108220000000  0.4541840000000  0.4374730000000 1.0
C      1  0.5196950000000  0.4376840000000  0.5209080000000 1.0
C      1  0.4510140000000  0.4776720000000  0.4699590000000 1.0
C      1  0.5227640000000  0.5501680000000  0.5306910000000 1.0
C      1  0.4429740000000  0.5702020000000  0.4434070000000 1.0
C      1  0.5429640000000  0.5168230000000  0.4905090000000 1.0
C      1  0.4626230000000  0.5143010000000  0.4301580000000 1.0
C      1  0.4815330000000  0.4874630000000  0.4265970000000 1.0
C      1  0.5352040000000  0.5479540000000  0.5800780000000 1.0
C      1  0.5702510000000  0.5086970000000  0.5190020000000 1.0
C      1  0.4924440000000  0.4367750000000  0.5360380000000 1.0
C      1  0.4890690000000  0.5389370000000  0.5992340000000 1.0
C      1  0.4392330000000  0.5838150000000  0.4677610000000 1.0
C      1  0.5767600000000  0.5543870000000  0.4926060000000 1.0
C      1  0.5142680000000  0.5255240000000  0.5875550000000 1.0
C      1  0.4302570000000  0.5445340000000  0.4437230000000 1.0
C      1  0.4608270000000  0.4604780000000  0.4270690000000 1.0
C      1  0.4215010000000  0.5363080000000  0.5441690000000 1.0
C      1  0.4621450000000  0.5928470000000  0.5324670000000 1.0
C      1  0.4727560000000  0.5008340000000  0.4735250000000 1.0
C      1  0.5931870000000  0.5408690000000  0.5624710000000 1.0
C      1  0.4222070000000  0.4758630000000  0.4529640000000 1.0
C      1  0.4652450000000  0.4469240000000  0.5007910000000 1.0
C      1  0.5120550000000  0.4601970000000  0.4055370000000 1.0
C      1  0.4327510000000  0.4824850000000  0.5339080000000 1.0
C      1  0.5105580000000  0.5110930000000  0.5587550000000 1.0
C      1  0.4404580000000  0.5219600000000  0.5686140000000 1.0
C      1  0.5443460000000  0.4874140000000  0.5246870000000 1.0
C      1  0.4446950000000  0.5714730000000  0.5386840000000 1.0
C      1  0.5208030000000  0.5340730000000  0.3951830000000 1.0
C      1  0.4440050000000  0.4771010000000  0.4091910000000 1.0
C      1  0.5387980000000  0.4027480000000  0.5241130000000 1.0
C      1  0.4520310000000  0.4380570000000  0.4481050000000 1.0
C      1  0.5572510000000  0.4512090000000  0.4351500000000 1.0
C      1  0.3927050000000  0.4699580000000  0.4999800000000 1.0
C      1  0.5564090000000  0.5339160000000  0.5488780000000 1.0
C      1  0.5010210000000  0.4813190000000  0.5675060000000 1.0
C      1  0.4592010000000  0.5550480000000  0.4013250000000 1.0
C      1  0.5112850000000  0.4299110000000  0.5777410000000 1.0
C      1  0.4924280000000  0.4725740000000  0.4532280000000 1.0
C      1  0.5236150000000  0.4929660000000  0.5906950000000 1.0
C      1  0.5039250000000  0.4911260000000  0.4760540000000 1.0
C      1  0.5761770000000  0.5610880000000  0.5434620000000 1.0
C      1  0.5656580000000  0.5443170000000  0.5790180000000 1.0
C      1  0.5555050000000  0.4519540000000  0.5100510000000 1.0
C      1  0.5258990000000  0.5808110000000  0.5167780000000 1.0
C      1  0.5286510000000  0.4467700000000  0.4912370000000 1.0
C      1  0.4954950000000  0.5785990000000  0.5661130000000 1.0
C      1  0.5378050000000  0.5095350000000  0.5478320000000 1.0
C      1  0.4082740000000  0.5237170000000  0.4945750000000 1.0
C      1  0.4736630000000  0.4524470000000  0.4683150000000 1.0
C      1  0.5764220000000  0.4298200000000  0.4989370000000 1.0
C      1  0.4314670000000  0.4559300000000  0.5612960000000 1.0
C      1  0.6007520000000  0.4985760000000  0.5229270000000 1.0
C      1  0.5100670000000  0.4534350000000  0.5563270000000 1.0
C      1  0.5246840000000  0.4144740000000  0.4609990000000 1.0
C      1  0.4861100000000  0.5973200000000  0.5468650000000 1.0
C      1  0.4980710000000  0.4337620000000  0.4692480000000 1.0
C      1  0.4013030000000  0.5193790000000  0.5223330000000 1.0
C      1  0.4847680000000  0.6039010000000  0.4757750000000 1.0
C      1  0.5459310000000  0.3981100000000  0.4757820000000 1.0
C      1  0.5392290000000  0.5319250000000  0.4304500000000 1.0
C      1  0.4380060000000  0.5388890000000  0.4880950000000 1.0
C      1  0.5469080000000  0.5333520000000  0.5171720000000 1.0
C      1  0.5010560000000  0.4051040000000  0.4281120000000 1.0
C      1  0.4963870000000  0.3960330000000  0.4568900000000 1.0
C      1  0.4979740000000  0.4560230000000  0.5020160000000 1.0
C      1  0.4415300000000  0.4880560000000  0.5661660000000 1.0
C      1  0.5482740000000  0.5560820000000  0.4648870000000 1.0
C      1  0.4505340000000  0.5231470000000  0.4606810000000 1.0
C      1  0.5396900000000  0.4617330000000  0.5465460000000 1.0
C      1  0.5202910000000  0.5559840000000  0.4189400000000 1.0
C      1  0.5863530000000  0.5379420000000  0.5125540000000 1.0
C      1  0.4783750000000  0.5421620000000  0.4651430000000 1.0
C      1  0.5356140000000  0.5832410000000  0.4715000000000 1.0
C      1  0.4550990000000  0.5284900000000  0.4024930000000 1.0
C      1  0.5564950000000  0.4059560000000  0.5007940000000 1.0
C      1  0.4649720000000  0.4670160000000  0.5794350000000 1.0
C      1  0.5636690000000  0.5813330000000  0.5298960000000 1.0
C      1  0.4577600000000  0.5492930000000  0.5580260000000 1.0
C      1  0.5277010000000  0.5341560000000  0.4692460000000 1.0
C      1  0.4489990000000  0.4117800000000  0.4660110000000 1.0
C      1  0.6008210000000  0.5262140000000  0.5377200000000 1.0
C      1  0.4334670000000  0.4362560000000  0.4997700000000 1.0
C      1  0.4916240000000  0.4578450000000  0.5984540000000 1.0
C      1  0.5141710000000  0.3908440000000  0.5344300000000 1.0
C      1  0.4919510000000  0.5259250000000  0.4307680000000 1.0
C      1  0.4638780000000  0.6032270000000  0.5028470000000 1.0
C      1  0.4227420000000  0.4440500000000  0.5306520000000 1.0
C      1  0.4653400000000  0.5693180000000  0.4253980000000 1.0
C      1  0.4933340000000  0.5587660000000  0.4395120000000 1.0
C      1  0.5344940000000  0.4792250000000  0.4687250000000 1.0
C      1  0.4741210000000  0.5462600000000  0.5294770000000 1.0
C      1  0.4858640000000  0.4734540000000  0.3959100000000 1.0
C      1  0.5708020000000  0.4450320000000  0.5396190000000 1.0
C      1  0.5908480000000  0.4543540000000  0.5580150000000 1.0
C      1  0.5315030000000  0.5067860000000  0.4520090000000 1.0
C      1  0.4612370000000  0.4990160000000  0.3932310000000 1.0
C      1  0.5459960000000  0.4702320000000  0.5788800000000 1.0
C      1  0.4268060000000  0.5550660000000  0.5158380000000 1.0
C      1  0.5538170000000  0.4784790000000  0.4932600000000 1.0
C      1  0.4195460000000  0.4788640000000  0.4220070000000 1.0
C      1  0.4914340000000  0.5221690000000  0.5406110000000 1.0
C      1  0.4535380000000  0.4087940000000  0.4995840000000 1.0
C      1  0.5307630000000  0.5808320000000  0.4111800000000 1.0
C      1  0.5037970000000  0.5825790000000  0.4617420000000 1.0
C      1  0.4769220000000  0.4009490000000  0.4758400000000 1.0
C      1  0.4553290000000  0.4445240000000  0.5407620000000 1.0
C      1  0.5212080000000  0.4539770000000  0.5946850000000 1.0
C      1  0.4463580000000  0.5765280000000  0.4981220000000 1.0
C      1  0.5328920000000  0.4856090000000  0.4077610000000 1.0
C      1  0.4924050000000  0.5474820000000  0.6257930000000 1.0
C      1  0.5773620000000  0.5411240000000  0.4636170000000 1.0
C      1  0.4676520000000  0.6299810000000  0.4823450000000 1.0
C      1  0.5430680000000  0.4285590000000  0.5398140000000 1.0
C      1  0.4144370000000  0.4832990000000  0.4911370000000 1.0
C      1  0.6068460000000  0.4722960000000  0.5172280000000 1.0
C      1  0.6135520000000  0.4581420000000  0.5413120000000 1.0
C      1  0.5918860000000  0.4599620000000  0.4957990000000 1.0
C      1  0.5338600000000  0.4470590000000  0.4576750000000 1.0
C      1  0.5071350000000  0.6060880000000  0.5296380000000 1.0
C      1  0.4887580000000  0.3989090000000  0.5469420000000 1.0
C      1  0.4918810000000  0.4994220000000  0.3784720000000 1.0
C      1  0.5408590000000  0.5915390000000  0.5453860000000 1.0
C      1  0.4887140000000  0.4113240000000  0.5732610000000 1.0
C      1  0.5026910000000  0.5428280000000  0.4842080000000 1.0
C      1  0.4755630000000  0.5650690000000  0.5047400000000 1.0
C      1  0.4579430000000  0.5291030000000  0.5925280000000 1.0
C      1  0.5037800000000  0.5738440000000  0.4938170000000 1.0
C      1  0.5082380000000  0.4283800000000  0.4170060000000 1.0
C      1  0.5176840000000  0.5085090000000  0.3877670000000 1.0
C      1  0.5795860000000  0.4811900000000  0.4722430000000 1.0
C      1  0.5582630000000  0.4768400000000  0.4246890000000 1.0
C      1  0.4018670000000  0.4925860000000  0.5314320000000 1.0
C      1  0.4755470000000  0.4711540000000  0.5473830000000 1.0
C      1  0.5780730000000  0.4656490000000  0.5801130000000 1.0
C      1  0.4936970000000  0.4801460000000  0.5196530000000 1.0
C      1  0.5698220000000  0.5117920000000  0.4781160000000 1.0
C      1  0.4676960000000  0.5027740000000  0.5399260000000 1.0
C      1  0.4270950000000  0.4460100000000  0.4686690000000 1.0
C      1  0.5184730000000  0.4988570000000  0.5057960000000 1.0
C      1  0.4399720000000  0.5137300000000  0.5297900000000 1.0
C      1  0.5711820000000  0.4946540000000  0.4420790000000 1.0
C      1  0.3964300000000  0.4612770000000  0.5282370000000 1.0
C      1  0.4683010000000  0.4983230000000  0.5062130000000 1.0
END
