TITL C-2847958-8115-264 0.00178506804776421 125000 -312.707537074387 0 0 56 (C1) n - 1
REM
REM in /home/bkarasulu/work/CARBON/AIRSS/Generating-Clusters/AIREBO/with-SteepDescent/Only-C1/SD-CG-opt/Try1-1.4A-POS3A/HFTN-CG
REM
REM
REM
REM
REM
REM ./C.cell (11c1c37f851c82e70ff6c80c92926a4b)
REM
REM compiler GCC version 9.2.1 20190827 (Red Hat 9.2.1-1)
REM options -cpp -mtune=generic -march=x86-64 -g -O0 -fpre-include=/usr/include/finclude/math-vector-fortran.h
REM seed -34828283 -1227906196 270631957 -514166388 1294235428 286324513 -1515840102 1076275295 -2003869828 491481133 -402326779 76180100 -14085869 996742557 596795382 319522108 1075948366 -599788483 386561571 -1647576370 -906493149 1969226741 1344540516 -206744091 -442745734 1840672237 1861268742 -1674259261 2030173033 1481544977 783589097 -1992498612 1761907381
REM
CELL 1.54180   50.00000   50.00000   50.00000   90.00000   90.00000   90.00000
LATT -1
SFAC C  
C      1  0.5609700000000  0.4285680000000  0.4921450000000 1.0
C      1  0.4934700000000  0.5142750000000  0.5334860000000 1.0
C      1  0.5995050000000  0.5882740000000  0.4955310000000 1.0
C      1  0.4962070000000  0.5642440000000  0.5402510000000 1.0
C      1  0.5323420000000  0.5450540000000  0.5160050000000 1.0
C      1  0.4883600000000  0.4952450000000  0.5086580000000 1.0
C      1  0.5683500000000  0.4776620000000  0.5208530000000 1.0
C      1  0.4103330000000  0.4718360000000  0.4961550000000 1.0
C      1  0.4530020000000  0.4879240000000  0.5407790000000 1.0
C      1  0.4470680000000  0.4571560000000  0.4962700000000 1.0
C      1  0.4979440000000  0.4735000000000  0.5512460000000 1.0
C      1  0.5510480000000  0.4591170000000  0.5034680000000 1.0
C      1  0.4597550000000  0.4525970000000  0.5739930000000 1.0
C      1  0.4724820000000  0.4800800000000  0.4430470000000 1.0
C      1  0.5521900000000  0.5208540000000  0.5061600000000 1.0
C      1  0.4586740000000  0.5469230000000  0.5053340000000 1.0
C      1  0.4966620000000  0.4383900000000  0.4413580000000 1.0
C      1  0.6199460000000  0.6046640000000  0.4907190000000 1.0
C      1  0.4497500000000  0.5024650000000  0.4312860000000 1.0
C      1  0.5153210000000  0.4939120000000  0.4903920000000 1.0
C      1  0.5638700000000  0.4713880000000  0.4539570000000 1.0
C      1  0.4353220000000  0.4850110000000  0.4547640000000 1.0
C      1  0.5404720000000  0.5075210000000  0.4822960000000 1.0
C      1  0.4882460000000  0.5131890000000  0.4818240000000 1.0
C      1  0.4713110000000  0.4733120000000  0.5036530000000 1.0
C      1  0.5611410000000  0.5527180000000  0.5052510000000 1.0
C      1  0.4633090000000  0.5003590000000  0.4686640000000 1.0
C      1  0.5221230000000  0.4668820000000  0.5078090000000 1.0
C      1  0.4496230000000  0.4122660000000  0.4656190000000 1.0
C      1  0.5052190000000  0.5120260000000  0.5820440000000 1.0
C      1  0.5114400000000  0.4572200000000  0.5322500000000 1.0
C      1  0.5526650000000  0.5010660000000  0.4591510000000 1.0
C      1  0.4376930000000  0.5244870000000  0.4499250000000 1.0
C      1  0.5669510000000  0.4938800000000  0.4309860000000 1.0
C      1  0.4552190000000  0.4410990000000  0.4680510000000 1.0
C      1  0.5142230000000  0.4308070000000  0.5378300000000 1.0
C      1  0.5574770000000  0.5014990000000  0.5282200000000 1.0
C      1  0.3810790000000  0.5365070000000  0.5255230000000 1.0
C      1  0.4504030000000  0.5376890000000  0.5303040000000 1.0
C      1  0.4349810000000  0.5165070000000  0.4786070000000 1.0
C      1  0.5807730000000  0.5703430000000  0.5016240000000 1.0
C      1  0.3990690000000  0.5216110000000  0.5152360000000 1.0
C      1  0.4753220000000  0.4532120000000  0.4492000000000 1.0
C      1  0.6393230000000  0.6214740000000  0.4835330000000 1.0
C      1  0.4695730000000  0.4707460000000  0.5567150000000 1.0
C      1  0.6599740000000  0.6365970000000  0.4778860000000 1.0
C      1  0.4842620000000  0.5399110000000  0.4980870000000 1.0
C      1  0.4627990000000  0.5138900000000  0.5389050000000 1.0
C      1  0.5039560000000  0.5432310000000  0.5228640000000 1.0
C      1  0.4257500000000  0.4623860000000  0.4703040000000 1.0
C      1  0.5617850000000  0.4529120000000  0.4724560000000 1.0
C      1  0.4468830000000  0.3868910000000  0.4648430000000 1.0
C      1  0.4349010000000  0.4799360000000  0.5184410000000 1.0
C      1  0.4186540000000  0.5039060000000  0.5006190000000 1.0
C      1  0.5103060000000  0.5016520000000  0.5563380000000 1.0
C      1  0.5405210000000  0.5031290000000  0.5490860000000 1.0
END
