TITL C-2848498-1409-172 0.000229708437542831 125000 -311.374462211609 0 0 57 (C1) n - 1
REM
REM in /home/bkarasulu/work/CARBON/AIRSS/Generating-Clusters/AIREBO/with-SteepDescent/Only-C1/SD-CG-opt/Try1-1.4A-POS3A/HFTN-CG
REM
REM
REM
REM
REM
REM ./C.cell (11c1c37f851c82e70ff6c80c92926a4b)
REM
REM compiler GCC version 9.2.1 20190827 (Red Hat 9.2.1-1)
REM options -cpp -mtune=generic -march=x86-64 -g -O0 -fpre-include=/usr/include/finclude/math-vector-fortran.h
REM seed 222357754 350921543 791838510 2109921555 478789092 -1517460094 651580960 -1180357404 -540004650 1055507122 -88104015 1644766093 -378358592 -594853424 1051528017 934831171 -831019798 126110311 -1178222338 1885152435 -1964665318 -1954087032 829782304 1663856224 -1786307752 1246878288 1683811567 1716014629 830904627 1111766739 2010039637 -114245039 161451896
REM
CELL 1.54180   50.00000   50.00000   50.00000   90.00000   90.00000   90.00000
LATT -1
SFAC C  
C      1  0.4891810000000  0.5548330000000  0.5308960000000 1.0
C      1  0.5254180000000  0.4695090000000  0.5461990000000 1.0
C      1  0.4390700000000  0.5498200000000  0.5066200000000 1.0
C      1  0.5692740000000  0.4892990000000  0.5219090000000 1.0
C      1  0.5398950000000  0.5394930000000  0.5431710000000 1.0
C      1  0.5328050000000  0.4938060000000  0.4387250000000 1.0
C      1  0.4790860000000  0.4963350000000  0.4443090000000 1.0
C      1  0.5395080000000  0.4723600000000  0.4585330000000 1.0
C      1  0.4378450000000  0.5244460000000  0.4877710000000 1.0
C      1  0.4307010000000  0.4939860000000  0.4903670000000 1.0
C      1  0.4392520000000  0.5012780000000  0.5201130000000 1.0
C      1  0.4680600000000  0.4864180000000  0.5164550000000 1.0
C      1  0.5648090000000  0.5445650000000  0.5238570000000 1.0
C      1  0.5111330000000  0.5493800000000  0.5564910000000 1.0
C      1  0.4651350000000  0.5534720000000  0.4882410000000 1.0
C      1  0.4740580000000  0.4700960000000  0.5441400000000 1.0
C      1  0.5551860000000  0.5088080000000  0.4595300000000 1.0
C      1  0.4712730000000  0.4401160000000  0.5061600000000 1.0
C      1  0.5082440000000  0.4960740000000  0.4291330000000 1.0
C      1  0.4973340000000  0.4352230000000  0.5160020000000 1.0
C      1  0.4709760000000  0.5207740000000  0.4661110000000 1.0
C      1  0.4839110000000  0.4883850000000  0.5662690000000 1.0
C      1  0.4686830000000  0.5108860000000  0.5708730000000 1.0
C      1  0.5371970000000  0.4855410000000  0.5214350000000 1.0
C      1  0.5477000000000  0.4654110000000  0.4966610000000 1.0
C      1  0.4932890000000  0.5559990000000  0.4693450000000 1.0
C      1  0.4929880000000  0.5258180000000  0.5135600000000 1.0
C      1  0.5190040000000  0.5065190000000  0.5032060000000 1.0
C      1  0.4432690000000  0.4744630000000  0.4752460000000 1.0
C      1  0.4936490000000  0.5659090000000  0.5019640000000 1.0
C      1  0.5002800000000  0.4518550000000  0.5388540000000 1.0
C      1  0.5467360000000  0.4377720000000  0.5129310000000 1.0
C      1  0.5176330000000  0.4670120000000  0.4810540000000 1.0
C      1  0.4629600000000  0.5447590000000  0.4298500000000 1.0
C      1  0.4689960000000  0.5147290000000  0.4973220000000 1.0
C      1  0.4685860000000  0.4700700000000  0.4530280000000 1.0
C      1  0.5058500000000  0.4321620000000  0.4656150000000 1.0
C      1  0.4667720000000  0.5329140000000  0.5455640000000 1.0
C      1  0.5128630000000  0.4891660000000  0.5664910000000 1.0
C      1  0.5021600000000  0.5267600000000  0.4562200000000 1.0
C      1  0.4557360000000  0.4477200000000  0.5281570000000 1.0
C      1  0.5672820000000  0.4819040000000  0.4740380000000 1.0
C      1  0.4548460000000  0.5481990000000  0.4567150000000 1.0
C      1  0.4945220000000  0.4843200000000  0.4952020000000 1.0
C      1  0.5364730000000  0.5344780000000  0.5108590000000 1.0
C      1  0.4868800000000  0.4426930000000  0.4533730000000 1.0
C      1  0.4830540000000  0.5261370000000  0.4283950000000 1.0
C      1  0.4980220000000  0.5195040000000  0.5455300000000 1.0
C      1  0.5829550000000  0.4836520000000  0.5013970000000 1.0
C      1  0.4429670000000  0.5283810000000  0.5277850000000 1.0
C      1  0.5195670000000  0.4369750000000  0.4953040000000 1.0
C      1  0.4725710000000  0.4613750000000  0.4856310000000 1.0
C      1  0.5488970000000  0.5397140000000  0.4722310000000 1.0
C      1  0.5212640000000  0.5515220000000  0.4881480000000 1.0
C      1  0.5442470000000  0.4431150000000  0.5404310000000 1.0
C      1  0.5246590000000  0.5154910000000  0.4712840000000 1.0
C      1  0.5252920000000  0.5185960000000  0.5653020000000 1.0
END
