TITL C-2848509-3138-201 -948.591016831774 125000 -193.746570074772 0 0 35 (C1) n - 1
REM
REM in /home/bkarasulu/work/CARBON/AIRSS/Generating-Clusters/AIREBO/with-SteepDescent/Only-C1/SD-CG-opt/Try1-1.4A-POS3A/HFTN-CG
REM
REM
REM
REM
REM
REM ./C.cell (11c1c37f851c82e70ff6c80c92926a4b)
REM
REM compiler GCC version 9.2.1 20190827 (Red Hat 9.2.1-1)
REM options -cpp -mtune=generic -march=x86-64 -g -O0 -fpre-include=/usr/include/finclude/math-vector-fortran.h
REM seed 277212755 976959745 -919256816 385709635 539314175 -35749587 -348232221 -1660619894 -1880238329 -1989257203 2072431374 -161261762 -2113709656 789578314 1843083434 268973759 322827693 -1617780083 2115772201 -558332430 117584655 -1293159319 1988138958 940447277 484526275 1680817254 -1067653021 -641887964 329893222 -948689016 -980355455 892152004 -1935972897
REM
CELL 1.54180   50.00000   50.00000   50.00000   90.00000   90.00000   90.00000
LATT -1
SFAC C  
C      1  0.4031750000000  0.4804750000000  0.5070710000000 1.0
C      1  0.6032950000000  0.4646520000000  0.5357880000000 1.0
C      1  0.4974580000000  0.5307430000000  0.5300430000000 1.0
C      1  0.5016040000000  0.5340920000000  0.4548500000000 1.0
C      1  0.5349410000000  0.4860990000000  0.5756360000000 1.0
C      1  0.4750010000000  0.5384400000000  0.4414740000000 1.0
C      1  0.4842790000000  0.5562750000000  0.5118660000000 1.0
C      1  0.5172350000000  0.4682640000000  0.4887750000000 1.0
C      1  0.4708820000000  0.4697600000000  0.4755150000000 1.0
C      1  0.4436810000000  0.4870810000000  0.4450950000000 1.0
C      1  0.6233530000000  0.4603590000000  0.5527840000000 1.0
C      1  0.5392390000000  0.5089120000000  0.5617790000000 1.0
C      1  0.5605970000000  0.5286870000000  0.4575790000000 1.0
C      1  0.4799920000000  0.4920120000000  0.4607580000000 1.0
C      1  0.4407650000000  0.4643350000000  0.4672870000000 1.0
C      1  0.4913310000000  0.4595690000000  0.4916860000000 1.0
C      1  0.4585490000000  0.5160300000000  0.4370350000000 1.0
C      1  0.6446360000000  0.4571480000000  0.5677420000000 1.0
C      1  0.4735860000000  0.4880160000000  0.4294590000000 1.0
C      1  0.3980220000000  0.5005320000000  0.5246500000000 1.0
C      1  0.5621000000000  0.4760130000000  0.5040890000000 1.0
C      1  0.5285170000000  0.5312490000000  0.4563790000000 1.0
C      1  0.4638980000000  0.5258830000000  0.5275700000000 1.0
C      1  0.4831970000000  0.5245950000000  0.4995670000000 1.0
C      1  0.5193490000000  0.5187590000000  0.5452350000000 1.0
C      1  0.4754720000000  0.5800210000000  0.5114480000000 1.0
C      1  0.4392320000000  0.5267190000000  0.5348180000000 1.0
C      1  0.5818690000000  0.4698650000000  0.5208470000000 1.0
C      1  0.4864540000000  0.5159820000000  0.4725170000000 1.0
C      1  0.4149870000000  0.5157960000000  0.5395050000000 1.0
C      1  0.5404570000000  0.4839790000000  0.4886430000000 1.0
C      1  0.5427070000000  0.5060750000000  0.4724540000000 1.0
C      1  0.4216340000000  0.4728530000000  0.4894870000000 1.0
C      1  0.5627980000000  0.5220560000000  0.5635560000000 1.0
C      1  0.4357060000000  0.4386710000000  0.4570150000000 1.0
END
