TITL C-2848495-5024-491 0.00375816596584365 125000 -624.204359353217 0 0 113 (C1) n - 1
REM
REM in /home/bkarasulu/work/CARBON/AIRSS/Generating-Clusters/AIREBO/with-SteepDescent/Only-C1/SD-CG-opt/Try1-1.4A-POS3A/HFTN-CG
REM
REM
REM
REM
REM
REM ./C.cell (11c1c37f851c82e70ff6c80c92926a4b)
REM
REM compiler GCC version 9.2.1 20190827 (Red Hat 9.2.1-1)
REM options -cpp -mtune=generic -march=x86-64 -g -O0 -fpre-include=/usr/include/finclude/math-vector-fortran.h
REM seed -982068786 -2136953702 -2010667407 132038060 1554234881 106763584 1100276616 -1275572274 -2130593209 -1496798752 -1173210279 -705553584 70948387 1561184399 -878334693 -1015785859 782368163 -830828272 -1681133826 174247346 -897167959 -1848019836 -1341465395 -2088092641 -754203067 1964208552 26927346 1640319316 -400443428 -48872747 -709861250 917533954 -1870053735
REM
CELL 1.54180   50.00000   50.00000   50.00000   90.00000   90.00000   90.00000
LATT -1
SFAC C  
C      1  0.4771400000000  0.4285460000000  0.5148550000000 1.0
C      1  0.4160120000000  0.5478160000000  0.5234520000000 1.0
C      1  0.5188160000000  0.4937200000000  0.4055260000000 1.0
C      1  0.4854050000000  0.5169720000000  0.4717370000000 1.0
C      1  0.4494280000000  0.4303450000000  0.4980450000000 1.0
C      1  0.4380360000000  0.5193310000000  0.4853230000000 1.0
C      1  0.4414840000000  0.5004140000000  0.5117170000000 1.0
C      1  0.5832100000000  0.4770460000000  0.4880530000000 1.0
C      1  0.4946560000000  0.5369020000000  0.4384190000000 1.0
C      1  0.4724750000000  0.5061530000000  0.4079890000000 1.0
C      1  0.5092660000000  0.5349560000000  0.5122470000000 1.0
C      1  0.5016350000000  0.4814750000000  0.5479420000000 1.0
C      1  0.5667470000000  0.4607270000000  0.5559970000000 1.0
C      1  0.5132570000000  0.5807910000000  0.5475560000000 1.0
C      1  0.5188230000000  0.4576870000000  0.5344320000000 1.0
C      1  0.4835690000000  0.4518880000000  0.4637200000000 1.0
C      1  0.4697740000000  0.4791440000000  0.4935520000000 1.0
C      1  0.4554880000000  0.5415590000000  0.4447840000000 1.0
C      1  0.4808860000000  0.5520490000000  0.5199430000000 1.0
C      1  0.4156940000000  0.4844930000000  0.4763880000000 1.0
C      1  0.4521070000000  0.4109510000000  0.4702290000000 1.0
C      1  0.4726770000000  0.5011190000000  0.5185030000000 1.0
C      1  0.5373810000000  0.4321540000000  0.4463950000000 1.0
C      1  0.4289680000000  0.5125930000000  0.5669880000000 1.0
C      1  0.4315050000000  0.4394390000000  0.4512410000000 1.0
C      1  0.5611690000000  0.5039410000000  0.4530690000000 1.0
C      1  0.4245040000000  0.5424930000000  0.4908450000000 1.0
C      1  0.5442330000000  0.5475260000000  0.5551300000000 1.0
C      1  0.5598170000000  0.5499820000000  0.5081920000000 1.0
C      1  0.5532970000000  0.5221470000000  0.5633340000000 1.0
C      1  0.5208270000000  0.5790760000000  0.4621320000000 1.0
C      1  0.5838900000000  0.4808740000000  0.4456260000000 1.0
C      1  0.4758250000000  0.4898330000000  0.5768810000000 1.0
C      1  0.5227210000000  0.4940510000000  0.4912410000000 1.0
C      1  0.5438950000000  0.5390490000000  0.4134830000000 1.0
C      1  0.5497920000000  0.5283600000000  0.4839350000000 1.0
C      1  0.5393860000000  0.5729980000000  0.4936760000000 1.0
C      1  0.5811420000000  0.5292200000000  0.5246500000000 1.0
C      1  0.4882280000000  0.4557090000000  0.5601000000000 1.0
C      1  0.4075600000000  0.5109820000000  0.5496580000000 1.0
C      1  0.5515840000000  0.5802850000000  0.4651650000000 1.0
C      1  0.4598210000000  0.4601580000000  0.5787640000000 1.0
C      1  0.5272310000000  0.5622920000000  0.4144170000000 1.0
C      1  0.4763350000000  0.4357310000000  0.4280700000000 1.0
C      1  0.5881770000000  0.5253850000000  0.4946940000000 1.0
C      1  0.5122370000000  0.4367920000000  0.4645190000000 1.0
C      1  0.4934710000000  0.4946460000000  0.3926040000000 1.0
C      1  0.4137640000000  0.5152750000000  0.5186310000000 1.0
C      1  0.4306060000000  0.4611520000000  0.5514860000000 1.0
C      1  0.4758060000000  0.5331720000000  0.4123640000000 1.0
C      1  0.4809460000000  0.5051770000000  0.5469570000000 1.0
C      1  0.4825400000000  0.5741500000000  0.5531870000000 1.0
C      1  0.4428350000000  0.4871750000000  0.5697390000000 1.0
C      1  0.3833140000000  0.4854180000000  0.4741200000000 1.0
C      1  0.4573380000000  0.5105410000000  0.4587350000000 1.0
C      1  0.5089290000000  0.5735880000000  0.4321720000000 1.0
C      1  0.5662850000000  0.4733780000000  0.5120750000000 1.0
C      1  0.4963920000000  0.5294470000000  0.5851290000000 1.0
C      1  0.4530230000000  0.4507660000000  0.4710930000000 1.0
C      1  0.5726400000000  0.5113350000000  0.5452200000000 1.0
C      1  0.5320930000000  0.4871350000000  0.4592770000000 1.0
C      1  0.4236050000000  0.5716940000000  0.5021560000000 1.0
C      1  0.5104850000000  0.5126860000000  0.4532420000000 1.0
C      1  0.4425510000000  0.5891750000000  0.5072580000000 1.0
C      1  0.4898450000000  0.4556850000000  0.5030130000000 1.0
C      1  0.4711360000000  0.5471860000000  0.5707990000000 1.0
C      1  0.5101510000000  0.4362380000000  0.5722820000000 1.0
C      1  0.5696000000000  0.5594810000000  0.4584680000000 1.0
C      1  0.3987080000000  0.5030770000000  0.4960540000000 1.0
C      1  0.4766860000000  0.5631470000000  0.4291880000000 1.0
C      1  0.5822460000000  0.5521040000000  0.4823880000000 1.0
C      1  0.4448530000000  0.4820930000000  0.4725690000000 1.0
C      1  0.5038640000000  0.4894340000000  0.5887880000000 1.0
C      1  0.5526600000000  0.4368550000000  0.5380670000000 1.0
C      1  0.5754820000000  0.4835410000000  0.5405350000000 1.0
C      1  0.4408880000000  0.5381550000000  0.5671080000000 1.0
C      1  0.5299570000000  0.4229950000000  0.5593820000000 1.0
C      1  0.5369250000000  0.5147200000000  0.4010770000000 1.0
C      1  0.5229560000000  0.5113710000000  0.5739320000000 1.0
C      1  0.5169140000000  0.4639090000000  0.5866870000000 1.0
C      1  0.4660410000000  0.4196220000000  0.4479360000000 1.0
C      1  0.5499270000000  0.4044020000000  0.5435580000000 1.0
C      1  0.4248920000000  0.5552010000000  0.5523370000000 1.0
C      1  0.5188300000000  0.4746900000000  0.4302730000000 1.0
C      1  0.5837400000000  0.4582650000000  0.4652620000000 1.0
C      1  0.5145180000000  0.5507770000000  0.5566770000000 1.0
C      1  0.5000590000000  0.4751830000000  0.4798470000000 1.0
C      1  0.5314430000000  0.4935790000000  0.5462210000000 1.0
C      1  0.5818030000000  0.5033770000000  0.4786080000000 1.0
C      1  0.5358750000000  0.4580330000000  0.4765040000000 1.0
C      1  0.5337180000000  0.4480320000000  0.4230140000000 1.0
C      1  0.4297200000000  0.4423660000000  0.5231450000000 1.0
C      1  0.4467820000000  0.4717200000000  0.5252970000000 1.0
C      1  0.5582540000000  0.5349990000000  0.4395170000000 1.0
C      1  0.4952910000000  0.5091570000000  0.5000860000000 1.0
C      1  0.5110210000000  0.4324010000000  0.5131240000000 1.0
C      1  0.4890170000000  0.5353070000000  0.5465140000000 1.0
C      1  0.5345830000000  0.5327930000000  0.4602690000000 1.0
C      1  0.5408650000000  0.4509380000000  0.5094330000000 1.0
C      1  0.5608130000000  0.3803970000000  0.5399860000000 1.0
C      1  0.5367520000000  0.5249060000000  0.5123670000000 1.0
C      1  0.4644740000000  0.6106860000000  0.5130790000000 1.0
C      1  0.4680490000000  0.5793630000000  0.5259510000000 1.0
C      1  0.5612500000000  0.4417950000000  0.4634110000000 1.0
C      1  0.4885020000000  0.5465200000000  0.4884390000000 1.0
C      1  0.4557740000000  0.4329180000000  0.5643930000000 1.0
C      1  0.4867750000000  0.4673490000000  0.4350160000000 1.0
C      1  0.4662970000000  0.4468670000000  0.5378890000000 1.0
C      1  0.5368370000000  0.5659790000000  0.5275220000000 1.0
C      1  0.5413870000000  0.4940140000000  0.5174670000000 1.0
C      1  0.5360650000000  0.4645810000000  0.5616170000000 1.0
C      1  0.4676800000000  0.4920120000000  0.4320490000000 1.0
C      1  0.5073660000000  0.5507180000000  0.4647960000000 1.0
END
