TITL C-2847949-8115-167 0.00602657033305052 125000 -966.970966612017 0 0 182 (C1) n - 1
REM
REM in /home/bkarasulu/work/CARBON/AIRSS/Generating-Clusters/AIREBO/with-SteepDescent/Only-C1/SD-CG-opt/Try1-1.4A-POS3A/HFTN-CG
REM
REM
REM
REM
REM
REM ./C.cell (11c1c37f851c82e70ff6c80c92926a4b)
REM
REM compiler GCC version 9.2.1 20190827 (Red Hat 9.2.1-1)
REM options -cpp -mtune=generic -march=x86-64 -g -O0 -fpre-include=/usr/include/finclude/math-vector-fortran.h
REM seed -453538615 -1824285961 -1285585556 -1121138125 1771932156 1143399349 1299134633 1354575599 -1350217042 -1590502722 -14834048 -421605799 1706485095 -264141569 -513868958 -1122967802 1675450789 1665575104 -1342622499 -785514806 -1507005276 -2104989491 -1792037080 750754778 -678775479 -955562722 1440638736 -1346891473 -188688251 843222840 453864095 -1674164419 -1629850601
REM
CELL 1.54180   50.00000   50.00000   50.00000   90.00000   90.00000   90.00000
LATT -1
SFAC C  
C      1  0.5002420000000  0.4464630000000  0.5127670000000 1.0
C      1  0.5482830000000  0.4650830000000  0.4608570000000 1.0
C      1  0.4305930000000  0.4964870000000  0.5736780000000 1.0
C      1  0.5222390000000  0.5437230000000  0.3930650000000 1.0
C      1  0.4897080000000  0.4674500000000  0.4621730000000 1.0
C      1  0.5416240000000  0.4831530000000  0.5545450000000 1.0
C      1  0.5205860000000  0.5767810000000  0.5007330000000 1.0
C      1  0.5660330000000  0.5028420000000  0.5883370000000 1.0
C      1  0.5465160000000  0.6074240000000  0.5216430000000 1.0
C      1  0.4554660000000  0.5640140000000  0.5329380000000 1.0
C      1  0.5567140000000  0.4295960000000  0.5147210000000 1.0
C      1  0.5700800000000  0.5779650000000  0.4810260000000 1.0
C      1  0.4627040000000  0.5302530000000  0.5952550000000 1.0
C      1  0.5673410000000  0.4720160000000  0.4333850000000 1.0
C      1  0.4963390000000  0.4955400000000  0.4287890000000 1.0
C      1  0.4916600000000  0.4901590000000  0.5054520000000 1.0
C      1  0.4468810000000  0.5672510000000  0.4249800000000 1.0
C      1  0.5692360000000  0.5649100000000  0.5597010000000 1.0
C      1  0.4735390000000  0.5359150000000  0.3913640000000 1.0
C      1  0.5661280000000  0.5498920000000  0.4621700000000 1.0
C      1  0.4982220000000  0.5317280000000  0.5654170000000 1.0
C      1  0.5992170000000  0.4818710000000  0.4552200000000 1.0
C      1  0.5650640000000  0.4168640000000  0.4843150000000 1.0
C      1  0.5598540000000  0.5339420000000  0.5515140000000 1.0
C      1  0.5033430000000  0.6059760000000  0.4981810000000 1.0
C      1  0.5285100000000  0.5005030000000  0.4913810000000 1.0
C      1  0.4681830000000  0.5463940000000  0.5591160000000 1.0
C      1  0.5003100000000  0.5210740000000  0.3983500000000 1.0
C      1  0.3869240000000  0.4782210000000  0.4886320000000 1.0
C      1  0.4493000000000  0.5431150000000  0.4101880000000 1.0
C      1  0.4222660000000  0.4675740000000  0.5597780000000 1.0
C      1  0.4634740000000  0.5893750000000  0.4333150000000 1.0
C      1  0.5539380000000  0.6048240000000  0.4695470000000 1.0
C      1  0.4553400000000  0.5157710000000  0.5664900000000 1.0
C      1  0.4486650000000  0.4673960000000  0.4076860000000 1.0
C      1  0.5192440000000  0.6089360000000  0.5261940000000 1.0
C      1  0.4980050000000  0.4515120000000  0.5461370000000 1.0
C      1  0.5160330000000  0.5505120000000  0.5188140000000 1.0
C      1  0.5428690000000  0.5066820000000  0.4344490000000 1.0
C      1  0.5827920000000  0.4952750000000  0.4139800000000 1.0
C      1  0.5194920000000  0.4746950000000  0.4350970000000 1.0
C      1  0.5469490000000  0.5613380000000  0.4365290000000 1.0
C      1  0.4909530000000  0.5321880000000  0.6044060000000 1.0
C      1  0.5315120000000  0.5368290000000  0.5701340000000 1.0
C      1  0.5800730000000  0.5181360000000  0.5707050000000 1.0
C      1  0.5128270000000  0.4290880000000  0.4276650000000 1.0
C      1  0.5657020000000  0.4284280000000  0.4571810000000 1.0
C      1  0.6065400000000  0.5158450000000  0.5625390000000 1.0
C      1  0.5712240000000  0.4644130000000  0.4823830000000 1.0
C      1  0.5090580000000  0.4840540000000  0.6168830000000 1.0
C      1  0.5359760000000  0.5449670000000  0.4771080000000 1.0
C      1  0.5343360000000  0.4486620000000  0.5922950000000 1.0
C      1  0.4807470000000  0.4116930000000  0.5674920000000 1.0
C      1  0.5442510000000  0.4309060000000  0.4406770000000 1.0
C      1  0.4100420000000  0.4564820000000  0.5008520000000 1.0
C      1  0.4137650000000  0.4286450000000  0.5192640000000 1.0
C      1  0.4630340000000  0.5107250000000  0.4573400000000 1.0
C      1  0.4778800000000  0.4974220000000  0.4005470000000 1.0
C      1  0.4809000000000  0.4638730000000  0.3965450000000 1.0
C      1  0.5295200000000  0.4545420000000  0.5591350000000 1.0
C      1  0.5380550000000  0.5284970000000  0.5067900000000 1.0
C      1  0.4382980000000  0.4935610000000  0.5189440000000 1.0
C      1  0.4736930000000  0.6026160000000  0.5065610000000 1.0
C      1  0.4267310000000  0.5706700000000  0.5301130000000 1.0
C      1  0.5409930000000  0.3960950000000  0.4864020000000 1.0
C      1  0.4245190000000  0.4913170000000  0.4877490000000 1.0
C      1  0.5313200000000  0.5628180000000  0.5473920000000 1.0
C      1  0.5101990000000  0.5070300000000  0.5502550000000 1.0
C      1  0.5912230000000  0.4917300000000  0.4867630000000 1.0
C      1  0.5260620000000  0.4202710000000  0.5830790000000 1.0
C      1  0.5379360000000  0.5557830000000  0.5976280000000 1.0
C      1  0.4927990000000  0.5593780000000  0.5395510000000 1.0
C      1  0.5110840000000  0.4585150000000  0.6090280000000 1.0
C      1  0.4156970000000  0.4414150000000  0.4708890000000 1.0
C      1  0.6017230000000  0.5396700000000  0.4771830000000 1.0
C      1  0.4596820000000  0.5816310000000  0.4837570000000 1.0
C      1  0.5363080000000  0.5047650000000  0.5803870000000 1.0
C      1  0.4587680000000  0.4782040000000  0.5793790000000 1.0
C      1  0.5299520000000  0.5059600000000  0.4029850000000 1.0
C      1  0.5830150000000  0.5024050000000  0.5179820000000 1.0
C      1  0.4886830000000  0.4833830000000  0.5386680000000 1.0
C      1  0.4661980000000  0.5440890000000  0.4624050000000 1.0
C      1  0.4787840000000  0.4266900000000  0.5011040000000 1.0
C      1  0.5820690000000  0.4488030000000  0.5531670000000 1.0
C      1  0.5774770000000  0.5222610000000  0.4162680000000 1.0
C      1  0.5859350000000  0.5394610000000  0.4365600000000 1.0
C      1  0.4104670000000  0.6020410000000  0.4908270000000 1.0
C      1  0.4046510000000  0.5335100000000  0.4493910000000 1.0
C      1  0.5772390000000  0.5202410000000  0.4745940000000 1.0
C      1  0.5171280000000  0.5478460000000  0.4264380000000 1.0
C      1  0.5013940000000  0.3770370000000  0.5160010000000 1.0
C      1  0.4918870000000  0.5358000000000  0.4999220000000 1.0
C      1  0.4332860000000  0.4596390000000  0.5882840000000 1.0
C      1  0.4869080000000  0.4918090000000  0.5715690000000 1.0
C      1  0.5119390000000  0.4525760000000  0.4030240000000 1.0
C      1  0.4420220000000  0.4642340000000  0.4922650000000 1.0
C      1  0.3957300000000  0.5079690000000  0.4938970000000 1.0
C      1  0.5209270000000  0.4033090000000  0.5404070000000 1.0
C      1  0.4395150000000  0.4215030000000  0.5381130000000 1.0
C      1  0.5118420000000  0.5948670000000  0.4372040000000 1.0
C      1  0.4835620000000  0.4155310000000  0.4338850000000 1.0
C      1  0.4065860000000  0.5123850000000  0.5739050000000 1.0
C      1  0.5129450000000  0.5196630000000  0.4408470000000 1.0
C      1  0.5387920000000  0.5117810000000  0.5366250000000 1.0
C      1  0.4427060000000  0.4316360000000  0.4693450000000 1.0
C      1  0.5692700000000  0.4988900000000  0.4541360000000 1.0
C      1  0.5858660000000  0.4541410000000  0.5801510000000 1.0
C      1  0.4886190000000  0.4961980000000  0.4721260000000 1.0
C      1  0.4593670000000  0.4391940000000  0.4339000000000 1.0
C      1  0.4877890000000  0.5591220000000  0.5838140000000 1.0
C      1  0.4829890000000  0.5875230000000  0.5655560000000 1.0
C      1  0.6072830000000  0.4718780000000  0.5092340000000 1.0
C      1  0.5764520000000  0.4794850000000  0.5980690000000 1.0
C      1  0.4310820000000  0.5151280000000  0.4472830000000 1.0
C      1  0.5924140000000  0.4659940000000  0.5315370000000 1.0
C      1  0.4540930000000  0.4256750000000  0.5645430000000 1.0
C      1  0.4121400000000  0.5614740000000  0.4628600000000 1.0
C      1  0.5852540000000  0.4518230000000  0.4540770000000 1.0
C      1  0.5093130000000  0.5885120000000  0.5454380000000 1.0
C      1  0.5620000000000  0.4517260000000  0.6015880000000 1.0
C      1  0.4528800000000  0.5338400000000  0.4908850000000 1.0
C      1  0.5870130000000  0.5577150000000  0.4970430000000 1.0
C      1  0.5181120000000  0.4695930000000  0.4994990000000 1.0
C      1  0.4037200000000  0.5288400000000  0.5479700000000 1.0
C      1  0.5502480000000  0.5861490000000  0.5043040000000 1.0
C      1  0.5110860000000  0.4228640000000  0.4610630000000 1.0
C      1  0.4060670000000  0.4729190000000  0.5303660000000 1.0
C      1  0.5520800000000  0.5317380000000  0.4049370000000 1.0
C      1  0.4293440000000  0.5799770000000  0.4990640000000 1.0
C      1  0.4943250000000  0.5553820000000  0.4505140000000 1.0
C      1  0.4710340000000  0.5918270000000  0.5339830000000 1.0
C      1  0.4811320000000  0.4205910000000  0.4699830000000 1.0
C      1  0.5667360000000  0.5412740000000  0.5190330000000 1.0
C      1  0.4554580000000  0.4091640000000  0.4509710000000 1.0
C      1  0.4300110000000  0.4509330000000  0.4264230000000 1.0
C      1  0.5457980000000  0.5651520000000  0.4046550000000 1.0
C      1  0.4201540000000  0.5211680000000  0.4149400000000 1.0
C      1  0.4804210000000  0.4002430000000  0.5185090000000 1.0
C      1  0.4417930000000  0.5672760000000  0.4586140000000 1.0
C      1  0.5231170000000  0.3972850000000  0.4660820000000 1.0
C      1  0.5173890000000  0.4540420000000  0.4692660000000 1.0
C      1  0.3995480000000  0.5439340000000  0.5190940000000 1.0
C      1  0.5501900000000  0.4610020000000  0.5073020000000 1.0
C      1  0.4892690000000  0.4432760000000  0.6006650000000 1.0
C      1  0.4565360000000  0.4887310000000  0.4329650000000 1.0
C      1  0.5410890000000  0.4559630000000  0.4202120000000 1.0
C      1  0.4612690000000  0.5033490000000  0.4977720000000 1.0
C      1  0.5231920000000  0.6026300000000  0.4707620000000 1.0
C      1  0.4810090000000  0.4652370000000  0.4306760000000 1.0
C      1  0.5464660000000  0.5734710000000  0.5757320000000 1.0
C      1  0.5624210000000  0.4802000000000  0.5299890000000 1.0
C      1  0.5063100000000  0.5057940000000  0.5947140000000 1.0
C      1  0.4381810000000  0.5563210000000  0.5717000000000 1.0
C      1  0.5639090000000  0.3959110000000  0.5115220000000 1.0
C      1  0.4977560000000  0.4176760000000  0.5889420000000 1.0
C      1  0.4636930000000  0.5064470000000  0.5375420000000 1.0
C      1  0.3986350000000  0.5352880000000  0.4806530000000 1.0
C      1  0.5235130000000  0.5709520000000  0.4583800000000 1.0
C      1  0.5381570000000  0.4138720000000  0.5592580000000 1.0
C      1  0.4384330000000  0.4620770000000  0.5317830000000 1.0
C      1  0.4783490000000  0.5830400000000  0.4553670000000 1.0
C      1  0.6103410000000  0.5111620000000  0.5362610000000 1.0
C      1  0.4671360000000  0.5346340000000  0.5211220000000 1.0
C      1  0.4880580000000  0.5670520000000  0.4955500000000 1.0
C      1  0.4945650000000  0.4179800000000  0.5414930000000 1.0
C      1  0.4129580000000  0.4876910000000  0.4559400000000 1.0
C      1  0.4070900000000  0.5054660000000  0.5253090000000 1.0
C      1  0.4241540000000  0.5476380000000  0.4979870000000 1.0
C      1  0.5553270000000  0.4364750000000  0.5458980000000 1.0
C      1  0.3955770000000  0.5061110000000  0.4329840000000 1.0
C      1  0.4137860000000  0.4585630000000  0.4482120000000 1.0
C      1  0.4626120000000  0.4551320000000  0.4706910000000 1.0
C      1  0.4497990000000  0.5091330000000  0.4091380000000 1.0
C      1  0.5978420000000  0.5329630000000  0.5163880000000 1.0
C      1  0.4754260000000  0.4510120000000  0.5722860000000 1.0
C      1  0.4511260000000  0.3936610000000  0.5267700000000 1.0
C      1  0.5097760000000  0.5227480000000  0.4740890000000 1.0
C      1  0.4517660000000  0.4396650000000  0.5121070000000 1.0
C      1  0.4173340000000  0.5568890000000  0.5531240000000 1.0
C      1  0.5308880000000  0.4909950000000  0.4620480000000 1.0
C      1  0.5285080000000  0.4790740000000  0.3905880000000 1.0
C      1  0.5311860000000  0.3882550000000  0.5159730000000 1.0
END
