TITL C-2847953-8112-741 -0.0192309191891361 125000 -769.619834073136 0 0 141 (C1) n - 1
REM
REM in /home/bkarasulu/work/CARBON/AIRSS/Generating-Clusters/AIREBO/with-SteepDescent/Only-C1/SD-CG-opt/Try1-1.4A-POS3A/HFTN-CG
REM
REM
REM
REM
REM
REM ./C.cell (11c1c37f851c82e70ff6c80c92926a4b)
REM
REM compiler GCC version 9.2.1 20190827 (Red Hat 9.2.1-1)
REM options -cpp -mtune=generic -march=x86-64 -g -O0 -fpre-include=/usr/include/finclude/math-vector-fortran.h
REM seed 989823914 487788227 1711540523 1433797408 -682259145 2085906882 -2105187535 2012582884 1565199289 536475404 1906865325 1072956321 1487050778 1341997549 -217921011 229751380 -1958301933 2138904053 -18144123 568449358 189824005 40999032 -1281055997 1529077251 -1144504747 1321231761 -210508127 -786924473 -596074092 -1312551364 -110652602 -1807618001 1353437848
REM
CELL 1.54180   50.00000   50.00000   50.00000   90.00000   90.00000   90.00000
LATT -1
SFAC C  
C      1  0.5568090000000  0.5441200000000  0.5664250000000 1.0
C      1  0.4715250000000  0.4190110000000  0.5524100000000 1.0
C      1  0.4622380000000  0.4681780000000  0.6073100000000 1.0
C      1  0.4639940000000  0.4108830000000  0.4884350000000 1.0
C      1  0.4896480000000  0.4387170000000  0.5316230000000 1.0
C      1  0.4369520000000  0.4527030000000  0.5538170000000 1.0
C      1  0.5516010000000  0.4456060000000  0.5222850000000 1.0
C      1  0.5161080000000  0.5335680000000  0.4788180000000 1.0
C      1  0.5306430000000  0.5325750000000  0.5089800000000 1.0
C      1  0.5356690000000  0.5763950000000  0.5146380000000 1.0
C      1  0.5405610000000  0.4308020000000  0.5504080000000 1.0
C      1  0.5159520000000  0.6280930000000  0.5197070000000 1.0
C      1  0.4097370000000  0.5409340000000  0.5637510000000 1.0
C      1  0.5483160000000  0.4379480000000  0.4923380000000 1.0
C      1  0.5726590000000  0.4222600000000  0.4824090000000 1.0
C      1  0.4606550000000  0.5330730000000  0.4791100000000 1.0
C      1  0.4666870000000  0.5092950000000  0.4585720000000 1.0
C      1  0.4611600000000  0.4959890000000  0.5132440000000 1.0
C      1  0.5041790000000  0.5201690000000  0.4070160000000 1.0
C      1  0.4080110000000  0.5222720000000  0.4746180000000 1.0
C      1  0.5247290000000  0.5132130000000  0.5523090000000 1.0
C      1  0.4110700000000  0.4632410000000  0.4889740000000 1.0
C      1  0.5961370000000  0.5205550000000  0.5235790000000 1.0
C      1  0.4320360000000  0.5266980000000  0.5570740000000 1.0
C      1  0.5544250000000  0.5423740000000  0.4867320000000 1.0
C      1  0.5130610000000  0.5994760000000  0.5112200000000 1.0
C      1  0.4822330000000  0.5479350000000  0.5002860000000 1.0
C      1  0.4873710000000  0.5845710000000  0.5583580000000 1.0
C      1  0.5469850000000  0.5296600000000  0.5372500000000 1.0
C      1  0.4806330000000  0.4885190000000  0.6234410000000 1.0
C      1  0.4921200000000  0.4264370000000  0.4999410000000 1.0
C      1  0.4555850000000  0.4638230000000  0.4129510000000 1.0
C      1  0.4427080000000  0.4279000000000  0.4811340000000 1.0
C      1  0.4482410000000  0.5094820000000  0.4333930000000 1.0
C      1  0.5295780000000  0.5025680000000  0.4825820000000 1.0
C      1  0.4192750000000  0.5323670000000  0.4479240000000 1.0
C      1  0.5695170000000  0.5334920000000  0.4348000000000 1.0
C      1  0.5024470000000  0.4730920000000  0.5160900000000 1.0
C      1  0.5273340000000  0.4515380000000  0.5943570000000 1.0
C      1  0.5242840000000  0.4178870000000  0.4980840000000 1.0
C      1  0.4993240000000  0.5313460000000  0.4522250000000 1.0
C      1  0.4528530000000  0.5152720000000  0.5771360000000 1.0
C      1  0.5302690000000  0.4834600000000  0.5624210000000 1.0
C      1  0.5289450000000  0.4900780000000  0.5289500000000 1.0
C      1  0.4067980000000  0.4674830000000  0.5483670000000 1.0
C      1  0.4959260000000  0.5777870000000  0.5289610000000 1.0
C      1  0.4616700000000  0.5497890000000  0.5273100000000 1.0
C      1  0.5525150000000  0.4933570000000  0.5941130000000 1.0
C      1  0.4569510000000  0.4355970000000  0.4324770000000 1.0
C      1  0.5113710000000  0.4222240000000  0.4484120000000 1.0
C      1  0.5212570000000  0.5538760000000  0.4428890000000 1.0
C      1  0.4427870000000  0.5220820000000  0.5251280000000 1.0
C      1  0.5115160000000  0.5638670000000  0.4935730000000 1.0
C      1  0.4365760000000  0.4382320000000  0.4538120000000 1.0
C      1  0.5995920000000  0.4992370000000  0.5422390000000 1.0
C      1  0.5615050000000  0.4518610000000  0.4326260000000 1.0
C      1  0.4945730000000  0.4917630000000  0.4670690000000 1.0
C      1  0.4991830000000  0.4854840000000  0.5761890000000 1.0
C      1  0.5496790000000  0.5005510000000  0.4083960000000 1.0
C      1  0.5785550000000  0.5407450000000  0.5311750000000 1.0
C      1  0.4428840000000  0.5747310000000  0.5197960000000 1.0
C      1  0.5135040000000  0.5697730000000  0.3942850000000 1.0
C      1  0.4753850000000  0.5054360000000  0.5425420000000 1.0
C      1  0.5540350000000  0.5415920000000  0.4089490000000 1.0
C      1  0.4211620000000  0.4997450000000  0.4443430000000 1.0
C      1  0.5692160000000  0.5142110000000  0.4947590000000 1.0
C      1  0.4265720000000  0.4878950000000  0.5642850000000 1.0
C      1  0.4757240000000  0.5133420000000  0.3944420000000 1.0
C      1  0.4845870000000  0.4747500000000  0.4260340000000 1.0
C      1  0.4905470000000  0.4457640000000  0.4728740000000 1.0
C      1  0.4591180000000  0.4784600000000  0.5553810000000 1.0
C      1  0.5281530000000  0.4781510000000  0.4340480000000 1.0
C      1  0.4833560000000  0.5627510000000  0.5745540000000 1.0
C      1  0.4646240000000  0.4596460000000  0.4725270000000 1.0
C      1  0.5103950000000  0.4721310000000  0.4067500000000 1.0
C      1  0.5320510000000  0.4775960000000  0.6072060000000 1.0
C      1  0.5563800000000  0.4930390000000  0.4408850000000 1.0
C      1  0.4386210000000  0.5517770000000  0.4514810000000 1.0
C      1  0.5850730000000  0.5214850000000  0.4630610000000 1.0
C      1  0.6028590000000  0.5182020000000  0.4918560000000 1.0
C      1  0.5116420000000  0.4061350000000  0.4716080000000 1.0
C      1  0.4699550000000  0.4638230000000  0.5198790000000 1.0
C      1  0.4865840000000  0.4593070000000  0.5585200000000 1.0
C      1  0.4299900000000  0.4905780000000  0.5262020000000 1.0
C      1  0.5212120000000  0.4513600000000  0.5329710000000 1.0
C      1  0.5875030000000  0.5046580000000  0.4336120000000 1.0
C      1  0.4709700000000  0.5480830000000  0.4503990000000 1.0
C      1  0.5237390000000  0.4975760000000  0.3994210000000 1.0
C      1  0.4044940000000  0.5450020000000  0.4992620000000 1.0
C      1  0.5510760000000  0.5197560000000  0.5895030000000 1.0
C      1  0.4865250000000  0.3936770000000  0.4777040000000 1.0
C      1  0.4929060000000  0.5207890000000  0.5177600000000 1.0
C      1  0.4708520000000  0.5358950000000  0.5569640000000 1.0
C      1  0.4424400000000  0.4478730000000  0.5232360000000 1.0
C      1  0.4825100000000  0.4303600000000  0.4434680000000 1.0
C      1  0.5303670000000  0.4469120000000  0.4439210000000 1.0
C      1  0.5739090000000  0.4775370000000  0.4162070000000 1.0
C      1  0.4351360000000  0.5311130000000  0.4943110000000 1.0
C      1  0.5052070000000  0.5940650000000  0.4794630000000 1.0
C      1  0.4709590000000  0.5736730000000  0.4811170000000 1.0
C      1  0.5088930000000  0.5482000000000  0.5299910000000 1.0
C      1  0.5346770000000  0.4078770000000  0.5265780000000 1.0
C      1  0.5042080000000  0.5332510000000  0.5577560000000 1.0
C      1  0.5065730000000  0.4907060000000  0.6090060000000 1.0
C      1  0.5400110000000  0.4707530000000  0.4885990000000 1.0
C      1  0.5797860000000  0.4500110000000  0.4561460000000 1.0
C      1  0.4257890000000  0.5697340000000  0.4975760000000 1.0
C      1  0.5620330000000  0.4744070000000  0.5705030000000 1.0
C      1  0.5649360000000  0.4732240000000  0.4661050000000 1.0
C      1  0.5143000000000  0.4640960000000  0.4684910000000 1.0
C      1  0.3992410000000  0.4791050000000  0.5173130000000 1.0
C      1  0.4710710000000  0.5206300000000  0.3683620000000 1.0
C      1  0.4272800000000  0.4920790000000  0.4923420000000 1.0
C      1  0.5697920000000  0.4686160000000  0.5252200000000 1.0
C      1  0.4569820000000  0.4976880000000  0.4093040000000 1.0
C      1  0.4267050000000  0.4390110000000  0.5013930000000 1.0
C      1  0.5818170000000  0.4780860000000  0.5485240000000 1.0
C      1  0.5024200000000  0.4992430000000  0.4992960000000 1.0
C      1  0.4027970000000  0.5112460000000  0.5061310000000 1.0
C      1  0.5563520000000  0.4915700000000  0.5099540000000 1.0
C      1  0.4561560000000  0.4340960000000  0.5702290000000 1.0
C      1  0.5356300000000  0.5475530000000  0.5920200000000 1.0
C      1  0.5027410000000  0.5018520000000  0.4356340000000 1.0
C      1  0.4955740000000  0.5706600000000  0.4575400000000 1.0
C      1  0.4714200000000  0.4975860000000  0.5919910000000 1.0
C      1  0.5599680000000  0.5684080000000  0.4986750000000 1.0
C      1  0.5455040000000  0.5140710000000  0.4600430000000 1.0
C      1  0.5532950000000  0.5630720000000  0.5377210000000 1.0
C      1  0.5664890000000  0.5482870000000  0.3868690000000 1.0
C      1  0.6301160000000  0.5177980000000  0.4869370000000 1.0
C      1  0.4711840000000  0.5848150000000  0.5109910000000 1.0
C      1  0.4411710000000  0.5701490000000  0.4736780000000 1.0
C      1  0.4258730000000  0.4700890000000  0.4590640000000 1.0
C      1  0.5097110000000  0.5500020000000  0.5841860000000 1.0
C      1  0.5006540000000  0.4470030000000  0.5869230000000 1.0
C      1  0.4575260000000  0.4896050000000  0.4818650000000 1.0
C      1  0.5222010000000  0.5463350000000  0.4121030000000 1.0
C      1  0.5470880000000  0.5446620000000  0.4561100000000 1.0
C      1  0.4570520000000  0.4728300000000  0.4457580000000 1.0
C      1  0.5476440000000  0.4459470000000  0.5753220000000 1.0
C      1  0.4704000000000  0.4454900000000  0.5923070000000 1.0
END
