TITL C-2847952-8118-257 0.00222033858153802 125000 -993.492389356672 0 0 185 (C1) n - 1
REM
REM in /home/bkarasulu/work/CARBON/AIRSS/Generating-Clusters/AIREBO/with-SteepDescent/Only-C1/SD-CG-opt/Try1-1.4A-POS3A/HFTN-CG
REM
REM
REM
REM
REM
REM ./C.cell (11c1c37f851c82e70ff6c80c92926a4b)
REM
REM compiler GCC version 9.2.1 20190827 (Red Hat 9.2.1-1)
REM options -cpp -mtune=generic -march=x86-64 -g -O0 -fpre-include=/usr/include/finclude/math-vector-fortran.h
REM seed 1161694008 1839123159 -442648024 748497507 -767303522 158312792 -1710453052 -1805646751 684299629 98195082 851448460 -164918146 646827292 -482485938 2061625755 -1039661232 -1820000533 1779334637 1848599810 704808905 -1434441524 800271360 -1979347001 1109110386 1596175644 1016902119 1334518449 1947128894 1436145252 1117695299 231227605 407864617 810804010
REM
CELL 1.54180   50.00000   50.00000   50.00000   90.00000   90.00000   90.00000
LATT -1
SFAC C  
C      1  0.4521690000000  0.4938530000000  0.4257740000000 1.0
C      1  0.5200010000000  0.5709120000000  0.4722250000000 1.0
C      1  0.4209890000000  0.4587660000000  0.4484640000000 1.0
C      1  0.4465740000000  0.5152140000000  0.4793460000000 1.0
C      1  0.5040910000000  0.4495330000000  0.4556760000000 1.0
C      1  0.4947920000000  0.4222820000000  0.5655520000000 1.0
C      1  0.6110380000000  0.5355240000000  0.4489350000000 1.0
C      1  0.5135820000000  0.4479060000000  0.5753640000000 1.0
C      1  0.4977500000000  0.4567550000000  0.5465550000000 1.0
C      1  0.5900250000000  0.5144880000000  0.4324250000000 1.0
C      1  0.4595300000000  0.4068050000000  0.5378000000000 1.0
C      1  0.4296890000000  0.5268290000000  0.5327660000000 1.0
C      1  0.4831090000000  0.5789160000000  0.5399670000000 1.0
C      1  0.5298480000000  0.5548470000000  0.5941520000000 1.0
C      1  0.4983770000000  0.6009430000000  0.5234980000000 1.0
C      1  0.5117560000000  0.4325890000000  0.5181010000000 1.0
C      1  0.4316500000000  0.5879560000000  0.5269020000000 1.0
C      1  0.4461650000000  0.4288920000000  0.5168360000000 1.0
C      1  0.5074400000000  0.4098580000000  0.5385170000000 1.0
C      1  0.5593150000000  0.4239220000000  0.4579010000000 1.0
C      1  0.5392340000000  0.4302350000000  0.5718880000000 1.0
C      1  0.5338590000000  0.5546910000000  0.4385220000000 1.0
C      1  0.5026190000000  0.5743790000000  0.5854250000000 1.0
C      1  0.4816000000000  0.3998440000000  0.4419480000000 1.0
C      1  0.4916160000000  0.5580240000000  0.4661370000000 1.0
C      1  0.4427320000000  0.5678840000000  0.4415250000000 1.0
C      1  0.5097420000000  0.5682740000000  0.4236210000000 1.0
C      1  0.5736040000000  0.5637680000000  0.4839840000000 1.0
C      1  0.4172220000000  0.5291510000000  0.4320630000000 1.0
C      1  0.4749770000000  0.4752060000000  0.4386020000000 1.0
C      1  0.5590140000000  0.4429130000000  0.5496100000000 1.0
C      1  0.4459290000000  0.4675410000000  0.4647970000000 1.0
C      1  0.5314400000000  0.4710630000000  0.5911870000000 1.0
C      1  0.5363990000000  0.4879800000000  0.5293530000000 1.0
C      1  0.5359840000000  0.5240100000000  0.6073050000000 1.0
C      1  0.4962020000000  0.4981860000000  0.5744010000000 1.0
C      1  0.4910500000000  0.5156510000000  0.4110070000000 1.0
C      1  0.6003830000000  0.4462370000000  0.5146240000000 1.0
C      1  0.5679930000000  0.5905750000000  0.5915070000000 1.0
C      1  0.4146600000000  0.5756870000000  0.4801250000000 1.0
C      1  0.4617210000000  0.4623160000000  0.5849320000000 1.0
C      1  0.6256780000000  0.4914790000000  0.5220030000000 1.0
C      1  0.3997740000000  0.4269400000000  0.4863600000000 1.0
C      1  0.4742240000000  0.5101510000000  0.5552500000000 1.0
C      1  0.5201850000000  0.4853500000000  0.4629800000000 1.0
C      1  0.5904100000000  0.5028900000000  0.4829340000000 1.0
C      1  0.5438760000000  0.5485060000000  0.5315050000000 1.0
C      1  0.4870990000000  0.6057710000000  0.4943570000000 1.0
C      1  0.5604750000000  0.4754180000000  0.5400620000000 1.0
C      1  0.5204710000000  0.4952910000000  0.6059290000000 1.0
C      1  0.4415940000000  0.4962950000000  0.5895660000000 1.0
C      1  0.4248120000000  0.4749610000000  0.4244360000000 1.0
C      1  0.5085900000000  0.5351830000000  0.5808770000000 1.0
C      1  0.4810150000000  0.3885010000000  0.5006780000000 1.0
C      1  0.4716570000000  0.4492170000000  0.4603000000000 1.0
C      1  0.4852320000000  0.5226650000000  0.3607340000000 1.0
C      1  0.4566120000000  0.3989540000000  0.4593550000000 1.0
C      1  0.4705620000000  0.5629700000000  0.4899380000000 1.0
C      1  0.4215470000000  0.5195490000000  0.4638870000000 1.0
C      1  0.5997300000000  0.4748520000000  0.5337570000000 1.0
C      1  0.4296070000000  0.5672120000000  0.5603630000000 1.0
C      1  0.5112670000000  0.4022580000000  0.4536470000000 1.0
C      1  0.4626920000000  0.4832680000000  0.6072250000000 1.0
C      1  0.4825760000000  0.3942200000000  0.5279310000000 1.0
C      1  0.3992910000000  0.4591820000000  0.4742270000000 1.0
C      1  0.5978380000000  0.4571940000000  0.4863510000000 1.0
C      1  0.4302790000000  0.4346220000000  0.4805450000000 1.0
C      1  0.5654280000000  0.5250570000000  0.4896950000000 1.0
C      1  0.5482960000000  0.5941520000000  0.4880470000000 1.0
C      1  0.5122020000000  0.4403810000000  0.4874010000000 1.0
C      1  0.4362050000000  0.4610850000000  0.4955980000000 1.0
C      1  0.5510010000000  0.4527930000000  0.4317010000000 1.0
C      1  0.5076840000000  0.4827320000000  0.5350880000000 1.0
C      1  0.5555320000000  0.3758410000000  0.4987290000000 1.0
C      1  0.4086020000000  0.5696620000000  0.5383990000000 1.0
C      1  0.4824880000000  0.5343540000000  0.5981840000000 1.0
C      1  0.4864400000000  0.5570680000000  0.5163440000000 1.0
C      1  0.5592100000000  0.5036060000000  0.5697310000000 1.0
C      1  0.5205530000000  0.4426210000000  0.3976690000000 1.0
C      1  0.4197040000000  0.5527910000000  0.4563760000000 1.0
C      1  0.4054960000000  0.4991790000000  0.5603660000000 1.0
C      1  0.4683570000000  0.4375360000000  0.4923130000000 1.0
C      1  0.4376540000000  0.5545760000000  0.4920620000000 1.0
C      1  0.4142880000000  0.5016500000000  0.5014020000000 1.0
C      1  0.5954550000000  0.4625360000000  0.4589180000000 1.0
C      1  0.5374660000000  0.5258510000000  0.4561660000000 1.0
C      1  0.5259400000000  0.5107440000000  0.5691920000000 1.0
C      1  0.4014880000000  0.5416420000000  0.5288370000000 1.0
C      1  0.4381750000000  0.4294900000000  0.4508410000000 1.0
C      1  0.5443330000000  0.5514930000000  0.4860140000000 1.0
C      1  0.4346810000000  0.4949140000000  0.5277760000000 1.0
C      1  0.4492850000000  0.4952940000000  0.5584820000000 1.0
C      1  0.4640390000000  0.4803970000000  0.5185890000000 1.0
C      1  0.3919240000000  0.4751280000000  0.5033530000000 1.0
C      1  0.6147300000000  0.5112680000000  0.5051690000000 1.0
C      1  0.4727240000000  0.5739510000000  0.5781480000000 1.0
C      1  0.4189650000000  0.4369890000000  0.5356170000000 1.0
C      1  0.3864580000000  0.5216490000000  0.4815940000000 1.0
C      1  0.5502860000000  0.5342190000000  0.4053030000000 1.0
C      1  0.4719460000000  0.5238810000000  0.4602210000000 1.0
C      1  0.5816460000000  0.5017110000000  0.5442430000000 1.0
C      1  0.5898970000000  0.5299210000000  0.5613490000000 1.0
C      1  0.5752550000000  0.4925910000000  0.4110070000000 1.0
C      1  0.4966910000000  0.4849330000000  0.4173270000000 1.0
C      1  0.5752610000000  0.5323980000000  0.4075590000000 1.0
C      1  0.4323420000000  0.5933070000000  0.4999180000000 1.0
C      1  0.5755040000000  0.5531370000000  0.5554790000000 1.0
C      1  0.5381000000000  0.4129540000000  0.4418830000000 1.0
C      1  0.5362100000000  0.4283300000000  0.4168830000000 1.0
C      1  0.4660250000000  0.4275270000000  0.4347220000000 1.0
C      1  0.4536410000000  0.5305950000000  0.5089280000000 1.0
C      1  0.5071240000000  0.5298790000000  0.5364170000000 1.0
C      1  0.5045440000000  0.5577800000000  0.5557960000000 1.0
C      1  0.5817300000000  0.4801410000000  0.5053860000000 1.0
C      1  0.5967040000000  0.5488140000000  0.5007140000000 1.0
C      1  0.4219950000000  0.5160480000000  0.5778350000000 1.0
C      1  0.4642880000000  0.5254510000000  0.4294550000000 1.0
C      1  0.4908450000000  0.4970650000000  0.4549810000000 1.0
C      1  0.5200250000000  0.4695780000000  0.4030520000000 1.0
C      1  0.5395170000000  0.3967260000000  0.4976050000000 1.0
C      1  0.5060400000000  0.6005620000000  0.4745270000000 1.0
C      1  0.4658540000000  0.4298860000000  0.5587650000000 1.0
C      1  0.5209240000000  0.5292090000000  0.4200450000000 1.0
C      1  0.5619900000000  0.5178690000000  0.5980320000000 1.0
C      1  0.4529490000000  0.4878410000000  0.4875530000000 1.0
C      1  0.5852050000000  0.5217790000000  0.5172550000000 1.0
C      1  0.5392370000000  0.4162710000000  0.5419270000000 1.0
C      1  0.4265560000000  0.4081180000000  0.4983880000000 1.0
C      1  0.5525300000000  0.4758870000000  0.4949380000000 1.0
C      1  0.4543060000000  0.4543040000000  0.5381120000000 1.0
C      1  0.4573940000000  0.5536700000000  0.4227330000000 1.0
C      1  0.5739940000000  0.5595330000000  0.4527320000000 1.0
C      1  0.4682590000000  0.5387400000000  0.5385340000000 1.0
C      1  0.5287000000000  0.5986570000000  0.5388390000000 1.0
C      1  0.6117470000000  0.5475010000000  0.4709490000000 1.0
C      1  0.4548180000000  0.5871980000000  0.5523180000000 1.0
C      1  0.4103850000000  0.5353340000000  0.4988910000000 1.0
C      1  0.5929050000000  0.4905910000000  0.4553840000000 1.0
C      1  0.5483970000000  0.4796000000000  0.4161590000000 1.0
C      1  0.4451710000000  0.5150650000000  0.3877290000000 1.0
C      1  0.4628040000000  0.5486520000000  0.5856590000000 1.0
C      1  0.5480090000000  0.5791960000000  0.4574930000000 1.0
C      1  0.4831380000000  0.5768570000000  0.4425640000000 1.0
C      1  0.5389140000000  0.5049110000000  0.4829190000000 1.0
C      1  0.5829270000000  0.4257350000000  0.5191080000000 1.0
C      1  0.5797820000000  0.4442910000000  0.4440340000000 1.0
C      1  0.5247290000000  0.4971890000000  0.4314160000000 1.0
C      1  0.4657140000000  0.4340020000000  0.4076880000000 1.0
C      1  0.5254390000000  0.5889740000000  0.5073660000000 1.0
C      1  0.4804960000000  0.5677810000000  0.4099890000000 1.0
C      1  0.5056620000000  0.5279790000000  0.4585580000000 1.0
C      1  0.5752940000000  0.5883320000000  0.5056350000000 1.0
C      1  0.4828900000000  0.5254220000000  0.4923770000000 1.0
C      1  0.4574290000000  0.5897780000000  0.4556150000000 1.0
C      1  0.4152790000000  0.4672340000000  0.5536350000000 1.0
C      1  0.5660850000000  0.5324960000000  0.4464350000000 1.0
C      1  0.5358190000000  0.4562370000000  0.4577700000000 1.0
C      1  0.4014650000000  0.4930420000000  0.4709880000000 1.0
C      1  0.3897410000000  0.5148430000000  0.5440360000000 1.0
C      1  0.4298620000000  0.5140380000000  0.4128140000000 1.0
C      1  0.4869400000000  0.4556170000000  0.5143150000000 1.0
C      1  0.4558400000000  0.3946990000000  0.4873320000000 1.0
C      1  0.5036770000000  0.4709770000000  0.4890150000000 1.0
C      1  0.5516510000000  0.4441020000000  0.4828520000000 1.0
C      1  0.4821590000000  0.4710740000000  0.5681420000000 1.0
C      1  0.5579310000000  0.4738110000000  0.5795160000000 1.0
C      1  0.4910800000000  0.4181040000000  0.4760300000000 1.0
C      1  0.5200710000000  0.5562670000000  0.5093610000000 1.0
C      1  0.5739610000000  0.5595450000000  0.5236990000000 1.0
C      1  0.4729870000000  0.5204360000000  0.3852110000000 1.0
C      1  0.5347250000000  0.5710280000000  0.5521640000000 1.0
C      1  0.4892020000000  0.4957590000000  0.6060510000000 1.0
C      1  0.4861160000000  0.5050130000000  0.5265660000000 1.0
C      1  0.5549240000000  0.5673240000000  0.5769240000000 1.0
C      1  0.5162580000000  0.5255890000000  0.4976090000000 1.0
C      1  0.4180360000000  0.4663690000000  0.5197570000000 1.0
C      1  0.4597470000000  0.5934400000000  0.4869170000000 1.0
C      1  0.5841910000000  0.4619730000000  0.5611440000000 1.0
C      1  0.5114310000000  0.3934260000000  0.4862960000000 1.0
C      1  0.5361900000000  0.5176910000000  0.5388680000000 1.0
C      1  0.4431390000000  0.5377470000000  0.5619960000000 1.0
C      1  0.5505350000000  0.4257640000000  0.5114670000000 1.0
C      1  0.4995000000000  0.4986540000000  0.4959640000000 1.0
C      1  0.4389780000000  0.4476610000000  0.5681880000000 1.0
C      1  0.5345520000000  0.4566090000000  0.5163290000000 1.0
END
