TITL C-2847950-6905-24 -0.00130963809276051 125000 -885.271110423774 0 0 161 (C1) n - 1
REM
REM in /home/bkarasulu/work/CARBON/AIRSS/Generating-Clusters/AIREBO/with-SteepDescent/Only-C1/SD-CG-opt/Try1-1.4A-POS3A/HFTN-CG
REM
REM
REM
REM
REM
REM ./C.cell (11c1c37f851c82e70ff6c80c92926a4b)
REM
REM compiler GCC version 9.2.1 20190827 (Red Hat 9.2.1-1)
REM options -cpp -mtune=generic -march=x86-64 -g -O0 -fpre-include=/usr/include/finclude/math-vector-fortran.h
REM seed 227745041 -341734490 -1122229338 -1839949532 1804902301 571660475 1445467415 474509358 -1069797128 1925228550 1402759823 757957012 -1364105292 387824942 24891979 1266706359 -70770174 681561064 -1897231568 1167958940 407157721 -1339587506 -1941202203 45135664 -2146100844 -1347000695 -1579017004 1288950016 -2068952194 -1872068462 537085219 2098722124 1785893165
REM
CELL 1.54180   50.00000   50.00000   50.00000   90.00000   90.00000   90.00000
LATT -1
SFAC C  
C      1  0.5979600000000  0.4525710000000  0.5320360000000 1.0
C      1  0.5598270000000  0.4614870000000  0.4349970000000 1.0
C      1  0.4308750000000  0.4944790000000  0.4925460000000 1.0
C      1  0.4374400000000  0.5003940000000  0.5245910000000 1.0
C      1  0.5818410000000  0.5195090000000  0.4411800000000 1.0
C      1  0.5542970000000  0.4329540000000  0.5521290000000 1.0
C      1  0.5788440000000  0.4752450000000  0.5479080000000 1.0
C      1  0.4865700000000  0.5978920000000  0.4911770000000 1.0
C      1  0.4440140000000  0.5072460000000  0.5637790000000 1.0
C      1  0.5987840000000  0.4712000000000  0.4537920000000 1.0
C      1  0.4695070000000  0.4565820000000  0.4643070000000 1.0
C      1  0.4826630000000  0.4102980000000  0.5887410000000 1.0
C      1  0.5364690000000  0.5634130000000  0.4131550000000 1.0
C      1  0.5415200000000  0.5415380000000  0.4582080000000 1.0
C      1  0.5328320000000  0.5041250000000  0.3995000000000 1.0
C      1  0.4887150000000  0.4126420000000  0.4772520000000 1.0
C      1  0.5238830000000  0.4946250000000  0.6002160000000 1.0
C      1  0.4579790000000  0.4383590000000  0.5749470000000 1.0
C      1  0.4280260000000  0.4441360000000  0.5749390000000 1.0
C      1  0.5379140000000  0.4682840000000  0.5837310000000 1.0
C      1  0.4254010000000  0.5282890000000  0.4440610000000 1.0
C      1  0.6061750000000  0.5423700000000  0.5115710000000 1.0
C      1  0.5146190000000  0.5854020000000  0.4225330000000 1.0
C      1  0.5103330000000  0.5520320000000  0.4013770000000 1.0
C      1  0.5328050000000  0.6092700000000  0.5002500000000 1.0
C      1  0.4815870000000  0.5313900000000  0.5032810000000 1.0
C      1  0.5472750000000  0.3915510000000  0.5135700000000 1.0
C      1  0.5302840000000  0.5871450000000  0.5503630000000 1.0
C      1  0.4418810000000  0.4135840000000  0.4888660000000 1.0
C      1  0.4816270000000  0.5645150000000  0.4954190000000 1.0
C      1  0.4967630000000  0.5015200000000  0.4698550000000 1.0
C      1  0.4600640000000  0.3990860000000  0.5102800000000 1.0
C      1  0.4626420000000  0.5055600000000  0.4937250000000 1.0
C      1  0.5002510000000  0.4025680000000  0.5404920000000 1.0
C      1  0.4961310000000  0.4760420000000  0.5935250000000 1.0
C      1  0.4721430000000  0.5626240000000  0.5256450000000 1.0
C      1  0.5654330000000  0.5303640000000  0.5771690000000 1.0
C      1  0.5097980000000  0.5366080000000  0.4565780000000 1.0
C      1  0.4040090000000  0.4238110000000  0.5269240000000 1.0
C      1  0.3982270000000  0.5021080000000  0.4559680000000 1.0
C      1  0.3951110000000  0.5011530000000  0.5090500000000 1.0
C      1  0.5227850000000  0.4223450000000  0.5836240000000 1.0
C      1  0.5461550000000  0.4129350000000  0.5706180000000 1.0
C      1  0.5007570000000  0.4583990000000  0.5415670000000 1.0
C      1  0.5281960000000  0.4433510000000  0.6003350000000 1.0
C      1  0.4878650000000  0.4741770000000  0.4311570000000 1.0
C      1  0.4821200000000  0.4784300000000  0.4872890000000 1.0
C      1  0.4329890000000  0.5336810000000  0.5693640000000 1.0
C      1  0.5540950000000  0.5457650000000  0.4302990000000 1.0
C      1  0.4717030000000  0.4921010000000  0.5764290000000 1.0
C      1  0.5144940000000  0.5454900000000  0.5850390000000 1.0
C      1  0.4203620000000  0.4888540000000  0.5516430000000 1.0
C      1  0.5595580000000  0.4430100000000  0.4847490000000 1.0
C      1  0.5848950000000  0.5181020000000  0.4750260000000 1.0
C      1  0.5791270000000  0.4492890000000  0.4185770000000 1.0
C      1  0.4890110000000  0.5437330000000  0.5955830000000 1.0
C      1  0.4420160000000  0.5320070000000  0.4993290000000 1.0
C      1  0.4250610000000  0.4719670000000  0.5783560000000 1.0
C      1  0.5909520000000  0.4387140000000  0.5089040000000 1.0
C      1  0.5255260000000  0.5378520000000  0.5359700000000 1.0
C      1  0.4440270000000  0.5095060000000  0.4150260000000 1.0
C      1  0.4759090000000  0.5311330000000  0.5360580000000 1.0
C      1  0.4656940000000  0.5390160000000  0.5747310000000 1.0
C      1  0.4347190000000  0.4469920000000  0.4884420000000 1.0
C      1  0.4324840000000  0.5599020000000  0.5395590000000 1.0
C      1  0.5085460000000  0.5252610000000  0.3980130000000 1.0
C      1  0.5796990000000  0.5864780000000  0.5282070000000 1.0
C      1  0.5271080000000  0.3896840000000  0.5281830000000 1.0
C      1  0.4782780000000  0.5284090000000  0.4634810000000 1.0
C      1  0.5158240000000  0.5587450000000  0.5572580000000 1.0
C      1  0.4770280000000  0.4430240000000  0.5226750000000 1.0
C      1  0.6018420000000  0.5419080000000  0.4843880000000 1.0
C      1  0.4099540000000  0.5717490000000  0.4995860000000 1.0
C      1  0.4279220000000  0.5591280000000  0.4511250000000 1.0
C      1  0.5665010000000  0.4175520000000  0.5060930000000 1.0
C      1  0.4934320000000  0.4620640000000  0.3902940000000 1.0
C      1  0.5401100000000  0.5922670000000  0.4830910000000 1.0
C      1  0.4470810000000  0.5367260000000  0.4682590000000 1.0
C      1  0.5131870000000  0.4785780000000  0.5655970000000 1.0
C      1  0.6093950000000  0.5757220000000  0.4373350000000 1.0
C      1  0.4598010000000  0.4557860000000  0.4255230000000 1.0
C      1  0.5438030000000  0.5091130000000  0.4611940000000 1.0
C      1  0.5441440000000  0.4295380000000  0.5253040000000 1.0
C      1  0.4853700000000  0.3950730000000  0.5687260000000 1.0
C      1  0.4209320000000  0.4970290000000  0.4342470000000 1.0
C      1  0.5088430000000  0.4578240000000  0.4915180000000 1.0
C      1  0.5176530000000  0.4981070000000  0.4497780000000 1.0
C      1  0.4899880000000  0.4150290000000  0.5105670000000 1.0
C      1  0.4140500000000  0.5469370000000  0.4900870000000 1.0
C      1  0.5681090000000  0.5566380000000  0.5665720000000 1.0
C      1  0.4957230000000  0.5657510000000  0.4644360000000 1.0
C      1  0.4897280000000  0.5786250000000  0.5482670000000 1.0
C      1  0.4506950000000  0.4731710000000  0.5308670000000 1.0
C      1  0.4517650000000  0.5929010000000  0.5093440000000 1.0
C      1  0.4448890000000  0.4824670000000  0.5949960000000 1.0
C      1  0.4144780000000  0.4243790000000  0.5025940000000 1.0
C      1  0.4809680000000  0.6014440000000  0.5245390000000 1.0
C      1  0.5554180000000  0.5405750000000  0.5197810000000 1.0
C      1  0.5914720000000  0.4549530000000  0.4822970000000 1.0
C      1  0.3940350000000  0.4807820000000  0.4818000000000 1.0
C      1  0.5547200000000  0.5125400000000  0.4218630000000 1.0
C      1  0.5686840000000  0.4755420000000  0.5177150000000 1.0
C      1  0.4598620000000  0.5641620000000  0.5572470000000 1.0
C      1  0.4871650000000  0.4439700000000  0.5873080000000 1.0
C      1  0.4638650000000  0.5273580000000  0.4333020000000 1.0
C      1  0.5397880000000  0.4790110000000  0.4196510000000 1.0
C      1  0.5211960000000  0.4809590000000  0.5253840000000 1.0
C      1  0.5851820000000  0.5291470000000  0.5316050000000 1.0
C      1  0.4579960000000  0.4602820000000  0.5029370000000 1.0
C      1  0.5858710000000  0.5512210000000  0.4359680000000 1.0
C      1  0.5062530000000  0.5007480000000  0.4205330000000 1.0
C      1  0.4878470000000  0.5174330000000  0.5605000000000 1.0
C      1  0.5403090000000  0.4648970000000  0.5022840000000 1.0
C      1  0.5731900000000  0.5054470000000  0.5150380000000 1.0
C      1  0.5078140000000  0.5193450000000  0.4924100000000 1.0
C      1  0.4742810000000  0.5594310000000  0.4387970000000 1.0
C      1  0.4480750000000  0.4809330000000  0.4665090000000 1.0
C      1  0.5185670000000  0.5463720000000  0.5054220000000 1.0
C      1  0.5212930000000  0.4359760000000  0.4531380000000 1.0
C      1  0.5958390000000  0.4891480000000  0.4819220000000 1.0
C      1  0.4295180000000  0.4654070000000  0.4356810000000 1.0
C      1  0.5053400000000  0.4126550000000  0.4536460000000 1.0
C      1  0.5025980000000  0.4301020000000  0.5603670000000 1.0
C      1  0.5481890000000  0.4425930000000  0.4561040000000 1.0
C      1  0.5760060000000  0.5060170000000  0.5549020000000 1.0
C      1  0.4189950000000  0.4652010000000  0.4680540000000 1.0
C      1  0.5629000000000  0.4827100000000  0.4841630000000 1.0
C      1  0.5173100000000  0.5067820000000  0.5471740000000 1.0
C      1  0.4451720000000  0.5314590000000  0.5301350000000 1.0
C      1  0.4004010000000  0.5098510000000  0.5355000000000 1.0
C      1  0.4529570000000  0.4935880000000  0.3947420000000 1.0
C      1  0.5021820000000  0.4596490000000  0.4583680000000 1.0
C      1  0.4564630000000  0.5905940000000  0.4786890000000 1.0
C      1  0.5131620000000  0.4627770000000  0.4114830000000 1.0
C      1  0.6038290000000  0.5597320000000  0.4638310000000 1.0
C      1  0.5581960000000  0.5693570000000  0.5376940000000 1.0
C      1  0.4099430000000  0.5359460000000  0.5482650000000 1.0
C      1  0.5055330000000  0.6101030000000  0.4707590000000 1.0
C      1  0.4873320000000  0.4112160000000  0.4307140000000 1.0
C      1  0.5314550000000  0.5729980000000  0.5170050000000 1.0
C      1  0.4609080000000  0.4258950000000  0.4668580000000 1.0
C      1  0.5348190000000  0.5233880000000  0.5908960000000 1.0
C      1  0.5550180000000  0.5211580000000  0.4909770000000 1.0
C      1  0.5698240000000  0.4894440000000  0.4515640000000 1.0
C      1  0.4286780000000  0.5808160000000  0.5188630000000 1.0
C      1  0.5446100000000  0.5084350000000  0.5634460000000 1.0
C      1  0.5300460000000  0.5033620000000  0.5049100000000 1.0
C      1  0.4187170000000  0.4321080000000  0.5486160000000 1.0
C      1  0.4661990000000  0.4954950000000  0.4449820000000 1.0
C      1  0.4087230000000  0.5172090000000  0.4829810000000 1.0
C      1  0.5096610000000  0.5928130000000  0.4492900000000 1.0
C      1  0.4887000000000  0.5695730000000  0.4134160000000 1.0
C      1  0.4649450000000  0.4274500000000  0.4352030000000 1.0
C      1  0.5599970000000  0.4582870000000  0.5644760000000 1.0
C      1  0.5270670000000  0.5646780000000  0.4782500000000 1.0
C      1  0.4529070000000  0.5746000000000  0.4568350000000 1.0
C      1  0.5136450000000  0.6007590000000  0.5246320000000 1.0
C      1  0.4668120000000  0.4690140000000  0.3975960000000 1.0
C      1  0.4506970000000  0.4418280000000  0.5423750000000 1.0
C      1  0.4733400000000  0.4736660000000  0.5508350000000 1.0
C      1  0.5186190000000  0.4332250000000  0.5128580000000 1.0
END
