TITL C-2847952-8118-520 0.00106224990033313 125000 -780.765573284999 0 0 142 (C1) n - 1
REM
REM in /home/bkarasulu/work/CARBON/AIRSS/Generating-Clusters/AIREBO/with-SteepDescent/Only-C1/SD-CG-opt/Try1-1.4A-POS3A/HFTN-CG
REM
REM
REM
REM
REM
REM ./C.cell (11c1c37f851c82e70ff6c80c92926a4b)
REM
REM compiler GCC version 9.2.1 20190827 (Red Hat 9.2.1-1)
REM options -cpp -mtune=generic -march=x86-64 -g -O0 -fpre-include=/usr/include/finclude/math-vector-fortran.h
REM seed -860087951 1055032846 1277984278 -271272353 -25514873 1618292091 583201789 -2039751553 -2120861901 -1438990102 220582407 -1548648545 -1863303062 580883319 -566553271 1319243402 1283475741 -1161680371 -890029774 1048574134 -1383518728 -597970277 -1883587034 1214236572 -1091984139 724600223 -275790102 -852924590 -487303846 1711941022 -1321085894 1963863965 1172406325
REM
CELL 1.54180   50.00000   50.00000   50.00000   90.00000   90.00000   90.00000
LATT -1
SFAC C  
C      1  0.4085660000000  0.4842820000000  0.4810150000000 1.0
C      1  0.4088200000000  0.4382850000000  0.5090930000000 1.0
C      1  0.5045830000000  0.6155200000000  0.5175390000000 1.0
C      1  0.4653630000000  0.4352720000000  0.4358720000000 1.0
C      1  0.5032280000000  0.5830890000000  0.5620110000000 1.0
C      1  0.5202090000000  0.4934920000000  0.4731630000000 1.0
C      1  0.5785470000000  0.5348660000000  0.4213990000000 1.0
C      1  0.5765680000000  0.5508870000000  0.5389070000000 1.0
C      1  0.4578850000000  0.4305720000000  0.4818010000000 1.0
C      1  0.5156440000000  0.5614380000000  0.4483300000000 1.0
C      1  0.4802570000000  0.4658510000000  0.4360450000000 1.0
C      1  0.4015440000000  0.5240540000000  0.5260660000000 1.0
C      1  0.5460620000000  0.4562460000000  0.5122900000000 1.0
C      1  0.4013420000000  0.5071690000000  0.5473640000000 1.0
C      1  0.4277230000000  0.4912900000000  0.4548970000000 1.0
C      1  0.4813620000000  0.3948830000000  0.5245950000000 1.0
C      1  0.5632470000000  0.5440860000000  0.5083710000000 1.0
C      1  0.5612100000000  0.5865060000000  0.5107470000000 1.0
C      1  0.4817930000000  0.4716430000000  0.4870780000000 1.0
C      1  0.4693890000000  0.4748080000000  0.4050980000000 1.0
C      1  0.5112690000000  0.4997090000000  0.5115390000000 1.0
C      1  0.4690820000000  0.4075390000000  0.4507400000000 1.0
C      1  0.5362860000000  0.4692200000000  0.4075580000000 1.0
C      1  0.4498280000000  0.4688030000000  0.4509480000000 1.0
C      1  0.5343600000000  0.5137400000000  0.4949300000000 1.0
C      1  0.4424470000000  0.4865160000000  0.5746770000000 1.0
C      1  0.5540820000000  0.5175100000000  0.5624660000000 1.0
C      1  0.5689120000000  0.4556780000000  0.4557460000000 1.0
C      1  0.4117740000000  0.4372930000000  0.4596910000000 1.0
C      1  0.4893140000000  0.5185810000000  0.4697390000000 1.0
C      1  0.4791730000000  0.4141540000000  0.4997950000000 1.0
C      1  0.4349330000000  0.5364980000000  0.5526380000000 1.0
C      1  0.4337120000000  0.5576680000000  0.4740340000000 1.0
C      1  0.5302200000000  0.4080350000000  0.5211360000000 1.0
C      1  0.4842730000000  0.4981530000000  0.5518390000000 1.0
C      1  0.4893130000000  0.4092540000000  0.4694170000000 1.0
C      1  0.4830470000000  0.5668440000000  0.5747360000000 1.0
C      1  0.4891260000000  0.5168700000000  0.4378340000000 1.0
C      1  0.5412500000000  0.4688980000000  0.4813040000000 1.0
C      1  0.5374430000000  0.4999720000000  0.6066290000000 1.0
C      1  0.5361100000000  0.5028220000000  0.5794700000000 1.0
C      1  0.4660240000000  0.5444240000000  0.5291490000000 1.0
C      1  0.4359800000000  0.4773530000000  0.4978220000000 1.0
C      1  0.4444780000000  0.5183390000000  0.5254950000000 1.0
C      1  0.5326130000000  0.5783810000000  0.5519350000000 1.0
C      1  0.4900890000000  0.5367530000000  0.3952140000000 1.0
C      1  0.5740960000000  0.5162490000000  0.4920670000000 1.0
C      1  0.4204530000000  0.5429380000000  0.4495320000000 1.0
C      1  0.4410270000000  0.5201820000000  0.4629610000000 1.0
C      1  0.4503160000000  0.6090110000000  0.4591560000000 1.0
C      1  0.4016700000000  0.5149490000000  0.4942880000000 1.0
C      1  0.5307170000000  0.5497050000000  0.5165380000000 1.0
C      1  0.5778260000000  0.4658580000000  0.5123640000000 1.0
C      1  0.5150360000000  0.5612750000000  0.4885800000000 1.0
C      1  0.5903450000000  0.5129840000000  0.4620800000000 1.0
C      1  0.4988240000000  0.5849940000000  0.5316690000000 1.0
C      1  0.4515070000000  0.4307730000000  0.5392850000000 1.0
C      1  0.5326530000000  0.4846190000000  0.4441250000000 1.0
C      1  0.4564160000000  0.5602810000000  0.5644940000000 1.0
C      1  0.4867320000000  0.4425410000000  0.5139500000000 1.0
C      1  0.4624400000000  0.4587490000000  0.5316770000000 1.0
C      1  0.5466190000000  0.5503480000000  0.4575650000000 1.0
C      1  0.5417200000000  0.5947640000000  0.5298730000000 1.0
C      1  0.5735930000000  0.4963250000000  0.5499010000000 1.0
C      1  0.4851560000000  0.4892130000000  0.3878250000000 1.0
C      1  0.4567800000000  0.5230240000000  0.4329310000000 1.0
C      1  0.5025670000000  0.4627120000000  0.5444380000000 1.0
C      1  0.5117960000000  0.3890890000000  0.5256320000000 1.0
C      1  0.5863310000000  0.4296650000000  0.4650100000000 1.0
C      1  0.4740730000000  0.4148740000000  0.5473670000000 1.0
C      1  0.5287920000000  0.5833550000000  0.4708430000000 1.0
C      1  0.5664830000000  0.5559450000000  0.4340090000000 1.0
C      1  0.5123300000000  0.4217440000000  0.4603750000000 1.0
C      1  0.4354090000000  0.5110530000000  0.4933280000000 1.0
C      1  0.4674170000000  0.5556370000000  0.4685060000000 1.0
C      1  0.4253740000000  0.4273320000000  0.5285090000000 1.0
C      1  0.5810020000000  0.4486330000000  0.5376400000000 1.0
C      1  0.5341020000000  0.4559190000000  0.5405370000000 1.0
C      1  0.4502870000000  0.5843340000000  0.4648050000000 1.0
C      1  0.6043570000000  0.4748830000000  0.4989750000000 1.0
C      1  0.4774740000000  0.5205860000000  0.5859460000000 1.0
C      1  0.4162090000000  0.5456410000000  0.4967940000000 1.0
C      1  0.6033990000000  0.4994900000000  0.4879070000000 1.0
C      1  0.6006000000000  0.5108040000000  0.5537870000000 1.0
C      1  0.4065880000000  0.5316700000000  0.4274470000000 1.0
C      1  0.4052640000000  0.4509360000000  0.4838090000000 1.0
C      1  0.5783470000000  0.5096460000000  0.4349230000000 1.0
C      1  0.4553310000000  0.4608510000000  0.4821150000000 1.0
C      1  0.4678990000000  0.4747990000000  0.5592790000000 1.0
C      1  0.5358660000000  0.4986800000000  0.5322780000000 1.0
C      1  0.4822360000000  0.5543380000000  0.4941550000000 1.0
C      1  0.5251690000000  0.4823590000000  0.5601240000000 1.0
C      1  0.5614670000000  0.4858620000000  0.4622110000000 1.0
C      1  0.4912540000000  0.4854550000000  0.4620140000000 1.0
C      1  0.5512040000000  0.5179820000000  0.4669690000000 1.0
C      1  0.5117960000000  0.5175320000000  0.5471570000000 1.0
C      1  0.5193670000000  0.5388970000000  0.5700370000000 1.0
C      1  0.4978940000000  0.5548550000000  0.5235030000000 1.0
C      1  0.4653460000000  0.4963590000000  0.5927420000000 1.0
C      1  0.4502230000000  0.5977420000000  0.5242220000000 1.0
C      1  0.4943970000000  0.4261360000000  0.5641420000000 1.0
C      1  0.4969300000000  0.5445730000000  0.5870420000000 1.0
C      1  0.5583710000000  0.4902550000000  0.4226020000000 1.0
C      1  0.4234400000000  0.4913470000000  0.5544520000000 1.0
C      1  0.4229340000000  0.4549780000000  0.4391050000000 1.0
C      1  0.4453950000000  0.5694590000000  0.5336670000000 1.0
C      1  0.5440670000000  0.5466020000000  0.5479580000000 1.0
C      1  0.5837560000000  0.4365310000000  0.4338680000000 1.0
C      1  0.5160760000000  0.5331220000000  0.4765310000000 1.0
C      1  0.5187520000000  0.5908880000000  0.4331020000000 1.0
C      1  0.4825240000000  0.4744290000000  0.5995430000000 1.0
C      1  0.4957060000000  0.4714080000000  0.6232970000000 1.0
C      1  0.5521900000000  0.4498070000000  0.5753960000000 1.0
C      1  0.5236880000000  0.4379090000000  0.5674340000000 1.0
C      1  0.5292180000000  0.4392650000000  0.4804970000000 1.0
C      1  0.4263460000000  0.5102330000000  0.4273490000000 1.0
C      1  0.5009960000000  0.5106350000000  0.3976160000000 1.0
C      1  0.4402310000000  0.4235860000000  0.4565690000000 1.0
C      1  0.5265170000000  0.6104470000000  0.4513990000000 1.0
C      1  0.4889510000000  0.4562510000000  0.5749440000000 1.0
C      1  0.5787540000000  0.4209620000000  0.5344860000000 1.0
C      1  0.5837100000000  0.5774050000000  0.5233060000000 1.0
C      1  0.5236140000000  0.4521590000000  0.4496450000000 1.0
C      1  0.5197200000000  0.4347580000000  0.5099230000000 1.0
C      1  0.4871560000000  0.5499880000000  0.4453760000000 1.0
C      1  0.5135300000000  0.5043650000000  0.4240780000000 1.0
C      1  0.5542350000000  0.5677080000000  0.4858260000000 1.0
C      1  0.6002090000000  0.5358230000000  0.5508180000000 1.0
C      1  0.4752780000000  0.6050140000000  0.5200690000000 1.0
C      1  0.4179150000000  0.5527620000000  0.5280970000000 1.0
C      1  0.5646040000000  0.4955150000000  0.5175820000000 1.0
C      1  0.4653150000000  0.3718860000000  0.5234800000000 1.0
C      1  0.4807780000000  0.5305870000000  0.5535860000000 1.0
C      1  0.5722790000000  0.4637350000000  0.5595140000000 1.0
C      1  0.4404260000000  0.4847470000000  0.5289780000000 1.0
C      1  0.4885880000000  0.5219540000000  0.5028030000000 1.0
C      1  0.5578920000000  0.4065440000000  0.5242390000000 1.0
C      1  0.5420620000000  0.4603450000000  0.3826220000000 1.0
C      1  0.5106890000000  0.4598380000000  0.4218920000000 1.0
C      1  0.4740610000000  0.5458320000000  0.4151510000000 1.0
C      1  0.4737810000000  0.5057820000000  0.5231990000000 1.0
C      1  0.4992570000000  0.4727450000000  0.5123970000000 1.0
END
