TITL C-2848498-1409-638 -9.84406644266861e-05 125000 -191.5569670331 0 0 35 (C1) n - 1
REM
REM in /home/bkarasulu/work/CARBON/AIRSS/Generating-Clusters/AIREBO/with-SteepDescent/Only-C1/SD-CG-opt/Try1-1.4A-POS3A/HFTN-CG
REM
REM
REM
REM
REM
REM ./C.cell (11c1c37f851c82e70ff6c80c92926a4b)
REM
REM compiler GCC version 9.2.1 20190827 (Red Hat 9.2.1-1)
REM options -cpp -mtune=generic -march=x86-64 -g -O0 -fpre-include=/usr/include/finclude/math-vector-fortran.h
REM seed -2037582135 -394315629 1057257092 1942735428 -533029837 37641173 -99522308 906255029 -1959621865 1161817806 1318775953 -207275684 -771726696 1404672473 -1474612827 -1367449945 -353748964 -1461806379 -1367351332 -1400895778 1737857544 -520456380 1903251113 -243259296 -1025595526 -1050675229 1928166795 946322521 646390492 982975035 -664617239 -1329793637 112385693
REM
CELL 1.54180   50.00000   50.00000   50.00000   90.00000   90.00000   90.00000
LATT -1
SFAC C  
C      1  0.4365120000000  0.4945500000000  0.4488030000000 1.0
C      1  0.4685750000000  0.4861960000000  0.4516390000000 1.0
C      1  0.4702300000000  0.5044030000000  0.5471610000000 1.0
C      1  0.5233110000000  0.5099230000000  0.5606790000000 1.0
C      1  0.5254610000000  0.5450570000000  0.4706760000000 1.0
C      1  0.4888660000000  0.5359040000000  0.4332590000000 1.0
C      1  0.5343390000000  0.4543630000000  0.5238120000000 1.0
C      1  0.5266100000000  0.4327920000000  0.5687340000000 1.0
C      1  0.4828410000000  0.4870660000000  0.5659240000000 1.0
C      1  0.5224860000000  0.4896210000000  0.4961620000000 1.0
C      1  0.5113210000000  0.4842520000000  0.5646070000000 1.0
C      1  0.4837630000000  0.5291690000000  0.5412320000000 1.0
C      1  0.4586520000000  0.4960420000000  0.5226210000000 1.0
C      1  0.5629200000000  0.5114870000000  0.4804150000000 1.0
C      1  0.5236100000000  0.4609620000000  0.5554690000000 1.0
C      1  0.5126580000000  0.5648560000000  0.4861720000000 1.0
C      1  0.4703160000000  0.5422940000000  0.5153350000000 1.0
C      1  0.4894800000000  0.5623260000000  0.5003370000000 1.0
C      1  0.5355200000000  0.4260570000000  0.5407890000000 1.0
C      1  0.4450050000000  0.5535980000000  0.5208360000000 1.0
C      1  0.5517240000000  0.5352390000000  0.4721390000000 1.0
C      1  0.5600650000000  0.4693610000000  0.5124830000000 1.0
C      1  0.4933970000000  0.5031810000000  0.4377540000000 1.0
C      1  0.5531000000000  0.4900230000000  0.4952420000000 1.0
C      1  0.4978930000000  0.4501840000000  0.4824720000000 1.0
C      1  0.4869540000000  0.4590420000000  0.4587290000000 1.0
C      1  0.5021360000000  0.4717310000000  0.4361780000000 1.0
C      1  0.4528880000000  0.5048470000000  0.4737490000000 1.0
C      1  0.4685640000000  0.5135940000000  0.4971810000000 1.0
C      1  0.5116770000000  0.5247060000000  0.5392810000000 1.0
C      1  0.4985630000000  0.5117730000000  0.4883060000000 1.0
C      1  0.5181940000000  0.5160070000000  0.5145170000000 1.0
C      1  0.4139600000000  0.4937970000000  0.4347880000000 1.0
C      1  0.5051680000000  0.5247030000000  0.4610720000000 1.0
C      1  0.5132400000000  0.4608940000000  0.5014470000000 1.0
END
