TITL C-2848502-4955-355 0.00113811591910664 125000 -458.516727026061 0 0 85 (C1) n - 1
REM
REM in /home/bkarasulu/work/CARBON/AIRSS/Generating-Clusters/AIREBO/with-SteepDescent/Only-C1/SD-CG-opt/Try1-1.4A-POS3A/HFTN-CG
REM
REM
REM
REM
REM
REM ./C.cell (11c1c37f851c82e70ff6c80c92926a4b)
REM
REM compiler GCC version 9.2.1 20190827 (Red Hat 9.2.1-1)
REM options -cpp -mtune=generic -march=x86-64 -g -O0 -fpre-include=/usr/include/finclude/math-vector-fortran.h
REM seed 534340440 1319924989 1947977413 -1537459123 -62230556 -185453459 871146886 -1973575310 -1742800583 -694213586 -861200474 -342373900 1607778119 1246933763 -396989050 -1325288785 1909692562 -176496779 -1278439630 -1970722604 1488659702 567805094 840470006 -194303315 1058439087 -1978708720 717977779 1627425156 1012027950 1389170752 83815240 2095741030 -1178876688
REM
CELL 1.54180   50.00000   50.00000   50.00000   90.00000   90.00000   90.00000
LATT -1
SFAC C  
C      1  0.5641380000000  0.4731400000000  0.5382400000000 1.0
C      1  0.5460990000000  0.5026000000000  0.4372110000000 1.0
C      1  0.4891040000000  0.5347680000000  0.4415580000000 1.0
C      1  0.5225190000000  0.5115400000000  0.4144040000000 1.0
C      1  0.4471970000000  0.4725150000000  0.4338460000000 1.0
C      1  0.4685490000000  0.5728220000000  0.4727840000000 1.0
C      1  0.4631100000000  0.5527570000000  0.4540790000000 1.0
C      1  0.5356300000000  0.5080300000000  0.4691010000000 1.0
C      1  0.4920240000000  0.5885210000000  0.4679240000000 1.0
C      1  0.4729940000000  0.4199760000000  0.4871470000000 1.0
C      1  0.5126080000000  0.4910990000000  0.5674570000000 1.0
C      1  0.5105820000000  0.5907030000000  0.4913140000000 1.0
C      1  0.5000090000000  0.4266260000000  0.5379410000000 1.0
C      1  0.5639870000000  0.5465180000000  0.5452450000000 1.0
C      1  0.4508340000000  0.4698440000000  0.4897610000000 1.0
C      1  0.5145090000000  0.5505260000000  0.4457840000000 1.0
C      1  0.5608150000000  0.4896250000000  0.5662730000000 1.0
C      1  0.4726840000000  0.4747570000000  0.5851790000000 1.0
C      1  0.4712990000000  0.4973170000000  0.4895500000000 1.0
C      1  0.4517350000000  0.5245990000000  0.4496360000000 1.0
C      1  0.5286780000000  0.4401710000000  0.5502510000000 1.0
C      1  0.3933960000000  0.5192150000000  0.5155870000000 1.0
C      1  0.5530330000000  0.5654760000000  0.4774680000000 1.0
C      1  0.4227270000000  0.4801760000000  0.4895750000000 1.0
C      1  0.5699090000000  0.5345020000000  0.5147720000000 1.0
C      1  0.4912580000000  0.5105490000000  0.4181890000000 1.0
C      1  0.4952930000000  0.4592090000000  0.5403920000000 1.0
C      1  0.5065370000000  0.5814520000000  0.4445050000000 1.0
C      1  0.5043380000000  0.4899980000000  0.4862280000000 1.0
C      1  0.5019120000000  0.5614900000000  0.5315660000000 1.0
C      1  0.4770330000000  0.5226500000000  0.5787770000000 1.0
C      1  0.5110140000000  0.5517410000000  0.5588900000000 1.0
C      1  0.5192760000000  0.5608790000000  0.4774780000000 1.0
C      1  0.4888950000000  0.4639420000000  0.5013200000000 1.0
C      1  0.5098510000000  0.4943090000000  0.4547930000000 1.0
C      1  0.4413950000000  0.4737080000000  0.5456610000000 1.0
C      1  0.4773150000000  0.4372140000000  0.4589940000000 1.0
C      1  0.4178270000000  0.4623930000000  0.5560690000000 1.0
C      1  0.5141710000000  0.4643850000000  0.4396020000000 1.0
C      1  0.4682150000000  0.4641350000000  0.5605300000000 1.0
C      1  0.5594000000000  0.4754360000000  0.4804560000000 1.0
C      1  0.4795670000000  0.5085880000000  0.4610460000000 1.0
C      1  0.4889800000000  0.4976820000000  0.5847030000000 1.0
C      1  0.4191450000000  0.4874460000000  0.4309570000000 1.0
C      1  0.5717280000000  0.5417950000000  0.4826240000000 1.0
C      1  0.4672330000000  0.4324900000000  0.5308550000000 1.0
C      1  0.5037130000000  0.4978340000000  0.5353200000000 1.0
C      1  0.5230480000000  0.4597790000000  0.5691400000000 1.0
C      1  0.4940450000000  0.4168830000000  0.5059100000000 1.0
C      1  0.5520920000000  0.4485050000000  0.4784560000000 1.0
C      1  0.4560030000000  0.4607400000000  0.4574000000000 1.0
C      1  0.4622850000000  0.5695110000000  0.5001740000000 1.0
C      1  0.5390490000000  0.5059590000000  0.5727900000000 1.0
C      1  0.5232120000000  0.5765620000000  0.5148040000000 1.0
C      1  0.4720820000000  0.5565410000000  0.5218610000000 1.0
C      1  0.4393110000000  0.5035750000000  0.5410580000000 1.0
C      1  0.5025380000000  0.4481720000000  0.4742020000000 1.0
C      1  0.5501690000000  0.4462180000000  0.5329040000000 1.0
C      1  0.5155570000000  0.4432060000000  0.5052270000000 1.0
C      1  0.4753100000000  0.4816820000000  0.5258880000000 1.0
C      1  0.4548490000000  0.4570070000000  0.5210060000000 1.0
C      1  0.5052400000000  0.5429960000000  0.5030840000000 1.0
C      1  0.5317920000000  0.5149530000000  0.5347310000000 1.0
C      1  0.5667450000000  0.5209280000000  0.4659610000000 1.0
C      1  0.5447110000000  0.5564490000000  0.5078720000000 1.0
C      1  0.5901030000000  0.4851740000000  0.5198690000000 1.0
C      1  0.4143130000000  0.5122330000000  0.5286860000000 1.0
C      1  0.4933300000000  0.5458080000000  0.5785530000000 1.0
C      1  0.5309600000000  0.4456620000000  0.4599660000000 1.0
C      1  0.5697220000000  0.4905770000000  0.4587370000000 1.0
C      1  0.4570740000000  0.5219970000000  0.5596310000000 1.0
C      1  0.4866330000000  0.4790690000000  0.4267160000000 1.0
C      1  0.4875110000000  0.5168760000000  0.5122490000000 1.0
C      1  0.5323010000000  0.5254370000000  0.5048980000000 1.0
C      1  0.5215850000000  0.4720410000000  0.5222330000000 1.0
C      1  0.5605190000000  0.5025060000000  0.5214660000000 1.0
C      1  0.5470480000000  0.4368130000000  0.5050060000000 1.0
C      1  0.4865690000000  0.4467260000000  0.4301290000000 1.0
C      1  0.4394530000000  0.5110760000000  0.4290860000000 1.0
C      1  0.4482070000000  0.4359820000000  0.4876990000000 1.0
C      1  0.5367080000000  0.5354520000000  0.5581990000000 1.0
C      1  0.4618930000000  0.4941290000000  0.4119400000000 1.0
C      1  0.5356570000000  0.5345040000000  0.4328340000000 1.0
C      1  0.4636660000000  0.5289600000000  0.5294230000000 1.0
C      1  0.5364440000000  0.4921650000000  0.4991680000000 1.0
END
