TITL C-2847959-7740-94 0.00537558270810857 125000 -586.356488188135 0 0 109 (C1) n - 1
REM
REM in /home/bkarasulu/work/CARBON/AIRSS/Generating-Clusters/AIREBO/with-SteepDescent/Only-C1/SD-CG-opt/Try1-1.4A-POS3A/HFTN-CG
REM
REM
REM
REM
REM
REM ./C.cell (11c1c37f851c82e70ff6c80c92926a4b)
REM
REM compiler GCC version 9.2.1 20190827 (Red Hat 9.2.1-1)
REM options -cpp -mtune=generic -march=x86-64 -g -O0 -fpre-include=/usr/include/finclude/math-vector-fortran.h
REM seed -1070206169 313029349 1804238615 1776924328 -1394488947 1814382581 317717505 -2095616836 -1671744726 1602864998 -206718893 -802142902 -1275214016 -52860998 1227536640 -2117281273 1418168293 2076430260 -1656570999 -299142444 -625921859 627932596 -783788004 -1583801541 429608519 422309508 -554929010 -1803346491 682199275 1329124152 -1900455459 74556792 -2133579096
REM
CELL 1.54180   50.00000   50.00000   50.00000   90.00000   90.00000   90.00000
LATT -1
SFAC C  
C      1  0.4072100000000  0.4848860000000  0.4768440000000 1.0
C      1  0.5374860000000  0.5409960000000  0.4477610000000 1.0
C      1  0.4818060000000  0.5247570000000  0.4150410000000 1.0
C      1  0.5195300000000  0.5747660000000  0.5310070000000 1.0
C      1  0.5424920000000  0.5572310000000  0.5423880000000 1.0
C      1  0.5620830000000  0.5143160000000  0.4807290000000 1.0
C      1  0.4756700000000  0.4830560000000  0.4167560000000 1.0
C      1  0.4348760000000  0.5096220000000  0.5145030000000 1.0
C      1  0.4215520000000  0.5062040000000  0.4627540000000 1.0
C      1  0.4749420000000  0.4010450000000  0.4990670000000 1.0
C      1  0.5413780000000  0.4287520000000  0.4586600000000 1.0
C      1  0.4893250000000  0.4981580000000  0.5030370000000 1.0
C      1  0.4630150000000  0.5543900000000  0.4486180000000 1.0
C      1  0.5444650000000  0.4249270000000  0.4897170000000 1.0
C      1  0.5400610000000  0.5726450000000  0.4720380000000 1.0
C      1  0.4595280000000  0.5700140000000  0.5399790000000 1.0
C      1  0.5131650000000  0.4474380000000  0.4798380000000 1.0
C      1  0.4371390000000  0.4681650000000  0.5205880000000 1.0
C      1  0.4564820000000  0.4893440000000  0.5020630000000 1.0
C      1  0.4399830000000  0.5233160000000  0.4845250000000 1.0
C      1  0.5520560000000  0.4667140000000  0.5732360000000 1.0
C      1  0.4672260000000  0.4981740000000  0.4709720000000 1.0
C      1  0.4582010000000  0.5272130000000  0.5671610000000 1.0
C      1  0.4608270000000  0.5733880000000  0.4701420000000 1.0
C      1  0.4763240000000  0.4336940000000  0.4405340000000 1.0
C      1  0.5321700000000  0.4343440000000  0.5367320000000 1.0
C      1  0.5308190000000  0.4972360000000  0.4289330000000 1.0
C      1  0.5187120000000  0.4906860000000  0.5413390000000 1.0
C      1  0.4576950000000  0.4351150000000  0.5092180000000 1.0
C      1  0.5836920000000  0.4667490000000  0.4985430000000 1.0
C      1  0.5383810000000  0.5325800000000  0.5654410000000 1.0
C      1  0.4406690000000  0.5025920000000  0.5769530000000 1.0
C      1  0.5429170000000  0.4601000000000  0.4903590000000 1.0
C      1  0.5662000000000  0.4755120000000  0.4719410000000 1.0
C      1  0.5493930000000  0.4937090000000  0.5788080000000 1.0
C      1  0.4952700000000  0.4871910000000  0.4442310000000 1.0
C      1  0.5166820000000  0.4298100000000  0.5087150000000 1.0
C      1  0.4730780000000  0.5556350000000  0.5593020000000 1.0
C      1  0.5091630000000  0.4328730000000  0.4493670000000 1.0
C      1  0.5286230000000  0.5311250000000  0.4986140000000 1.0
C      1  0.4895030000000  0.5209960000000  0.5789260000000 1.0
C      1  0.5200610000000  0.4750290000000  0.4611880000000 1.0
C      1  0.4265890000000  0.5484480000000  0.5132730000000 1.0
C      1  0.5490050000000  0.5069770000000  0.5109820000000 1.0
C      1  0.4652270000000  0.4251040000000  0.4778140000000 1.0
C      1  0.5048790000000  0.5894750000000  0.5068680000000 1.0
C      1  0.4881240000000  0.4213430000000  0.5195240000000 1.0
C      1  0.4468430000000  0.5324150000000  0.5355170000000 1.0
C      1  0.5817140000000  0.5184400000000  0.5378860000000 1.0
C      1  0.5482630000000  0.4590520000000  0.4508590000000 1.0
C      1  0.5065870000000  0.5372960000000  0.5239220000000 1.0
C      1  0.4038230000000  0.5339250000000  0.5080270000000 1.0
C      1  0.4749840000000  0.4624450000000  0.4557430000000 1.0
C      1  0.5086790000000  0.5473980000000  0.5842840000000 1.0
C      1  0.4896160000000  0.4613050000000  0.4063050000000 1.0
C      1  0.4413560000000  0.5666740000000  0.4920930000000 1.0
C      1  0.5481220000000  0.5684850000000  0.4417940000000 1.0
C      1  0.5053830000000  0.5107510000000  0.4218730000000 1.0
C      1  0.4869340000000  0.4918360000000  0.5915020000000 1.0
C      1  0.5345890000000  0.4696590000000  0.4245710000000 1.0
C      1  0.5727270000000  0.4622690000000  0.5550180000000 1.0
C      1  0.4792460000000  0.4602180000000  0.5170780000000 1.0
C      1  0.4955400000000  0.5153910000000  0.4630600000000 1.0
C      1  0.4463660000000  0.4754050000000  0.4572420000000 1.0
C      1  0.4573270000000  0.5090970000000  0.4264130000000 1.0
C      1  0.4786810000000  0.5205710000000  0.5338220000000 1.0
C      1  0.5180720000000  0.4797720000000  0.5028680000000 1.0
C      1  0.4453800000000  0.4356310000000  0.4546010000000 1.0
C      1  0.4942830000000  0.4470860000000  0.5698320000000 1.0
C      1  0.5695230000000  0.4842340000000  0.5212020000000 1.0
C      1  0.5132680000000  0.4733980000000  0.5835570000000 1.0
C      1  0.4790560000000  0.5521880000000  0.4246710000000 1.0
C      1  0.4686890000000  0.5269150000000  0.5024750000000 1.0
C      1  0.4255120000000  0.4564850000000  0.4729920000000 1.0
C      1  0.5103990000000  0.5651560000000  0.4759040000000 1.0
C      1  0.5675140000000  0.5151730000000  0.5669410000000 1.0
C      1  0.5897650000000  0.4963810000000  0.4852830000000 1.0
C      1  0.5649510000000  0.5835950000000  0.4916680000000 1.0
C      1  0.5049430000000  0.5653700000000  0.4268460000000 1.0
C      1  0.5450210000000  0.5122290000000  0.4542260000000 1.0
C      1  0.4096380000000  0.4818260000000  0.5278980000000 1.0
C      1  0.4647920000000  0.5592200000000  0.5119020000000 1.0
C      1  0.5056870000000  0.5438040000000  0.4531920000000 1.0
C      1  0.5880400000000  0.4871840000000  0.5473320000000 1.0
C      1  0.4555060000000  0.5259620000000  0.4552650000000 1.0
C      1  0.5308440000000  0.5194770000000  0.5366830000000 1.0
C      1  0.5397030000000  0.4721360000000  0.5279660000000 1.0
C      1  0.5236790000000  0.5035980000000  0.4792650000000 1.0
C      1  0.4289380000000  0.4451220000000  0.5011460000000 1.0
C      1  0.5189720000000  0.5054440000000  0.5720970000000 1.0
C      1  0.5117600000000  0.4521650000000  0.4216850000000 1.0
C      1  0.5609520000000  0.4457910000000  0.5314680000000 1.0
C      1  0.5257980000000  0.4490020000000  0.5634560000000 1.0
C      1  0.5519640000000  0.5537170000000  0.4962100000000 1.0
C      1  0.4754890000000  0.4405760000000  0.5445750000000 1.0
C      1  0.4315080000000  0.4958250000000  0.4363590000000 1.0
C      1  0.5802260000000  0.4397460000000  0.5082120000000 1.0
C      1  0.5291960000000  0.5788620000000  0.4230680000000 1.0
C      1  0.4855020000000  0.5867570000000  0.4787800000000 1.0
C      1  0.4037460000000  0.5012600000000  0.5036760000000 1.0
C      1  0.4482130000000  0.4574990000000  0.5459960000000 1.0
C      1  0.4873570000000  0.4877290000000  0.5353480000000 1.0
C      1  0.4941410000000  0.5582880000000  0.5049640000000 1.0
C      1  0.4477560000000  0.4779770000000  0.5681190000000 1.0
C      1  0.5844150000000  0.5240490000000  0.5044570000000 1.0
C      1  0.5628610000000  0.5420300000000  0.5240380000000 1.0
C      1  0.4837710000000  0.4523920000000  0.4849390000000 1.0
C      1  0.4787750000000  0.4753430000000  0.5640440000000 1.0
C      1  0.5039380000000  0.5551270000000  0.5527550000000 1.0
END
