TITL C-2848501-3133-265 -2916.48274503846 125000 -1053.16485455121 0 0 197 (C1) n - 1
REM
REM in /home/bkarasulu/work/CARBON/AIRSS/Generating-Clusters/AIREBO/with-SteepDescent/Only-C1/SD-CG-opt/Try1-1.4A-POS3A/HFTN-CG
REM
REM
REM
REM
REM
REM ./C.cell (11c1c37f851c82e70ff6c80c92926a4b)
REM
REM compiler GCC version 9.2.1 20190827 (Red Hat 9.2.1-1)
REM options -cpp -mtune=generic -march=x86-64 -g -O0 -fpre-include=/usr/include/finclude/math-vector-fortran.h
REM seed -1578940645 226883289 406236429 409994371 1575673960 -1146941321 1132019343 -1310525461 -874584926 2118437836 -968365283 -143580554 -144647550 -1321791608 1838511030 666934490 -2081628393 -897967004 -73796979 484390105 1038478462 1812040512 1994883945 -914698149 1430056835 782110743 -1837960022 -1926436963 1370351948 -404326503 1935385543 1620817397 106873766
REM
CELL 1.54180   50.00000   50.00000   50.00000   90.00000   90.00000   90.00000
LATT -1
SFAC C  
C      1  0.4094300000000  0.5178070000000  0.5692490000000 1.0
C      1  0.6200070000000  0.5332300000000  0.4916820000000 1.0
C      1  0.5944650000000  0.4536340000000  0.4955030000000 1.0
C      1  0.4848880000000  0.4473940000000  0.5248690000000 1.0
C      1  0.5373660000000  0.5599100000000  0.5096190000000 1.0
C      1  0.4145770000000  0.5643560000000  0.4993940000000 1.0
C      1  0.4074220000000  0.5273470000000  0.4396900000000 1.0
C      1  0.5106090000000  0.5717110000000  0.5453010000000 1.0
C      1  0.5015160000000  0.5120240000000  0.5199520000000 1.0
C      1  0.5894070000000  0.5393450000000  0.5005760000000 1.0
C      1  0.4312600000000  0.4680180000000  0.4410810000000 1.0
C      1  0.5250740000000  0.4649080000000  0.4448940000000 1.0
C      1  0.4840970000000  0.4242310000000  0.5864440000000 1.0
C      1  0.5047480000000  0.4432840000000  0.6064550000000 1.0
C      1  0.4426520000000  0.4204290000000  0.4601550000000 1.0
C      1  0.6099590000000  0.4958280000000  0.5205370000000 1.0
C      1  0.5453880000000  0.5913760000000  0.4993640000000 1.0
C      1  0.5557820000000  0.5150540000000  0.4063190000000 1.0
C      1  0.4767260000000  0.4852870000000  0.5868810000000 1.0
C      1  0.4964280000000  0.4699490000000  0.5057410000000 1.0
C      1  0.4966390000000  0.4157570000000  0.4422200000000 1.0
C      1  0.4267730000000  0.4219460000000  0.5187540000000 1.0
C      1  0.4660640000000  0.5404830000000  0.4169230000000 1.0
C      1  0.6196480000000  0.5282260000000  0.5244590000000 1.0
C      1  0.5036030000000  0.6188570000000  0.4852610000000 1.0
C      1  0.4975660000000  0.5957370000000  0.5655300000000 1.0
C      1  0.3993940000000  0.5358290000000  0.4933850000000 1.0
C      1  0.5530180000000  0.5448750000000  0.5699210000000 1.0
C      1  0.4172980000000  0.4409720000000  0.5403600000000 1.0
C      1  0.5210110000000  0.6083960000000  0.5081910000000 1.0
C      1  0.5481650000000  0.5011890000000  0.4816530000000 1.0
C      1  0.4153710000000  0.5119240000000  0.5119130000000 1.0
C      1  0.4742810000000  0.5517620000000  0.5142230000000 1.0
C      1  0.4553640000000  0.4779130000000  0.4825900000000 1.0
C      1  0.4324090000000  0.5239650000000  0.5371150000000 1.0
C      1  0.4438490000000  0.5110800000000  0.4423380000000 1.0
C      1  0.4705940000000  0.5913440000000  0.5107830000000 1.0
C      1  0.4646700000000  0.5723210000000  0.5383800000000 1.0
C      1  0.5615470000000  0.4877980000000  0.5255980000000 1.0
C      1  0.5319720000000  0.5294460000000  0.4771430000000 1.0
C      1  0.5308480000000  0.5626020000000  0.4763460000000 1.0
C      1  0.5877650000000  0.5579880000000  0.5283200000000 1.0
C      1  0.4919100000000  0.4938580000000  0.4849020000000 1.0
C      1  0.4239140000000  0.4276520000000  0.4853250000000 1.0
C      1  0.4428610000000  0.5575990000000  0.5599190000000 1.0
C      1  0.5519750000000  0.4229200000000  0.4402660000000 1.0
C      1  0.5480010000000  0.4282670000000  0.5595590000000 1.0
C      1  0.5827140000000  0.5274700000000  0.5742930000000 1.0
C      1  0.4954960000000  0.4481880000000  0.4434900000000 1.0
C      1  0.5757430000000  0.5015400000000  0.4249600000000 1.0
C      1  0.4650870000000  0.5376820000000  0.4780640000000 1.0
C      1  0.5057790000000  0.4487570000000  0.4736180000000 1.0
C      1  0.5610050000000  0.5265090000000  0.5321420000000 1.0
C      1  0.5244180000000  0.5539570000000  0.5810500000000 1.0
C      1  0.5903740000000  0.5174310000000  0.5365460000000 1.0
C      1  0.3901560000000  0.4897200000000  0.5171730000000 1.0
C      1  0.4958280000000  0.4252940000000  0.5482810000000 1.0
C      1  0.5770700000000  0.4098100000000  0.5398650000000 1.0
C      1  0.4813500000000  0.5275700000000  0.5600180000000 1.0
C      1  0.4731440000000  0.5140750000000  0.5011770000000 1.0
C      1  0.4578900000000  0.4564250000000  0.5434610000000 1.0
C      1  0.4378810000000  0.4691080000000  0.5208120000000 1.0
C      1  0.5396200000000  0.5048900000000  0.5453800000000 1.0
C      1  0.5762860000000  0.4677180000000  0.4194510000000 1.0
C      1  0.5802340000000  0.4702880000000  0.4521570000000 1.0
C      1  0.5849050000000  0.4956380000000  0.5871890000000 1.0
C      1  0.5006110000000  0.5422470000000  0.4948950000000 1.0
C      1  0.4713430000000  0.4015840000000  0.5098710000000 1.0
C      1  0.5751270000000  0.5594250000000  0.4455000000000 1.0
C      1  0.5422010000000  0.5110560000000  0.4434980000000 1.0
C      1  0.5474600000000  0.5971750000000  0.4657140000000 1.0
C      1  0.4798190000000  0.5143500000000  0.5975780000000 1.0
C      1  0.4729640000000  0.5258420000000  0.4475340000000 1.0
C      1  0.4643150000000  0.4606230000000  0.4379520000000 1.0
C      1  0.4342530000000  0.4874780000000  0.5933160000000 1.0
C      1  0.5234220000000  0.4078270000000  0.5577800000000 1.0
C      1  0.4328530000000  0.6023770000000  0.5467740000000 1.0
C      1  0.4433790000000  0.3998770000000  0.5062990000000 1.0
C      1  0.4927780000000  0.5885570000000  0.5935910000000 1.0
C      1  0.3801150000000  0.5176100000000  0.5299230000000 1.0
C      1  0.4437900000000  0.5399840000000  0.5116480000000 1.0
C      1  0.5667350000000  0.4476360000000  0.4822210000000 1.0
C      1  0.5137650000000  0.4877470000000  0.6017370000000 1.0
C      1  0.4656830000000  0.5751030000000  0.5780700000000 1.0
C      1  0.5714640000000  0.5085430000000  0.4579780000000 1.0
C      1  0.5643840000000  0.4373990000000  0.5330140000000 1.0
C      1  0.4924780000000  0.5562700000000  0.5695750000000 1.0
C      1  0.4458750000000  0.5773450000000  0.4367180000000 1.0
C      1  0.4572130000000  0.4736250000000  0.3937390000000 1.0
C      1  0.5143590000000  0.5253460000000  0.5553810000000 1.0
C      1  0.4486750000000  0.5121150000000  0.5955060000000 1.0
C      1  0.5028420000000  0.5512090000000  0.4504430000000 1.0
C      1  0.4944940000000  0.4858430000000  0.4302490000000 1.0
C      1  0.5448660000000  0.5444230000000  0.4494630000000 1.0
C      1  0.5269380000000  0.4953440000000  0.5070880000000 1.0
C      1  0.4357170000000  0.5320470000000  0.5759860000000 1.0
C      1  0.5024290000000  0.4892830000000  0.5432000000000 1.0
C      1  0.5271930000000  0.4640160000000  0.5158610000000 1.0
C      1  0.4176960000000  0.4566010000000  0.5014170000000 1.0
C      1  0.5685780000000  0.4225710000000  0.4635640000000 1.0
C      1  0.4579190000000  0.5019600000000  0.3944150000000 1.0
C      1  0.4909950000000  0.5766300000000  0.4662990000000 1.0
C      1  0.5451890000000  0.4374650000000  0.5060780000000 1.0
C      1  0.5759980000000  0.4704030000000  0.5701670000000 1.0
C      1  0.5165180000000  0.5930960000000  0.4717570000000 1.0
C      1  0.4749320000000  0.6013640000000  0.5494720000000 1.0
C      1  0.5342940000000  0.4956590000000  0.3960900000000 1.0
C      1  0.4473470000000  0.5593410000000  0.4155150000000 1.0
C      1  0.4339910000000  0.4530420000000  0.5674170000000 1.0
C      1  0.4717410000000  0.4407890000000  0.4113510000000 1.0
C      1  0.5552960000000  0.5574530000000  0.5384060000000 1.0
C      1  0.5317270000000  0.5129170000000  0.6079520000000 1.0
C      1  0.4756750000000  0.4230350000000  0.4681400000000 1.0
C      1  0.6026910000000  0.4645860000000  0.5249450000000 1.0
C      1  0.4747190000000  0.5904870000000  0.4417160000000 1.0
C      1  0.4578870000000  0.6029060000000  0.4685800000000 1.0
C      1  0.5033670000000  0.4748090000000  0.5739620000000 1.0
C      1  0.4135570000000  0.4967660000000  0.4364280000000 1.0
C      1  0.5315550000000  0.5766360000000  0.4211380000000 1.0
C      1  0.5013300000000  0.3944020000000  0.5351440000000 1.0
C      1  0.4879100000000  0.3940770000000  0.4811390000000 1.0
C      1  0.5195050000000  0.4012060000000  0.4713580000000 1.0
C      1  0.5804590000000  0.5623200000000  0.4779320000000 1.0
C      1  0.4553180000000  0.5127280000000  0.5560670000000 1.0
C      1  0.5998020000000  0.4933670000000  0.4671350000000 1.0
C      1  0.6049340000000  0.5421120000000  0.5530740000000 1.0
C      1  0.4462880000000  0.4607730000000  0.5950760000000 1.0
C      1  0.6129730000000  0.5220570000000  0.4643390000000 1.0
C      1  0.5460840000000  0.4574520000000  0.5698670000000 1.0
C      1  0.5360050000000  0.4666190000000  0.4126650000000 1.0
C      1  0.5172090000000  0.4261600000000  0.4904140000000 1.0
C      1  0.4383100000000  0.5126050000000  0.4100790000000 1.0
C      1  0.6065380000000  0.4777990000000  0.4312540000000 1.0
C      1  0.5697450000000  0.4007270000000  0.4826400000000 1.0
C      1  0.6104800000000  0.4800310000000  0.4906800000000 1.0
C      1  0.5726550000000  0.5584790000000  0.4115940000000 1.0
C      1  0.4953550000000  0.5154530000000  0.4241520000000 1.0
C      1  0.4003140000000  0.4537240000000  0.5675190000000 1.0
C      1  0.5171530000000  0.5244390000000  0.4019440000000 1.0
C      1  0.4747300000000  0.4584710000000  0.6037330000000 1.0
C      1  0.5068700000000  0.4453320000000  0.5725830000000 1.0
C      1  0.3995040000000  0.5293230000000  0.5442170000000 1.0
C      1  0.5531550000000  0.4887500000000  0.5972970000000 1.0
C      1  0.5525930000000  0.3941190000000  0.5500730000000 1.0
C      1  0.5762320000000  0.4645050000000  0.5390210000000 1.0
C      1  0.5002070000000  0.5219480000000  0.4675960000000 1.0
C      1  0.5042070000000  0.5771810000000  0.4293560000000 1.0
C      1  0.5050340000000  0.4705330000000  0.4073810000000 1.0
C      1  0.4812360000000  0.4158840000000  0.4157300000000 1.0
C      1  0.5329510000000  0.3898030000000  0.5235090000000 1.0
C      1  0.6029130000000  0.5428740000000  0.4416800000000 1.0
C      1  0.5420780000000  0.5830960000000  0.5513100000000 1.0
C      1  0.4340580000000  0.4350120000000  0.4333730000000 1.0
C      1  0.5417400000000  0.5447560000000  0.4150970000000 1.0
C      1  0.5521480000000  0.5125780000000  0.5737700000000 1.0
C      1  0.4840060000000  0.4596890000000  0.3921570000000 1.0
C      1  0.4156450000000  0.5444990000000  0.4647380000000 1.0
C      1  0.5693160000000  0.5123310000000  0.5033670000000 1.0
C      1  0.4719250000000  0.5679850000000  0.4861130000000 1.0
C      1  0.5733920000000  0.5757320000000  0.5032310000000 1.0
C      1  0.4337450000000  0.4982050000000  0.4707520000000 1.0
C      1  0.5129370000000  0.5433880000000  0.5265800000000 1.0
C      1  0.5081760000000  0.5251470000000  0.5889370000000 1.0
C      1  0.4303560000000  0.5897180000000  0.4831440000000 1.0
C      1  0.5563320000000  0.4421260000000  0.4200690000000 1.0
C      1  0.4792440000000  0.4813380000000  0.4586230000000 1.0
C      1  0.4705240000000  0.4844110000000  0.5538950000000 1.0
C      1  0.4625590000000  0.3747630000000  0.4701940000000 1.0
C      1  0.4271300000000  0.5720290000000  0.4572320000000 1.0
C      1  0.5516560000000  0.4042000000000  0.5032720000000 1.0
C      1  0.3928650000000  0.4405580000000  0.4833900000000 1.0
C      1  0.4364940000000  0.5277020000000  0.4819970000000 1.0
C      1  0.4411040000000  0.3924980000000  0.4779070000000 1.0
C      1  0.5057660000000  0.3792160000000  0.5059750000000 1.0
C      1  0.4837550000000  0.5226030000000  0.3940390000000 1.0
C      1  0.4461190000000  0.4977660000000  0.5086220000000 1.0
C      1  0.4098430000000  0.4739460000000  0.5365760000000 1.0
C      1  0.5022530000000  0.5923530000000  0.5219970000000 1.0
C      1  0.5314800000000  0.4718940000000  0.5463750000000 1.0
C      1  0.4370350000000  0.5923530000000  0.5161910000000 1.0
C      1  0.4138170000000  0.4625910000000  0.4686790000000 1.0
C      1  0.4755020000000  0.4522130000000  0.4856400000000 1.0
C      1  0.6076510000000  0.5108620000000  0.4321110000000 1.0
C      1  0.4014740000000  0.4920860000000  0.4669840000000 1.0
C      1  0.4409280000000  0.5961830000000  0.5696700000000 1.0
C      1  0.4364750000000  0.4590240000000  0.4086990000000 1.0
C      1  0.3852190000000  0.5055610000000  0.4874910000000 1.0
C      1  0.4644400000000  0.4279120000000  0.5610920000000 1.0
C      1  0.5278880000000  0.4087260000000  0.4437880000000 1.0
C      1  0.4269910000000  0.5629460000000  0.5302660000000 1.0
C      1  0.4918810000000  0.4227360000000  0.5086230000000 1.0
C      1  0.5175240000000  0.4973550000000  0.4517040000000 1.0
C      1  0.4111850000000  0.4859340000000  0.5687300000000 1.0
C      1  0.4755670000000  0.6156290000000  0.4888220000000 1.0
C      1  0.5510140000000  0.4711480000000  0.4659830000000 1.0
C      1  0.5327620000000  0.4609710000000  0.5985430000000 1.0
C      1  0.5535050000000  0.5852560000000  0.4408780000000 1.0
END
