TITL C-2847948-6138-652 0.00113989253065326 125000 -917.19577061851 0 0 169 (C1) n - 1
REM
REM in /home/bkarasulu/work/CARBON/AIRSS/Generating-Clusters/AIREBO/with-SteepDescent/Only-C1/SD-CG-opt/Try1-1.4A-POS3A/HFTN-CG
REM
REM
REM
REM
REM
REM ./C.cell (11c1c37f851c82e70ff6c80c92926a4b)
REM
REM compiler GCC version 9.2.1 20190827 (Red Hat 9.2.1-1)
REM options -cpp -mtune=generic -march=x86-64 -g -O0 -fpre-include=/usr/include/finclude/math-vector-fortran.h
REM seed -649437185 362272471 637186103 1311738605 -1921345785 647696614 1156884599 2046267460 -1671754436 -1972456522 -1290237948 -344770542 29510461 -2055007480 -1383894958 -1536135081 -1171881604 2091887831 1420856933 823525537 644691541 -544312154 1133069840 -1828457544 1414534719 415557242 -968518772 -330957373 1106077800 376990656 1719440046 2117038355 668336703
REM
CELL 1.54180   50.00000   50.00000   50.00000   90.00000   90.00000   90.00000
LATT -1
SFAC C  
C      1  0.5493530000000  0.4891220000000  0.4716220000000 1.0
C      1  0.4346960000000  0.4478200000000  0.5766700000000 1.0
C      1  0.4800570000000  0.5194150000000  0.4567070000000 1.0
C      1  0.5231010000000  0.4133050000000  0.4542760000000 1.0
C      1  0.4611840000000  0.4030390000000  0.4492280000000 1.0
C      1  0.4475170000000  0.4905840000000  0.3984120000000 1.0
C      1  0.4865170000000  0.4456090000000  0.4744210000000 1.0
C      1  0.5645910000000  0.4461470000000  0.4514990000000 1.0
C      1  0.4831940000000  0.5041770000000  0.5555510000000 1.0
C      1  0.5461740000000  0.4069630000000  0.5073780000000 1.0
C      1  0.5389960000000  0.5042060000000  0.4360950000000 1.0
C      1  0.4813540000000  0.4868710000000  0.5309140000000 1.0
C      1  0.4841820000000  0.5505220000000  0.4677160000000 1.0
C      1  0.5234940000000  0.4710100000000  0.4686250000000 1.0
C      1  0.4649400000000  0.5479800000000  0.5047410000000 1.0
C      1  0.4069030000000  0.5286790000000  0.4556110000000 1.0
C      1  0.6017170000000  0.4625660000000  0.5368210000000 1.0
C      1  0.5689420000000  0.5488930000000  0.5744720000000 1.0
C      1  0.4870380000000  0.5025230000000  0.5040680000000 1.0
C      1  0.4978670000000  0.4438780000000  0.4243090000000 1.0
C      1  0.4518270000000  0.4062920000000  0.5026940000000 1.0
C      1  0.5696570000000  0.4604960000000  0.5015260000000 1.0
C      1  0.5756420000000  0.5694320000000  0.5210500000000 1.0
C      1  0.5059370000000  0.5785660000000  0.4858180000000 1.0
C      1  0.4900700000000  0.5909600000000  0.5501330000000 1.0
C      1  0.5256890000000  0.4789800000000  0.3989800000000 1.0
C      1  0.4034380000000  0.5056790000000  0.5387950000000 1.0
C      1  0.4645550000000  0.5437550000000  0.4290540000000 1.0
C      1  0.4109670000000  0.5006170000000  0.4532580000000 1.0
C      1  0.6045870000000  0.5091800000000  0.4738800000000 1.0
C      1  0.5395050000000  0.5438230000000  0.4370000000000 1.0
C      1  0.5560460000000  0.5224080000000  0.5794360000000 1.0
C      1  0.6009020000000  0.5471430000000  0.5134350000000 1.0
C      1  0.5931950000000  0.4836760000000  0.4932710000000 1.0
C      1  0.4912110000000  0.5474600000000  0.5263740000000 1.0
C      1  0.4864060000000  0.4547480000000  0.5245540000000 1.0
C      1  0.5491920000000  0.4681400000000  0.4114350000000 1.0
C      1  0.5855770000000  0.4358550000000  0.5161870000000 1.0
C      1  0.4572210000000  0.5068080000000  0.4778040000000 1.0
C      1  0.5551780000000  0.5878850000000  0.4694120000000 1.0
C      1  0.5921810000000  0.4479190000000  0.4548130000000 1.0
C      1  0.5239570000000  0.4926180000000  0.5359560000000 1.0
C      1  0.5062070000000  0.4287790000000  0.5574370000000 1.0
C      1  0.4186470000000  0.5356110000000  0.5335770000000 1.0
C      1  0.4727680000000  0.4218830000000  0.4234670000000 1.0
C      1  0.4941480000000  0.5959070000000  0.5197310000000 1.0
C      1  0.4542690000000  0.5127230000000  0.4383980000000 1.0
C      1  0.5643820000000  0.4904290000000  0.4221580000000 1.0
C      1  0.5780450000000  0.4101580000000  0.5072440000000 1.0
C      1  0.5547120000000  0.5840200000000  0.5435840000000 1.0
C      1  0.4584710000000  0.4544990000000  0.5912040000000 1.0
C      1  0.5282090000000  0.5252480000000  0.5645980000000 1.0
C      1  0.5275290000000  0.4311650000000  0.6020420000000 1.0
C      1  0.5700370000000  0.5665320000000  0.4484900000000 1.0
C      1  0.4138370000000  0.4486610000000  0.5529050000000 1.0
C      1  0.5224860000000  0.5633170000000  0.5747290000000 1.0
C      1  0.4798870000000  0.5423710000000  0.6071320000000 1.0
C      1  0.5621060000000  0.5404890000000  0.5100520000000 1.0
C      1  0.5210680000000  0.5215300000000  0.4834520000000 1.0
C      1  0.4720720000000  0.4104980000000  0.5600420000000 1.0
C      1  0.5605160000000  0.5399460000000  0.5439160000000 1.0
C      1  0.4958130000000  0.4034280000000  0.5372990000000 1.0
C      1  0.4482990000000  0.4724420000000  0.5045370000000 1.0
C      1  0.5356140000000  0.5670720000000  0.4853330000000 1.0
C      1  0.4655960000000  0.5775270000000  0.5216400000000 1.0
C      1  0.5296230000000  0.5431390000000  0.5356080000000 1.0
C      1  0.5012170000000  0.4185890000000  0.4790960000000 1.0
C      1  0.4637590000000  0.4362480000000  0.5070050000000 1.0
C      1  0.4456980000000  0.5516780000000  0.4784380000000 1.0
C      1  0.4469720000000  0.5966370000000  0.5038490000000 1.0
C      1  0.5233940000000  0.5080260000000  0.3994970000000 1.0
C      1  0.5533970000000  0.4233250000000  0.5362960000000 1.0
C      1  0.5490630000000  0.5703670000000  0.5671430000000 1.0
C      1  0.4301770000000  0.5267150000000  0.4192160000000 1.0
C      1  0.4468980000000  0.4267570000000  0.5529230000000 1.0
C      1  0.5729930000000  0.5119510000000  0.5354330000000 1.0
C      1  0.5075890000000  0.4729010000000  0.5576630000000 1.0
C      1  0.5276620000000  0.4008860000000  0.5352450000000 1.0
C      1  0.5768930000000  0.5121460000000  0.5021990000000 1.0
C      1  0.4509050000000  0.4771940000000  0.5549100000000 1.0
C      1  0.5040630000000  0.5276310000000  0.6094910000000 1.0
C      1  0.4108960000000  0.4750200000000  0.5361470000000 1.0
C      1  0.5485440000000  0.5221070000000  0.4633860000000 1.0
C      1  0.5380400000000  0.5759830000000  0.4419070000000 1.0
C      1  0.4696140000000  0.4834080000000  0.5893320000000 1.0
C      1  0.5618540000000  0.4620920000000  0.5345880000000 1.0
C      1  0.4611590000000  0.5219790000000  0.5638930000000 1.0
C      1  0.5190170000000  0.4503530000000  0.5804000000000 1.0
C      1  0.6053890000000  0.4874140000000  0.5241420000000 1.0
C      1  0.4436650000000  0.5643680000000  0.5743560000000 1.0
C      1  0.4823100000000  0.4345490000000  0.5813280000000 1.0
C      1  0.4731920000000  0.5791230000000  0.4624890000000 1.0
C      1  0.4784970000000  0.4574330000000  0.5570340000000 1.0
C      1  0.5820460000000  0.5124440000000  0.4257240000000 1.0
C      1  0.4403520000000  0.5785700000000  0.4583240000000 1.0
C      1  0.4235900000000  0.4053770000000  0.5151870000000 1.0
C      1  0.4941420000000  0.5605570000000  0.5577260000000 1.0
C      1  0.5304650000000  0.5677380000000  0.5167470000000 1.0
C      1  0.4887490000000  0.5431720000000  0.4139750000000 1.0
C      1  0.5237690000000  0.5407310000000  0.5942450000000 1.0
C      1  0.4736100000000  0.3988520000000  0.4777770000000 1.0
C      1  0.4250580000000  0.5186690000000  0.4982800000000 1.0
C      1  0.5536680000000  0.4895600000000  0.5436960000000 1.0
C      1  0.4753380000000  0.4736640000000  0.4903940000000 1.0
C      1  0.5476860000000  0.5976570000000  0.5074660000000 1.0
C      1  0.4973250000000  0.4689830000000  0.5992210000000 1.0
C      1  0.4144860000000  0.5506100000000  0.5032910000000 1.0
C      1  0.4784410000000  0.4900240000000  0.4023460000000 1.0
C      1  0.3943720000000  0.5358930000000  0.4799860000000 1.0
C      1  0.4212610000000  0.5493570000000  0.5799530000000 1.0
C      1  0.4564320000000  0.5156570000000  0.5110460000000 1.0
C      1  0.4395740000000  0.4913530000000  0.5278550000000 1.0
C      1  0.5955980000000  0.5405840000000  0.4814560000000 1.0
C      1  0.4417460000000  0.4991620000000  0.5778380000000 1.0
C      1  0.5490010000000  0.4999170000000  0.5017580000000 1.0
C      1  0.5786730000000  0.5318490000000  0.4040180000000 1.0
C      1  0.4976590000000  0.4652810000000  0.4507410000000 1.0
C      1  0.4197310000000  0.5214380000000  0.5644710000000 1.0
C      1  0.5470940000000  0.5259610000000  0.4112430000000 1.0
C      1  0.4494200000000  0.5339710000000  0.5388270000000 1.0
C      1  0.4274250000000  0.4935340000000  0.4777630000000 1.0
C      1  0.5032790000000  0.5458130000000  0.4946150000000 1.0
C      1  0.4503930000000  0.4800480000000  0.4306130000000 1.0
C      1  0.5656800000000  0.4980230000000  0.5722080000000 1.0
C      1  0.5258730000000  0.5978580000000  0.5318360000000 1.0
C      1  0.4214660000000  0.4741910000000  0.4432710000000 1.0
C      1  0.5342510000000  0.4218750000000  0.4847410000000 1.0
C      1  0.5099960000000  0.5145810000000  0.4413050000000 1.0
C      1  0.5814000000000  0.5220050000000  0.4545630000000 1.0
C      1  0.4383870000000  0.4224540000000  0.4311070000000 1.0
C      1  0.5630550000000  0.5495360000000  0.4772880000000 1.0
C      1  0.4780180000000  0.5975630000000  0.4898160000000 1.0
C      1  0.5483680000000  0.4496490000000  0.4776590000000 1.0
C      1  0.4930010000000  0.5906940000000  0.4378740000000 1.0
C      1  0.5489960000000  0.4556650000000  0.5652260000000 1.0
C      1  0.4308890000000  0.5122910000000  0.3960560000000 1.0
C      1  0.5175550000000  0.4900160000000  0.4957690000000 1.0
C      1  0.5103070000000  0.5676550000000  0.4236630000000 1.0
C      1  0.5005480000000  0.4653030000000  0.4009700000000 1.0
C      1  0.5161010000000  0.4655590000000  0.5193830000000 1.0
C      1  0.4626360000000  0.4350870000000  0.4597930000000 1.0
C      1  0.4576800000000  0.4504240000000  0.4298520000000 1.0
C      1  0.5087180000000  0.5024100000000  0.5714970000000 1.0
C      1  0.4715130000000  0.5484810000000  0.5776530000000 1.0
C      1  0.4272050000000  0.5776040000000  0.4900070000000 1.0
C      1  0.5262550000000  0.4406850000000  0.5362140000000 1.0
C      1  0.4346960000000  0.5462170000000  0.4467110000000 1.0
C      1  0.5754610000000  0.5922710000000  0.4958560000000 1.0
C      1  0.5065720000000  0.6008960000000  0.4621440000000 1.0
C      1  0.4476210000000  0.4525170000000  0.5321250000000 1.0
C      1  0.5245500000000  0.4300500000000  0.4316390000000 1.0
C      1  0.4536580000000  0.5640070000000  0.5455070000000 1.0
C      1  0.6047100000000  0.5201720000000  0.5293810000000 1.0
C      1  0.5035220000000  0.4997720000000  0.6020350000000 1.0
C      1  0.4250320000000  0.4455650000000  0.4524330000000 1.0
C      1  0.4967420000000  0.5186760000000  0.4015610000000 1.0
C      1  0.4408460000000  0.4402410000000  0.4821090000000 1.0
C      1  0.3928000000000  0.5182950000000  0.5090450000000 1.0
C      1  0.5088840000000  0.5185070000000  0.5246690000000 1.0
C      1  0.4001300000000  0.4647110000000  0.5078800000000 1.0
C      1  0.4191720000000  0.4217820000000  0.5364780000000 1.0
C      1  0.5479410000000  0.4454060000000  0.4286040000000 1.0
C      1  0.4947260000000  0.4912790000000  0.4305040000000 1.0
C      1  0.5810990000000  0.4384250000000  0.5490200000000 1.0
C      1  0.6076850000000  0.4621970000000  0.4722580000000 1.0
C      1  0.4688110000000  0.4812790000000  0.4590110000000 1.0
C      1  0.4214690000000  0.4655220000000  0.4886740000000 1.0
C      1  0.5087490000000  0.5454560000000  0.4482690000000 1.0
C      1  0.4848920000000  0.4027220000000  0.5097730000000 1.0
END
