TITL C-2847950-6905-276 1.78271156590312e-05 125000 -75.5076637535091 0 0 15 (C1) n - 1
REM
REM in /home/bkarasulu/work/CARBON/AIRSS/Generating-Clusters/AIREBO/with-SteepDescent/Only-C1/SD-CG-opt/Try1-1.4A-POS3A/HFTN-CG
REM
REM
REM
REM
REM
REM ./C.cell (11c1c37f851c82e70ff6c80c92926a4b)
REM
REM compiler GCC version 9.2.1 20190827 (Red Hat 9.2.1-1)
REM options -cpp -mtune=generic -march=x86-64 -g -O0 -fpre-include=/usr/include/finclude/math-vector-fortran.h
REM seed -1506177156 -368962485 -2014051051 341382606 -1937774526 84827913 2063382039 1823711037 495196786 -310346804 431644792 345870378 271503019 396902454 521197200 -258457198 622820133 -1974288382 -1609869115 1517989951 1834247830 -496541961 1165026532 -860098678 -1665974003 -320067291 896184347 -267041339 460750561 -1170079580 1233768481 -1123698077 -1022467718
REM
CELL 1.54180   50.00000   50.00000   50.00000   90.00000   90.00000   90.00000
LATT -1
SFAC C  
C      1  0.4852700000000  0.4945780000000  0.5015520000000 1.0
C      1  0.5114800000000  0.5026890000000  0.5117680000000 1.0
C      1  0.4422370000000  0.5002490000000  0.5364490000000 1.0
C      1  0.4843450000000  0.4704530000000  0.4790790000000 1.0
C      1  0.4727750000000  0.5177690000000  0.4510970000000 1.0
C      1  0.4691630000000  0.5352480000000  0.4319030000000 1.0
C      1  0.5519990000000  0.5026610000000  0.5351810000000 1.0
C      1  0.5223280000000  0.5295120000000  0.5125080000000 1.0
C      1  0.5633740000000  0.5515900000000  0.5316540000000 1.0
C      1  0.5305110000000  0.4864550000000  0.5261160000000 1.0
C      1  0.4787780000000  0.5009670000000  0.4694560000000 1.0
C      1  0.5477720000000  0.5304030000000  0.5270170000000 1.0
C      1  0.4618650000000  0.4962960000000  0.5206220000000 1.0
C      1  0.4744680000000  0.4387390000000  0.4863370000000 1.0
C      1  0.5036350000000  0.4423900000000  0.4792620000000 1.0
END
