TITL C-2847951-7423-199 0.00142524271728041 125000 -730.238559378437 0 0 130 (C1) n - 1
REM
REM in /home/bkarasulu/work/CARBON/AIRSS/Generating-Clusters/AIREBO/with-SteepDescent/Only-C1/SD-CG-opt/Try1-1.4A-POS3A/HFTN-CG
REM
REM
REM
REM
REM
REM ./C.cell (11c1c37f851c82e70ff6c80c92926a4b)
REM
REM compiler GCC version 9.2.1 20190827 (Red Hat 9.2.1-1)
REM options -cpp -mtune=generic -march=x86-64 -g -O0 -fpre-include=/usr/include/finclude/math-vector-fortran.h
REM seed -515076348 -1038392221 1867950835 -1564608749 -838671957 2097625639 2011628467 -1404140921 111726762 1091120554 1796100533 -382656785 1837884479 -425106426 532664263 1099346 -1950433497 582987055 1120041145 642089800 -1168378722 2029370751 147815763 -728252956 289173219 -2146052285 449392942 -1405663835 -1271145153 -2134045493 2022547530 -195027994 1452075484
REM
CELL 1.54180   50.00000   50.00000   50.00000   90.00000   90.00000   90.00000
LATT -1
SFAC C  
C      1  0.4901450000000  0.5264380000000  0.5234050000000 1.0
C      1  0.4961660000000  0.4565220000000  0.4858000000000 1.0
C      1  0.5141030000000  0.6076640000000  0.4779580000000 1.0
C      1  0.5490550000000  0.5299680000000  0.5315440000000 1.0
C      1  0.4215320000000  0.4953300000000  0.4585130000000 1.0
C      1  0.5688150000000  0.5607600000000  0.5038010000000 1.0
C      1  0.5354920000000  0.5033480000000  0.4661520000000 1.0
C      1  0.4669080000000  0.4695450000000  0.4866220000000 1.0
C      1  0.4775060000000  0.4998410000000  0.4171150000000 1.0
C      1  0.4431150000000  0.4751640000000  0.5739940000000 1.0
C      1  0.4993990000000  0.5838060000000  0.5577710000000 1.0
C      1  0.5686490000000  0.5169590000000  0.5530510000000 1.0
C      1  0.5118790000000  0.5762300000000  0.4051310000000 1.0
C      1  0.4851580000000  0.4528070000000  0.5335060000000 1.0
C      1  0.4716040000000  0.4390800000000  0.5588260000000 1.0
C      1  0.4423430000000  0.4295110000000  0.5082020000000 1.0
C      1  0.4138930000000  0.4983320000000  0.5265980000000 1.0
C      1  0.4699810000000  0.5507280000000  0.4079760000000 1.0
C      1  0.4751370000000  0.4903400000000  0.5399370000000 1.0
C      1  0.4625310000000  0.4112180000000  0.5002460000000 1.0
C      1  0.5196590000000  0.4187920000000  0.5527510000000 1.0
C      1  0.4291910000000  0.5215230000000  0.5080180000000 1.0
C      1  0.5201170000000  0.4511080000000  0.4663670000000 1.0
C      1  0.4454280000000  0.4224120000000  0.4589960000000 1.0
C      1  0.5483900000000  0.5245160000000  0.4294870000000 1.0
C      1  0.4654200000000  0.5419660000000  0.4517790000000 1.0
C      1  0.5085080000000  0.4841330000000  0.5419660000000 1.0
C      1  0.5666000000000  0.5493140000000  0.5613460000000 1.0
C      1  0.5387870000000  0.5580690000000  0.5749140000000 1.0
C      1  0.5099550000000  0.4302760000000  0.4447880000000 1.0
C      1  0.4643120000000  0.4423660000000  0.4300950000000 1.0
C      1  0.4427170000000  0.4636390000000  0.4224930000000 1.0
C      1  0.5563710000000  0.4986180000000  0.4887350000000 1.0
C      1  0.5389540000000  0.5520470000000  0.4900520000000 1.0
C      1  0.4964000000000  0.4479010000000  0.4226210000000 1.0
C      1  0.4935200000000  0.5577630000000  0.4481050000000 1.0
C      1  0.5295000000000  0.5690430000000  0.5179540000000 1.0
C      1  0.4840580000000  0.5944980000000  0.5147390000000 1.0
C      1  0.5029740000000  0.5000570000000  0.4566910000000 1.0
C      1  0.5355610000000  0.4111420000000  0.4344400000000 1.0
C      1  0.4717610000000  0.5532070000000  0.4819610000000 1.0
C      1  0.5798330000000  0.5550550000000  0.5354110000000 1.0
C      1  0.4055030000000  0.5495770000000  0.4922920000000 1.0
C      1  0.4095190000000  0.5407230000000  0.4312270000000 1.0
C      1  0.4920680000000  0.5630020000000  0.4184000000000 1.0
C      1  0.4629530000000  0.4067770000000  0.4725980000000 1.0
C      1  0.5288570000000  0.5508690000000  0.6043150000000 1.0
C      1  0.5225360000000  0.5918370000000  0.5432890000000 1.0
C      1  0.5655290000000  0.4180270000000  0.4756650000000 1.0
C      1  0.5705000000000  0.5151150000000  0.4510480000000 1.0
C      1  0.5399780000000  0.4074980000000  0.4640440000000 1.0
C      1  0.5894610000000  0.4657190000000  0.4629160000000 1.0
C      1  0.5883820000000  0.4902150000000  0.4943820000000 1.0
C      1  0.5544360000000  0.4988810000000  0.5711460000000 1.0
C      1  0.4143910000000  0.4714900000000  0.5216480000000 1.0
C      1  0.4225870000000  0.4549160000000  0.4971500000000 1.0
C      1  0.4466920000000  0.4946730000000  0.5518780000000 1.0
C      1  0.4946790000000  0.5141680000000  0.4949280000000 1.0
C      1  0.5445110000000  0.4475040000000  0.5139320000000 1.0
C      1  0.4706260000000  0.5001160000000  0.4801890000000 1.0
C      1  0.5294800000000  0.5506280000000  0.5446700000000 1.0
C      1  0.5208830000000  0.4975940000000  0.5064560000000 1.0
C      1  0.5292400000000  0.5161520000000  0.4110140000000 1.0
C      1  0.5030540000000  0.5306870000000  0.4663890000000 1.0
C      1  0.3908640000000  0.5554190000000  0.4218890000000 1.0
C      1  0.4969540000000  0.5833700000000  0.4662110000000 1.0
C      1  0.5256440000000  0.5011410000000  0.5657430000000 1.0
C      1  0.5770540000000  0.4482180000000  0.4862520000000 1.0
C      1  0.5155200000000  0.4450360000000  0.5315270000000 1.0
C      1  0.5848010000000  0.4947370000000  0.4610540000000 1.0
C      1  0.4876870000000  0.5116600000000  0.5617790000000 1.0
C      1  0.4984440000000  0.4749470000000  0.5113500000000 1.0
C      1  0.4673190000000  0.5393700000000  0.5284390000000 1.0
C      1  0.4743880000000  0.5849700000000  0.4901820000000 1.0
C      1  0.5479700000000  0.4812550000000  0.5167420000000 1.0
C      1  0.4444500000000  0.4860910000000  0.4377850000000 1.0
C      1  0.4345230000000  0.5208070000000  0.5416070000000 1.0
C      1  0.4884060000000  0.4078550000000  0.5112810000000 1.0
C      1  0.4513630000000  0.5455420000000  0.5038450000000 1.0
C      1  0.4284540000000  0.5783050000000  0.5303610000000 1.0
C      1  0.4865330000000  0.5416790000000  0.5777100000000 1.0
C      1  0.5949480000000  0.4790600000000  0.5412470000000 1.0
C      1  0.5662680000000  0.4741920000000  0.5738460000000 1.0
C      1  0.4907310000000  0.4058120000000  0.4590340000000 1.0
C      1  0.5404100000000  0.5230110000000  0.5048560000000 1.0
C      1  0.5830980000000  0.4628240000000  0.5138250000000 1.0
C      1  0.5264190000000  0.4761550000000  0.4507520000000 1.0
C      1  0.4598170000000  0.4690540000000  0.5181020000000 1.0
C      1  0.4776980000000  0.4694900000000  0.4041590000000 1.0
C      1  0.4731800000000  0.4925470000000  0.4486110000000 1.0
C      1  0.5840940000000  0.5316500000000  0.5129290000000 1.0
C      1  0.5094170000000  0.4618010000000  0.5750460000000 1.0
C      1  0.5444210000000  0.5350790000000  0.4615600000000 1.0
C      1  0.4290980000000  0.4684470000000  0.4737300000000 1.0
C      1  0.5060000000000  0.5092100000000  0.5903360000000 1.0
C      1  0.4158320000000  0.5218330000000  0.4784850000000 1.0
C      1  0.5161990000000  0.5298820000000  0.6093530000000 1.0
C      1  0.4637480000000  0.4932960000000  0.5879230000000 1.0
C      1  0.5166870000000  0.4704150000000  0.4124350000000 1.0
C      1  0.4587750000000  0.5242940000000  0.5852650000000 1.0
C      1  0.5670980000000  0.4598000000000  0.5443470000000 1.0
C      1  0.4245770000000  0.5612180000000  0.5081340000000 1.0
C      1  0.4763100000000  0.5859990000000  0.5409350000000 1.0
C      1  0.4516310000000  0.5732310000000  0.5462860000000 1.0
C      1  0.5437020000000  0.4425600000000  0.4828270000000 1.0
C      1  0.5157260000000  0.4094770000000  0.4783650000000 1.0
C      1  0.5343040000000  0.4646540000000  0.5519950000000 1.0
C      1  0.5671330000000  0.4590200000000  0.4169450000000 1.0
C      1  0.5167860000000  0.5997430000000  0.5107210000000 1.0
C      1  0.4316250000000  0.5233910000000  0.4420100000000 1.0
C      1  0.5751410000000  0.5006980000000  0.5238960000000 1.0
C      1  0.4768680000000  0.4131250000000  0.4304050000000 1.0
C      1  0.4369990000000  0.4507030000000  0.5338040000000 1.0
C      1  0.4527520000000  0.4538780000000  0.4599440000000 1.0
C      1  0.4453100000000  0.4488160000000  0.5628360000000 1.0
C      1  0.5088410000000  0.4315370000000  0.5010310000000 1.0
C      1  0.5055640000000  0.5570890000000  0.4859910000000 1.0
C      1  0.4490290000000  0.5211590000000  0.4711520000000 1.0
C      1  0.5049690000000  0.5616940000000  0.5741740000000 1.0
C      1  0.5495920000000  0.6081460000000  0.5076410000000 1.0
C      1  0.5414540000000  0.4155520000000  0.5268560000000 1.0
C      1  0.4992030000000  0.4357320000000  0.5685890000000 1.0
C      1  0.5121050000000  0.5244620000000  0.5448360000000 1.0
C      1  0.5082680000000  0.4967510000000  0.4097200000000 1.0
C      1  0.4519910000000  0.5433710000000  0.5579010000000 1.0
C      1  0.5430620000000  0.4679580000000  0.4247650000000 1.0
C      1  0.4596070000000  0.5245310000000  0.4233580000000 1.0
C      1  0.5670630000000  0.5918750000000  0.4994060000000 1.0
C      1  0.4921130000000  0.4809980000000  0.5869560000000 1.0
C      1  0.5166720000000  0.3971740000000  0.5194880000000 1.0
END
