TITL C-2848509-3138-442 -0.000793936239533533 125000 -946.802033906411 0 0 177 (C1) n - 1
REM
REM in /home/bkarasulu/work/CARBON/AIRSS/Generating-Clusters/AIREBO/with-SteepDescent/Only-C1/SD-CG-opt/Try1-1.4A-POS3A/HFTN-CG
REM
REM
REM
REM
REM
REM ./C.cell (11c1c37f851c82e70ff6c80c92926a4b)
REM
REM compiler GCC version 9.2.1 20190827 (Red Hat 9.2.1-1)
REM options -cpp -mtune=generic -march=x86-64 -g -O0 -fpre-include=/usr/include/finclude/math-vector-fortran.h
REM seed 1675563251 1451932592 -2098366216 1047462465 1836532772 -624098962 -19758061 -1935015156 566900073 737257941 -1197998968 -829271181 -194878995 -1280442557 -1592810314 -1340278128 823657682 1341133424 -1549627925 -1069248121 39725426 -1447158072 -1203958246 1219111457 1355174906 -553714249 2105014 939872932 -666522567 -2121122961 -1602363886 2024527734 693570345
REM
CELL 1.54180   50.00000   50.00000   50.00000   90.00000   90.00000   90.00000
LATT -1
SFAC C  
C      1  0.5704200000000  0.4924950000000  0.4085720000000 1.0
C      1  0.4795020000000  0.5092590000000  0.6035750000000 1.0
C      1  0.4766400000000  0.4587550000000  0.5768520000000 1.0
C      1  0.5806870000000  0.5621030000000  0.4544150000000 1.0
C      1  0.4600150000000  0.4412920000000  0.4143690000000 1.0
C      1  0.4604990000000  0.4948340000000  0.4415170000000 1.0
C      1  0.4939190000000  0.4437330000000  0.4153650000000 1.0
C      1  0.5414070000000  0.6209440000000  0.5051880000000 1.0
C      1  0.5188050000000  0.4078980000000  0.5281810000000 1.0
C      1  0.5232160000000  0.5564840000000  0.5963120000000 1.0
C      1  0.4210280000000  0.5316530000000  0.4073480000000 1.0
C      1  0.5284780000000  0.4703310000000  0.5841920000000 1.0
C      1  0.4176350000000  0.5602320000000  0.4902310000000 1.0
C      1  0.5749480000000  0.4760990000000  0.5886100000000 1.0
C      1  0.4904530000000  0.3906330000000  0.5113440000000 1.0
C      1  0.5618030000000  0.5554310000000  0.4252100000000 1.0
C      1  0.5148520000000  0.5867180000000  0.5595280000000 1.0
C      1  0.4681360000000  0.5132790000000  0.4690450000000 1.0
C      1  0.5183670000000  0.4395220000000  0.5409400000000 1.0
C      1  0.4892670000000  0.4213210000000  0.5211560000000 1.0
C      1  0.5572150000000  0.4768670000000  0.5407160000000 1.0
C      1  0.5053320000000  0.4570570000000  0.5671040000000 1.0
C      1  0.4690620000000  0.4215980000000  0.4369590000000 1.0
C      1  0.4604150000000  0.4030840000000  0.5008580000000 1.0
C      1  0.4970260000000  0.5723190000000  0.4281980000000 1.0
C      1  0.4536880000000  0.4465570000000  0.4697190000000 1.0
C      1  0.5507860000000  0.5459720000000  0.4559560000000 1.0
C      1  0.4865970000000  0.5771390000000  0.5704370000000 1.0
C      1  0.5948280000000  0.5453870000000  0.4802160000000 1.0
C      1  0.5089860000000  0.5959590000000  0.5326560000000 1.0
C      1  0.6165030000000  0.5055940000000  0.5172870000000 1.0
C      1  0.4876270000000  0.4950270000000  0.5297560000000 1.0
C      1  0.5354910000000  0.4646530000000  0.4534940000000 1.0
C      1  0.4927030000000  0.4979470000000  0.4522250000000 1.0
C      1  0.5251140000000  0.5204780000000  0.4024180000000 1.0
C      1  0.5109490000000  0.5785480000000  0.5034920000000 1.0
C      1  0.4110230000000  0.4519160000000  0.5618400000000 1.0
C      1  0.5726730000000  0.4833040000000  0.4932980000000 1.0
C      1  0.4458330000000  0.5419560000000  0.4481690000000 1.0
C      1  0.4661100000000  0.4829650000000  0.5967170000000 1.0
C      1  0.5372420000000  0.4896730000000  0.4102660000000 1.0
C      1  0.5482670000000  0.4110850000000  0.5171830000000 1.0
C      1  0.5861110000000  0.4531280000000  0.4708120000000 1.0
C      1  0.4722440000000  0.5060300000000  0.5646650000000 1.0
C      1  0.4902150000000  0.5623110000000  0.4815000000000 1.0
C      1  0.3927280000000  0.4429380000000  0.4864070000000 1.0
C      1  0.5829100000000  0.5003390000000  0.5175660000000 1.0
C      1  0.3937110000000  0.5057190000000  0.4946780000000 1.0
C      1  0.5582580000000  0.4849680000000  0.6095240000000 1.0
C      1  0.5885070000000  0.4844020000000  0.4635160000000 1.0
C      1  0.4914350000000  0.4581390000000  0.4546050000000 1.0
C      1  0.4606400000000  0.4853200000000  0.5416160000000 1.0
C      1  0.5094180000000  0.4845430000000  0.5505440000000 1.0
C      1  0.4601050000000  0.4614030000000  0.4418020000000 1.0
C      1  0.5644030000000  0.5833390000000  0.4683800000000 1.0
C      1  0.4627660000000  0.5093580000000  0.4020530000000 1.0
C      1  0.4285230000000  0.4605430000000  0.4878140000000 1.0
C      1  0.5381720000000  0.5236720000000  0.5249320000000 1.0
C      1  0.5559780000000  0.5318460000000  0.5756820000000 1.0
C      1  0.4469540000000  0.5468400000000  0.5855370000000 1.0
C      1  0.5081390000000  0.4212760000000  0.4928510000000 1.0
C      1  0.5020980000000  0.5446870000000  0.4089920000000 1.0
C      1  0.5584020000000  0.5738750000000  0.5113370000000 1.0
C      1  0.4243270000000  0.4778240000000  0.4585470000000 1.0
C      1  0.5305640000000  0.4905070000000  0.5245790000000 1.0
C      1  0.4345720000000  0.4720900000000  0.4129600000000 1.0
C      1  0.4693680000000  0.5374910000000  0.4032470000000 1.0
C      1  0.5192460000000  0.4910870000000  0.4631960000000 1.0
C      1  0.4399450000000  0.5559440000000  0.5521410000000 1.0
C      1  0.5206360000000  0.5211460000000  0.5607790000000 1.0
C      1  0.5683460000000  0.5235230000000  0.4376110000000 1.0
C      1  0.4214300000000  0.4902040000000  0.4345550000000 1.0
C      1  0.5629560000000  0.5340200000000  0.4854300000000 1.0
C      1  0.4632500000000  0.5506190000000  0.4936440000000 1.0
C      1  0.4672170000000  0.5389610000000  0.5409600000000 1.0
C      1  0.3778250000000  0.4873050000000  0.5070790000000 1.0
C      1  0.5554240000000  0.4156070000000  0.4555950000000 1.0
C      1  0.5229510000000  0.5030310000000  0.4938690000000 1.0
C      1  0.5930580000000  0.5149600000000  0.4539440000000 1.0
C      1  0.4761730000000  0.4267150000000  0.4838220000000 1.0
C      1  0.5292190000000  0.5370580000000  0.4883920000000 1.0
C      1  0.5062180000000  0.5211680000000  0.5324180000000 1.0
C      1  0.5101110000000  0.4690940000000  0.4312490000000 1.0
C      1  0.4909520000000  0.5039760000000  0.5000970000000 1.0
C      1  0.4934730000000  0.5550440000000  0.5915510000000 1.0
C      1  0.4570020000000  0.5850980000000  0.5562240000000 1.0
C      1  0.5548890000000  0.4635170000000  0.5700690000000 1.0
C      1  0.5347280000000  0.5744750000000  0.5758060000000 1.0
C      1  0.4150270000000  0.4395760000000  0.4646620000000 1.0
C      1  0.5806210000000  0.4364260000000  0.4926790000000 1.0
C      1  0.4212850000000  0.4937650000000  0.4884340000000 1.0
C      1  0.4565270000000  0.5854000000000  0.4540460000000 1.0
C      1  0.4371470000000  0.4188290000000  0.4803950000000 1.0
C      1  0.4385130000000  0.4039610000000  0.5461890000000 1.0
C      1  0.4526420000000  0.4385740000000  0.5838200000000 1.0
C      1  0.5818470000000  0.4820780000000  0.4310650000000 1.0
C      1  0.5830940000000  0.5646670000000  0.5413280000000 1.0
C      1  0.5493810000000  0.4604340000000  0.4990510000000 1.0
C      1  0.5228240000000  0.4330790000000  0.4207670000000 1.0
C      1  0.6151550000000  0.4820690000000  0.4929500000000 1.0
C      1  0.4405720000000  0.5294600000000  0.4793500000000 1.0
C      1  0.6035630000000  0.5133330000000  0.4862560000000 1.0
C      1  0.5649670000000  0.4578930000000  0.4457270000000 1.0
C      1  0.5568390000000  0.5586880000000  0.5605570000000 1.0
C      1  0.3910200000000  0.4582560000000  0.5153660000000 1.0
C      1  0.5276660000000  0.4245690000000  0.4468160000000 1.0
C      1  0.4976780000000  0.4935850000000  0.4131820000000 1.0
C      1  0.5302790000000  0.5675500000000  0.4292870000000 1.0
C      1  0.4509440000000  0.5747260000000  0.5063550000000 1.0
C      1  0.4576740000000  0.4816310000000  0.4001230000000 1.0
C      1  0.4116640000000  0.5371420000000  0.5539200000000 1.0
C      1  0.4356910000000  0.4795670000000  0.5935990000000 1.0
C      1  0.5813090000000  0.5068460000000  0.5499530000000 1.0
C      1  0.5186270000000  0.6101340000000  0.4934780000000 1.0
C      1  0.4899860000000  0.5349490000000  0.5659600000000 1.0
C      1  0.4601810000000  0.4535620000000  0.5475390000000 1.0
C      1  0.5114760000000  0.5532290000000  0.5261870000000 1.0
C      1  0.5203290000000  0.4596440000000  0.5145960000000 1.0
C      1  0.4681190000000  0.5254320000000  0.5126310000000 1.0
C      1  0.4457030000000  0.4563990000000  0.5168850000000 1.0
C      1  0.5362990000000  0.5314420000000  0.5963960000000 1.0
C      1  0.4407020000000  0.5093420000000  0.5067620000000 1.0
C      1  0.4759800000000  0.4557560000000  0.5015300000000 1.0
C      1  0.4679190000000  0.5770950000000  0.4286100000000 1.0
C      1  0.4529780000000  0.5540650000000  0.4186880000000 1.0
C      1  0.5022010000000  0.4999850000000  0.5799900000000 1.0
C      1  0.5392540000000  0.5059580000000  0.4400630000000 1.0
C      1  0.4549510000000  0.4156910000000  0.5693820000000 1.0
C      1  0.4404380000000  0.5012790000000  0.5721140000000 1.0
C      1  0.4655770000000  0.6000290000000  0.5010040000000 1.0
C      1  0.4362610000000  0.4240960000000  0.5120320000000 1.0
C      1  0.4182960000000  0.4680150000000  0.5332550000000 1.0
C      1  0.4146980000000  0.4145290000000  0.5319690000000 1.0
C      1  0.5748200000000  0.4545670000000  0.5208510000000 1.0
C      1  0.5987820000000  0.4813090000000  0.5766820000000 1.0
C      1  0.4760310000000  0.5952270000000  0.5297300000000 1.0
C      1  0.4271060000000  0.5277570000000  0.5774230000000 1.0
C      1  0.4303340000000  0.4464590000000  0.4349170000000 1.0
C      1  0.4355310000000  0.5673480000000  0.4675430000000 1.0
C      1  0.5293040000000  0.5001990000000  0.6005380000000 1.0
C      1  0.5220700000000  0.5302660000000  0.4566160000000 1.0
C      1  0.5620320000000  0.6047180000000  0.5136930000000 1.0
C      1  0.6082700000000  0.4884360000000  0.5459480000000 1.0
C      1  0.4302370000000  0.4941340000000  0.5420590000000 1.0
C      1  0.4660750000000  0.4232180000000  0.5386420000000 1.0
C      1  0.5619960000000  0.4322020000000  0.4277880000000 1.0
C      1  0.4952020000000  0.5210710000000  0.4289300000000 1.0
C      1  0.5046820000000  0.4601150000000  0.4844090000000 1.0
C      1  0.5634570000000  0.4275790000000  0.5354300000000 1.0
C      1  0.5242670000000  0.5799060000000  0.4564310000000 1.0
C      1  0.5070920000000  0.5998120000000  0.4685790000000 1.0
C      1  0.5437680000000  0.5562800000000  0.5322050000000 1.0
C      1  0.4778780000000  0.5919690000000  0.4736740000000 1.0
C      1  0.4902620000000  0.5369770000000  0.4587710000000 1.0
C      1  0.4277390000000  0.5665350000000  0.5221100000000 1.0
C      1  0.4073060000000  0.5312820000000  0.4862190000000 1.0
C      1  0.5507410000000  0.5055310000000  0.5579330000000 1.0
C      1  0.4398870000000  0.5170130000000  0.4260210000000 1.0
C      1  0.5848660000000  0.5552160000000  0.5112090000000 1.0
C      1  0.5313570000000  0.4403790000000  0.4769590000000 1.0
C      1  0.5464810000000  0.4370890000000  0.5563230000000 1.0
C      1  0.5681260000000  0.5271620000000  0.5173080000000 1.0
C      1  0.4860230000000  0.5641580000000  0.5392520000000 1.0
C      1  0.5384590000000  0.5696640000000  0.4855900000000 1.0
C      1  0.5553850000000  0.4188020000000  0.4876240000000 1.0
C      1  0.4995100000000  0.3962820000000  0.4727950000000 1.0
C      1  0.3972590000000  0.4351320000000  0.5397900000000 1.0
C      1  0.4252000000000  0.5233030000000  0.5313290000000 1.0
C      1  0.5540630000000  0.5034950000000  0.4801630000000 1.0
C      1  0.4721360000000  0.4831330000000  0.4842880000000 1.0
C      1  0.6052240000000  0.4676140000000  0.5215090000000 1.0
C      1  0.4695840000000  0.5367290000000  0.6001400000000 1.0
C      1  0.4283340000000  0.4537240000000  0.5840650000000 1.0
C      1  0.5427780000000  0.4558610000000  0.4126390000000 1.0
C      1  0.5146580000000  0.4827100000000  0.3858060000000 1.0
C      1  0.4856020000000  0.4675060000000  0.3950110000000 1.0
C      1  0.4770360000000  0.4061670000000  0.4566200000000 1.0
END
