TITL C-2848496-4490-19 0.000612738059388333 125000 -990.58879805549 0 0 181 (C1) n - 1
REM
REM in /home/bkarasulu/work/CARBON/AIRSS/Generating-Clusters/AIREBO/with-SteepDescent/Only-C1/SD-CG-opt/Try1-1.4A-POS3A/HFTN-CG
REM
REM
REM
REM
REM
REM ./C.cell (11c1c37f851c82e70ff6c80c92926a4b)
REM
REM compiler GCC version 9.2.1 20190827 (Red Hat 9.2.1-1)
REM options -cpp -mtune=generic -march=x86-64 -g -O0 -fpre-include=/usr/include/finclude/math-vector-fortran.h
REM seed 1664579602 1427974636 388131340 763585075 951017564 1027579496 -1559150780 -587688135 529571248 -557279553 -2060874840 -1618575270 447982391 -1430328437 516967318 1511719514 557396458 1890613384 693318602 -1072323687 -1253973543 -1810698016 -1071479794 -156890448 -1992535482 602728208 1940951551 1537208486 -1986388873 1281941529 1467589016 -459749482 -75246126
REM
CELL 1.54180   50.00000   50.00000   50.00000   90.00000   90.00000   90.00000
LATT -1
SFAC C  
C      1  0.4366170000000  0.5453440000000  0.5403990000000 1.0
C      1  0.5745010000000  0.4669450000000  0.4490720000000 1.0
C      1  0.5159150000000  0.4906260000000  0.5229680000000 1.0
C      1  0.6121520000000  0.4798790000000  0.4820310000000 1.0
C      1  0.4422100000000  0.4595490000000  0.5683340000000 1.0
C      1  0.5637510000000  0.4672040000000  0.5295890000000 1.0
C      1  0.5415110000000  0.4476950000000  0.5008490000000 1.0
C      1  0.5523950000000  0.4288300000000  0.4386470000000 1.0
C      1  0.5079470000000  0.4492560000000  0.5530100000000 1.0
C      1  0.4911640000000  0.5579450000000  0.5307110000000 1.0
C      1  0.4369830000000  0.5497000000000  0.4990510000000 1.0
C      1  0.5344150000000  0.4547450000000  0.4275980000000 1.0
C      1  0.4498810000000  0.4114770000000  0.4364320000000 1.0
C      1  0.4682410000000  0.4583210000000  0.4458120000000 1.0
C      1  0.5825640000000  0.5609630000000  0.4535390000000 1.0
C      1  0.5092620000000  0.4157490000000  0.4586930000000 1.0
C      1  0.5934750000000  0.5031690000000  0.4378200000000 1.0
C      1  0.4575480000000  0.5096380000000  0.5585950000000 1.0
C      1  0.5301190000000  0.4062250000000  0.4911200000000 1.0
C      1  0.5196810000000  0.5033960000000  0.4578030000000 1.0
C      1  0.4825600000000  0.5307460000000  0.4837380000000 1.0
C      1  0.5412930000000  0.6024210000000  0.4639970000000 1.0
C      1  0.5081070000000  0.4270250000000  0.5007480000000 1.0
C      1  0.4222210000000  0.4793510000000  0.5673840000000 1.0
C      1  0.5696510000000  0.4364350000000  0.4636900000000 1.0
C      1  0.4281870000000  0.4313620000000  0.4382220000000 1.0
C      1  0.5802830000000  0.5427110000000  0.5524240000000 1.0
C      1  0.4808100000000  0.5535870000000  0.5625510000000 1.0
C      1  0.4184490000000  0.5886010000000  0.5072010000000 1.0
C      1  0.4882400000000  0.6047490000000  0.5154220000000 1.0
C      1  0.4793290000000  0.5791790000000  0.4395170000000 1.0
C      1  0.4945500000000  0.5032250000000  0.4997080000000 1.0
C      1  0.5548030000000  0.5221270000000  0.5911150000000 1.0
C      1  0.4877740000000  0.4435780000000  0.5869640000000 1.0
C      1  0.4171200000000  0.5016000000000  0.4805950000000 1.0
C      1  0.3944600000000  0.5106590000000  0.4988940000000 1.0
C      1  0.4601590000000  0.4039180000000  0.4608780000000 1.0
C      1  0.4232180000000  0.4199450000000  0.5345360000000 1.0
C      1  0.4559730000000  0.4851150000000  0.4728390000000 1.0
C      1  0.4704710000000  0.4169790000000  0.5746840000000 1.0
C      1  0.4955240000000  0.5574600000000  0.4959170000000 1.0
C      1  0.3992170000000  0.4324780000000  0.5303100000000 1.0
C      1  0.4428850000000  0.5828300000000  0.5528500000000 1.0
C      1  0.4242530000000  0.4890150000000  0.4306860000000 1.0
C      1  0.5534530000000  0.4402850000000  0.5619110000000 1.0
C      1  0.4776270000000  0.5519020000000  0.4103730000000 1.0
C      1  0.6150110000000  0.4880160000000  0.5091760000000 1.0
C      1  0.5384580000000  0.4512080000000  0.5993070000000 1.0
C      1  0.5558770000000  0.5112310000000  0.5526720000000 1.0
C      1  0.4578440000000  0.4395800000000  0.5311750000000 1.0
C      1  0.5421180000000  0.6027630000000  0.5211870000000 1.0
C      1  0.5452880000000  0.5257350000000  0.4265810000000 1.0
C      1  0.4027770000000  0.5261460000000  0.5485090000000 1.0
C      1  0.4581630000000  0.3905740000000  0.4877030000000 1.0
C      1  0.4398400000000  0.4100250000000  0.5089450000000 1.0
C      1  0.5033200000000  0.4909040000000  0.4060970000000 1.0
C      1  0.5412490000000  0.4867010000000  0.5643010000000 1.0
C      1  0.4549430000000  0.5821800000000  0.4279550000000 1.0
C      1  0.4710260000000  0.4198100000000  0.5111570000000 1.0
C      1  0.5026050000000  0.4688280000000  0.6012170000000 1.0
C      1  0.5213850000000  0.5198900000000  0.4057810000000 1.0
C      1  0.5618960000000  0.5407640000000  0.5038460000000 1.0
C      1  0.4853410000000  0.4820610000000  0.5510680000000 1.0
C      1  0.4526150000000  0.5620220000000  0.5728940000000 1.0
C      1  0.5984410000000  0.5422160000000  0.5287670000000 1.0
C      1  0.4819720000000  0.5128560000000  0.4145910000000 1.0
C      1  0.5256680000000  0.4605970000000  0.6240370000000 1.0
C      1  0.4422090000000  0.5146290000000  0.4173510000000 1.0
C      1  0.5091070000000  0.5493620000000  0.4074120000000 1.0
C      1  0.3973760000000  0.5491590000000  0.5338450000000 1.0
C      1  0.5764920000000  0.4422210000000  0.5191930000000 1.0
C      1  0.5885090000000  0.5107880000000  0.5608310000000 1.0
C      1  0.4575580000000  0.5266010000000  0.5027860000000 1.0
C      1  0.6056240000000  0.5024500000000  0.4654150000000 1.0
C      1  0.5599130000000  0.5169250000000  0.5216880000000 1.0
C      1  0.4254510000000  0.4855450000000  0.5162350000000 1.0
C      1  0.4902630000000  0.5197430000000  0.5983530000000 1.0
C      1  0.4716990000000  0.4893730000000  0.4450390000000 1.0
C      1  0.4848990000000  0.5261190000000  0.5229920000000 1.0
C      1  0.5133680000000  0.4647450000000  0.4500180000000 1.0
C      1  0.5899770000000  0.4746100000000  0.4196850000000 1.0
C      1  0.5331980000000  0.4679790000000  0.5414050000000 1.0
C      1  0.4689950000000  0.5000800000000  0.5303160000000 1.0
C      1  0.5059400000000  0.3891340000000  0.4791040000000 1.0
C      1  0.4878700000000  0.5129600000000  0.4589610000000 1.0
C      1  0.4898910000000  0.5502300000000  0.4420420000000 1.0
C      1  0.4038850000000  0.5429450000000  0.5039380000000 1.0
C      1  0.4741690000000  0.4527380000000  0.5572820000000 1.0
C      1  0.4449670000000  0.5014390000000  0.4985010000000 1.0
C      1  0.4398280000000  0.4438810000000  0.5030630000000 1.0
C      1  0.4053680000000  0.5716610000000  0.4884500000000 1.0
C      1  0.4740890000000  0.6192130000000  0.4709670000000 1.0
C      1  0.5083650000000  0.5069650000000  0.5518570000000 1.0
C      1  0.5585430000000  0.5568810000000  0.4298200000000 1.0
C      1  0.4643620000000  0.5279190000000  0.4394760000000 1.0
C      1  0.5266460000000  0.4042430000000  0.5308080000000 1.0
C      1  0.5151530000000  0.4854270000000  0.3746930000000 1.0
C      1  0.5232410000000  0.5493200000000  0.5234090000000 1.0
C      1  0.5430950000000  0.5463370000000  0.4760520000000 1.0
C      1  0.5837920000000  0.5342100000000  0.4319980000000 1.0
C      1  0.5309730000000  0.5323790000000  0.5518640000000 1.0
C      1  0.5594940000000  0.5066940000000  0.4830600000000 1.0
C      1  0.4336780000000  0.5602630000000  0.4358950000000 1.0
C      1  0.4372740000000  0.6091660000000  0.5026970000000 1.0
C      1  0.5893920000000  0.5205370000000  0.4836590000000 1.0
C      1  0.4638630000000  0.6161810000000  0.4963240000000 1.0
C      1  0.5738230000000  0.4811400000000  0.3929310000000 1.0
C      1  0.5025500000000  0.5624560000000  0.5824990000000 1.0
C      1  0.5592850000000  0.4672270000000  0.5818240000000 1.0
C      1  0.5506060000000  0.4892320000000  0.4585340000000 1.0
C      1  0.6095100000000  0.4921690000000  0.5424740000000 1.0
C      1  0.5240210000000  0.4169380000000  0.4332220000000 1.0
C      1  0.4141250000000  0.4636390000000  0.4928080000000 1.0
C      1  0.4643290000000  0.4537960000000  0.4063800000000 1.0
C      1  0.4937480000000  0.5963590000000  0.4584610000000 1.0
C      1  0.5850840000000  0.5533350000000  0.4823890000000 1.0
C      1  0.5534590000000  0.3963220000000  0.5114150000000 1.0
C      1  0.5424860000000  0.5642220000000  0.5551120000000 1.0
C      1  0.5588140000000  0.5817910000000  0.5332170000000 1.0
C      1  0.5358860000000  0.5084730000000  0.5039810000000 1.0
C      1  0.4574260000000  0.4277300000000  0.4112300000000 1.0
C      1  0.4191720000000  0.5738160000000  0.5339790000000 1.0
C      1  0.4661380000000  0.5436700000000  0.5982370000000 1.0
C      1  0.3858370000000  0.4884920000000  0.5174740000000 1.0
C      1  0.5719850000000  0.4983750000000  0.5868220000000 1.0
C      1  0.4314210000000  0.5118900000000  0.5369470000000 1.0
C      1  0.4067850000000  0.4814230000000  0.5434410000000 1.0
C      1  0.5800200000000  0.5664590000000  0.5139460000000 1.0
C      1  0.5606400000000  0.5278620000000  0.4568550000000 1.0
C      1  0.5027030000000  0.4808020000000  0.4767550000000 1.0
C      1  0.4815290000000  0.4544720000000  0.4726300000000 1.0
C      1  0.5478340000000  0.4308220000000  0.5297030000000 1.0
C      1  0.4439490000000  0.4267780000000  0.5594430000000 1.0
C      1  0.5160690000000  0.4937190000000  0.5822350000000 1.0
C      1  0.4317340000000  0.5362090000000  0.5728070000000 1.0
C      1  0.4849150000000  0.3851140000000  0.4975510000000 1.0
C      1  0.5109000000000  0.4597590000000  0.5095860000000 1.0
C      1  0.4013330000000  0.4367490000000  0.4763920000000 1.0
C      1  0.5592160000000  0.4213590000000  0.4886330000000 1.0
C      1  0.5614080000000  0.5447700000000  0.5757010000000 1.0
C      1  0.5795360000000  0.4920620000000  0.5267450000000 1.0
C      1  0.5266220000000  0.5630790000000  0.4331480000000 1.0
C      1  0.5314070000000  0.4142570000000  0.5620370000000 1.0
C      1  0.5401670000000  0.4954550000000  0.3913920000000 1.0
C      1  0.5193980000000  0.4365110000000  0.5823780000000 1.0
C      1  0.4813070000000  0.4711200000000  0.5190990000000 1.0
C      1  0.4188280000000  0.4762040000000  0.4615160000000 1.0
C      1  0.5104180000000  0.4358180000000  0.4126890000000 1.0
C      1  0.4828830000000  0.4921830000000  0.6104290000000 1.0
C      1  0.4418980000000  0.5140300000000  0.4609040000000 1.0
C      1  0.4584080000000  0.5621100000000  0.5225040000000 1.0
C      1  0.4931700000000  0.3994620000000  0.5269600000000 1.0
C      1  0.4312260000000  0.5053970000000  0.5763360000000 1.0
C      1  0.4145950000000  0.5674600000000  0.4621440000000 1.0
C      1  0.5606960000000  0.4990220000000  0.4297430000000 1.0
C      1  0.5491440000000  0.4741710000000  0.4137930000000 1.0
C      1  0.4976470000000  0.4169220000000  0.5551340000000 1.0
C      1  0.4889450000000  0.5862950000000  0.4883840000000 1.0
C      1  0.4393020000000  0.5451150000000  0.4654170000000 1.0
C      1  0.5935290000000  0.4387860000000  0.4993240000000 1.0
C      1  0.4549380000000  0.4830220000000  0.4173200000000 1.0
C      1  0.4653000000000  0.5934070000000  0.5340050000000 1.0
C      1  0.5199330000000  0.5337790000000  0.4963130000000 1.0
C      1  0.5988860000000  0.5167030000000  0.5133210000000 1.0
C      1  0.5221920000000  0.5436320000000  0.5827240000000 1.0
C      1  0.5200780000000  0.4440700000000  0.4740960000000 1.0
C      1  0.4485210000000  0.5469910000000  0.4086260000000 1.0
C      1  0.5149440000000  0.6023990000000  0.5312990000000 1.0
C      1  0.4373540000000  0.4553960000000  0.4462360000000 1.0
C      1  0.4829300000000  0.5233100000000  0.5674210000000 1.0
C      1  0.5960440000000  0.4559570000000  0.4725560000000 1.0
C      1  0.4630910000000  0.4635580000000  0.4966960000000 1.0
C      1  0.3915270000000  0.4561080000000  0.5167830000000 1.0
C      1  0.4927120000000  0.4630870000000  0.4226490000000 1.0
C      1  0.5187190000000  0.5374560000000  0.4540610000000 1.0
C      1  0.4822810000000  0.4222470000000  0.4791550000000 1.0
C      1  0.5429440000000  0.5977130000000  0.4914210000000 1.0
C      1  0.5358770000000  0.5700200000000  0.4993620000000 1.0
C      1  0.5123310000000  0.5786820000000  0.5474320000000 1.0
C      1  0.5240500000000  0.5191020000000  0.6021480000000 1.0
C      1  0.5221850000000  0.5914310000000  0.4480060000000 1.0
END
