TITL C-2847953-8112-345 0.00335377933484657 125000 -1000.11978406917 0 0 184 (C1) n - 1
REM
REM in /home/bkarasulu/work/CARBON/AIRSS/Generating-Clusters/AIREBO/with-SteepDescent/Only-C1/SD-CG-opt/Try1-1.4A-POS3A/HFTN-CG
REM
REM
REM
REM
REM
REM ./C.cell (11c1c37f851c82e70ff6c80c92926a4b)
REM
REM compiler GCC version 9.2.1 20190827 (Red Hat 9.2.1-1)
REM options -cpp -mtune=generic -march=x86-64 -g -O0 -fpre-include=/usr/include/finclude/math-vector-fortran.h
REM seed 2094953652 713445601 -1452897530 -1589867905 312314695 -1519014928 -958704827 -1791550871 -29630389 -1606266256 -27387376 -348122349 -186445420 761490547 -1858893560 -1779696755 -1161042177 570628927 2131352808 602820904 -368868702 1901178695 -1116744552 -1133226891 -1514991537 1176526658 1221066152 -1757149773 -606956530 -632080181 1085267192 781284054 1332347519
REM
CELL 1.54180   50.00000   50.00000   50.00000   90.00000   90.00000   90.00000
LATT -1
SFAC C  
C      1  0.5184830000000  0.4123630000000  0.4389540000000 1.0
C      1  0.4768170000000  0.5857060000000  0.4688160000000 1.0
C      1  0.3932960000000  0.5583120000000  0.4876400000000 1.0
C      1  0.5384120000000  0.5208410000000  0.4061680000000 1.0
C      1  0.5579340000000  0.5481320000000  0.4126640000000 1.0
C      1  0.5068150000000  0.5758520000000  0.5467260000000 1.0
C      1  0.5118510000000  0.4565670000000  0.5164840000000 1.0
C      1  0.4378490000000  0.5823150000000  0.5030870000000 1.0
C      1  0.5530080000000  0.5120810000000  0.5357780000000 1.0
C      1  0.5158940000000  0.5416430000000  0.6085490000000 1.0
C      1  0.5036790000000  0.4225380000000  0.5487360000000 1.0
C      1  0.5412920000000  0.5202720000000  0.5624440000000 1.0
C      1  0.4631160000000  0.4446030000000  0.5325150000000 1.0
C      1  0.5086490000000  0.5683510000000  0.4246740000000 1.0
C      1  0.5549630000000  0.4764480000000  0.5915650000000 1.0
C      1  0.4504980000000  0.4976920000000  0.6161570000000 1.0
C      1  0.5969630000000  0.4398070000000  0.4818990000000 1.0
C      1  0.5711630000000  0.5187440000000  0.4129740000000 1.0
C      1  0.5606980000000  0.5859080000000  0.4644660000000 1.0
C      1  0.5106980000000  0.5283520000000  0.4984670000000 1.0
C      1  0.6041850000000  0.4497700000000  0.5421520000000 1.0
C      1  0.5036870000000  0.5512170000000  0.4536330000000 1.0
C      1  0.5015870000000  0.5039610000000  0.4597900000000 1.0
C      1  0.5716460000000  0.4556360000000  0.5078890000000 1.0
C      1  0.5608770000000  0.5360250000000  0.5788360000000 1.0
C      1  0.4706000000000  0.5323370000000  0.4327220000000 1.0
C      1  0.6092560000000  0.4995410000000  0.4545990000000 1.0
C      1  0.4935980000000  0.4210500000000  0.5965010000000 1.0
C      1  0.4644480000000  0.5696240000000  0.5380480000000 1.0
C      1  0.4079150000000  0.5074210000000  0.4243630000000 1.0
C      1  0.5666260000000  0.4042580000000  0.5242800000000 1.0
C      1  0.5640330000000  0.5890450000000  0.5454840000000 1.0
C      1  0.4986020000000  0.6084580000000  0.5096960000000 1.0
C      1  0.5941680000000  0.4353870000000  0.5155270000000 1.0
C      1  0.5364950000000  0.5499060000000  0.4933600000000 1.0
C      1  0.4730300000000  0.4306740000000  0.4226390000000 1.0
C      1  0.4750880000000  0.4983560000000  0.4298650000000 1.0
C      1  0.5563580000000  0.5696940000000  0.5114540000000 1.0
C      1  0.5433700000000  0.4454030000000  0.5226470000000 1.0
C      1  0.5908410000000  0.5242440000000  0.5351830000000 1.0
C      1  0.4640100000000  0.5619460000000  0.4481200000000 1.0
C      1  0.5527190000000  0.4810700000000  0.4688190000000 1.0
C      1  0.5419870000000  0.5734310000000  0.5649560000000 1.0
C      1  0.4464990000000  0.5918320000000  0.4754090000000 1.0
C      1  0.4891400000000  0.6061530000000  0.4486750000000 1.0
C      1  0.5484320000000  0.5088860000000  0.4552390000000 1.0
C      1  0.4283030000000  0.4620650000000  0.4324030000000 1.0
C      1  0.5593180000000  0.5592320000000  0.4434110000000 1.0
C      1  0.5179900000000  0.4334370000000  0.4204110000000 1.0
C      1  0.4945990000000  0.5299110000000  0.5374300000000 1.0
C      1  0.5637330000000  0.5327780000000  0.4916600000000 1.0
C      1  0.3951110000000  0.5146760000000  0.4525210000000 1.0
C      1  0.5097380000000  0.4860880000000  0.5460370000000 1.0
C      1  0.4942880000000  0.4616340000000  0.4359310000000 1.0
C      1  0.4328770000000  0.4939710000000  0.4582940000000 1.0
C      1  0.5811390000000  0.4807500000000  0.4502510000000 1.0
C      1  0.5337560000000  0.5385890000000  0.4521570000000 1.0
C      1  0.4040440000000  0.5438340000000  0.4624200000000 1.0
C      1  0.5643880000000  0.4353890000000  0.4416530000000 1.0
C      1  0.5869370000000  0.5428830000000  0.5090960000000 1.0
C      1  0.4924540000000  0.4849500000000  0.4038150000000 1.0
C      1  0.4871700000000  0.4017930000000  0.5044380000000 1.0
C      1  0.5584810000000  0.5928840000000  0.4913580000000 1.0
C      1  0.4959110000000  0.5814930000000  0.4951540000000 1.0
C      1  0.4226080000000  0.5433600000000  0.5610320000000 1.0
C      1  0.4341020000000  0.4332310000000  0.4486760000000 1.0
C      1  0.4816260000000  0.5244420000000  0.5748620000000 1.0
C      1  0.4280330000000  0.4631910000000  0.5619910000000 1.0
C      1  0.4840660000000  0.4288510000000  0.4751500000000 1.0
C      1  0.4617140000000  0.4608900000000  0.4261990000000 1.0
C      1  0.4999520000000  0.3918650000000  0.4447770000000 1.0
C      1  0.5871300000000  0.4516560000000  0.4526120000000 1.0
C      1  0.6095500000000  0.4674220000000  0.4975800000000 1.0
C      1  0.4825130000000  0.5351920000000  0.6071020000000 1.0
C      1  0.5107640000000  0.5141520000000  0.5628830000000 1.0
C      1  0.4363070000000  0.5491260000000  0.4631030000000 1.0
C      1  0.4607010000000  0.4988550000000  0.4864880000000 1.0
C      1  0.4636330000000  0.5159760000000  0.5343590000000 1.0
C      1  0.5671950000000  0.4252260000000  0.4740540000000 1.0
C      1  0.5502890000000  0.4198270000000  0.5012970000000 1.0
C      1  0.5152190000000  0.4957540000000  0.4898510000000 1.0
C      1  0.5351750000000  0.4188950000000  0.4645090000000 1.0
C      1  0.4411270000000  0.5768110000000  0.4265990000000 1.0
C      1  0.5565220000000  0.4059680000000  0.5476050000000 1.0
C      1  0.5097330000000  0.4226480000000  0.5152760000000 1.0
C      1  0.4091430000000  0.5719460000000  0.5128130000000 1.0
C      1  0.4985760000000  0.3856870000000  0.4785750000000 1.0
C      1  0.5334920000000  0.4463030000000  0.5760030000000 1.0
C      1  0.4804420000000  0.4562260000000  0.5083250000000 1.0
C      1  0.5844390000000  0.5123810000000  0.4384550000000 1.0
C      1  0.4120860000000  0.4492370000000  0.5426220000000 1.0
C      1  0.4506340000000  0.5190740000000  0.4646490000000 1.0
C      1  0.4155800000000  0.5355570000000  0.4995680000000 1.0
C      1  0.4415640000000  0.5031090000000  0.4267130000000 1.0
C      1  0.4798020000000  0.4805540000000  0.4565550000000 1.0
C      1  0.4466290000000  0.5585570000000  0.5641740000000 1.0
C      1  0.4826870000000  0.5011910000000  0.6072590000000 1.0
C      1  0.5440230000000  0.4503680000000  0.4252710000000 1.0
C      1  0.5456790000000  0.5582350000000  0.5928270000000 1.0
C      1  0.5314030000000  0.4909450000000  0.6060630000000 1.0
C      1  0.4180780000000  0.5173200000000  0.5722800000000 1.0
C      1  0.3957630000000  0.4637220000000  0.5210680000000 1.0
C      1  0.4993530000000  0.4514610000000  0.5956960000000 1.0
C      1  0.4646900000000  0.4971380000000  0.3915110000000 1.0
C      1  0.4600170000000  0.4018270000000  0.5084330000000 1.0
C      1  0.4460490000000  0.5501500000000  0.4956750000000 1.0
C      1  0.4567440000000  0.4144650000000  0.4378580000000 1.0
C      1  0.4020810000000  0.4833420000000  0.4637350000000 1.0
C      1  0.4127760000000  0.5099630000000  0.5295540000000 1.0
C      1  0.4413930000000  0.4771260000000  0.4047820000000 1.0
C      1  0.4460000000000  0.3934560000000  0.4828130000000 1.0
C      1  0.4568830000000  0.4545130000000  0.5779130000000 1.0
C      1  0.5244650000000  0.6138960000000  0.5188550000000 1.0
C      1  0.4919910000000  0.5594930000000  0.5208500000000 1.0
C      1  0.5545380000000  0.4727570000000  0.5394960000000 1.0
C      1  0.5119890000000  0.5105330000000  0.5966810000000 1.0
C      1  0.4338960000000  0.4951390000000  0.5519290000000 1.0
C      1  0.4511050000000  0.4742890000000  0.5312970000000 1.0
C      1  0.5353090000000  0.4285300000000  0.5508680000000 1.0
C      1  0.4353430000000  0.5583550000000  0.4063790000000 1.0
C      1  0.5273320000000  0.3975100000000  0.4898040000000 1.0
C      1  0.5315630000000  0.5989720000000  0.5436590000000 1.0
C      1  0.4777550000000  0.5235470000000  0.3937580000000 1.0
C      1  0.4973830000000  0.5394180000000  0.4160240000000 1.0
C      1  0.5267290000000  0.5320670000000  0.5275840000000 1.0
C      1  0.5371130000000  0.4890330000000  0.4324340000000 1.0
C      1  0.3895040000000  0.4899670000000  0.5251240000000 1.0
C      1  0.4238280000000  0.4839310000000  0.4898650000000 1.0
C      1  0.4720230000000  0.3996560000000  0.4625500000000 1.0
C      1  0.4787710000000  0.4433900000000  0.5587780000000 1.0
C      1  0.4829440000000  0.5296590000000  0.4643130000000 1.0
C      1  0.4964210000000  0.5725450000000  0.5747490000000 1.0
C      1  0.5717790000000  0.4808060000000  0.5676970000000 1.0
C      1  0.4182080000000  0.4318020000000  0.5139630000000 1.0
C      1  0.5799980000000  0.5112230000000  0.5655840000000 1.0
C      1  0.4075160000000  0.4509790000000  0.4575310000000 1.0
C      1  0.4471590000000  0.4214930000000  0.5235070000000 1.0
C      1  0.4785500000000  0.5400230000000  0.4964070000000 1.0
C      1  0.4927070000000  0.4082170000000  0.5747880000000 1.0
C      1  0.4935090000000  0.4508110000000  0.4043350000000 1.0
C      1  0.5791180000000  0.5623140000000  0.5356200000000 1.0
C      1  0.5218010000000  0.4649440000000  0.4451590000000 1.0
C      1  0.5169220000000  0.5167890000000  0.4322190000000 1.0
C      1  0.4502850000000  0.5431890000000  0.5275780000000 1.0
C      1  0.5459460000000  0.4751690000000  0.4038850000000 1.0
C      1  0.4732660000000  0.6150560000000  0.5208690000000 1.0
C      1  0.6118730000000  0.5514290000000  0.4941390000000 1.0
C      1  0.5303980000000  0.4580420000000  0.6063570000000 1.0
C      1  0.4607830000000  0.5067910000000  0.5654670000000 1.0
C      1  0.5721390000000  0.5325490000000  0.4608270000000 1.0
C      1  0.5804930000000  0.4927610000000  0.5303620000000 1.0
C      1  0.4726220000000  0.5544120000000  0.5804930000000 1.0
C      1  0.4323400000000  0.4205720000000  0.4865520000000 1.0
C      1  0.5533080000000  0.5044270000000  0.5037050000000 1.0
C      1  0.5345080000000  0.5604140000000  0.5344260000000 1.0
C      1  0.4532690000000  0.4398790000000  0.4736850000000 1.0
C      1  0.6036330000000  0.4730460000000  0.5243750000000 1.0
C      1  0.5156740000000  0.5698760000000  0.5947600000000 1.0
C      1  0.4413350000000  0.5013800000000  0.5132200000000 1.0
C      1  0.4296650000000  0.5813130000000  0.4543670000000 1.0
C      1  0.4839880000000  0.4820110000000  0.5296920000000 1.0
C      1  0.5202680000000  0.4951250000000  0.3967800000000 1.0
C      1  0.5134680000000  0.4345060000000  0.4836090000000 1.0
C      1  0.4862510000000  0.4950330000000  0.5018260000000 1.0
C      1  0.3959110000000  0.5134050000000  0.4864900000000 1.0
C      1  0.5726250000000  0.4817290000000  0.4927860000000 1.0
C      1  0.5177270000000  0.5685650000000  0.4769550000000 1.0
C      1  0.6033800000000  0.4908270000000  0.4818020000000 1.0
C      1  0.5298110000000  0.4848190000000  0.5185840000000 1.0
C      1  0.4106300000000  0.5438160000000  0.5321770000000 1.0
C      1  0.5279060000000  0.3947000000000  0.5220310000000 1.0
C      1  0.5464390000000  0.6165290000000  0.5011640000000 1.0
C      1  0.4521000000000  0.4863420000000  0.5864140000000 1.0
C      1  0.5239630000000  0.4660150000000  0.4758200000000 1.0
C      1  0.4551640000000  0.5950220000000  0.5245280000000 1.0
C      1  0.5069980000000  0.4610420000000  0.5638450000000 1.0
C      1  0.4745500000000  0.4682250000000  0.6044100000000 1.0
C      1  0.5316530000000  0.5785630000000  0.4475640000000 1.0
C      1  0.4439320000000  0.5336970000000  0.4122970000000 1.0
C      1  0.4079610000000  0.4550580000000  0.4913320000000 1.0
C      1  0.5005670000000  0.5987490000000  0.4274920000000 1.0
C      1  0.5882310000000  0.5444250000000  0.5621620000000 1.0
C      1  0.5947150000000  0.4578400000000  0.5674750000000 1.0
C      1  0.4674790000000  0.4661660000000  0.4816070000000 1.0
END
