TITL C-2847947-6848-185 0.000180797309749728 125000 -912.669428540028 0 0 170 (C1) n - 1
REM
REM in /home/bkarasulu/work/CARBON/AIRSS/Generating-Clusters/AIREBO/with-SteepDescent/Only-C1/SD-CG-opt/Try1-1.4A-POS3A/HFTN-CG
REM
REM
REM
REM
REM
REM ./C.cell (11c1c37f851c82e70ff6c80c92926a4b)
REM
REM compiler GCC version 9.2.1 20190827 (Red Hat 9.2.1-1)
REM options -cpp -mtune=generic -march=x86-64 -g -O0 -fpre-include=/usr/include/finclude/math-vector-fortran.h
REM seed -174010400 -721100252 50995593 -404065642 1046233573 659139332 24084494 424511918 -664526417 -1447820099 118766265 2121203987 -1727640693 -388363448 -445612401 -1819136025 -581540222 957121615 -1615187089 768245096 -839641269 -229435066 906070271 -510415795 -1083501223 826089527 -288973538 1135417597 1065693366 1283135806 -1766886291 2007110077 2142936166
REM
CELL 1.54180   50.00000   50.00000   50.00000   90.00000   90.00000   90.00000
LATT -1
SFAC C  
C      1  0.5703310000000  0.4524940000000  0.5751330000000 1.0
C      1  0.5040930000000  0.5071960000000  0.5813700000000 1.0
C      1  0.4707860000000  0.5141810000000  0.5840910000000 1.0
C      1  0.5247860000000  0.5608350000000  0.5247300000000 1.0
C      1  0.4503230000000  0.5867320000000  0.5136010000000 1.0
C      1  0.5872340000000  0.5015650000000  0.4880370000000 1.0
C      1  0.5163150000000  0.5343210000000  0.6079520000000 1.0
C      1  0.4716590000000  0.4548090000000  0.5311100000000 1.0
C      1  0.5225440000000  0.4719980000000  0.4085450000000 1.0
C      1  0.5472090000000  0.5177360000000  0.4559110000000 1.0
C      1  0.5367770000000  0.6135140000000  0.5151980000000 1.0
C      1  0.4626320000000  0.5693800000000  0.4271570000000 1.0
C      1  0.5609330000000  0.4507150000000  0.5014900000000 1.0
C      1  0.4483290000000  0.5209320000000  0.5202160000000 1.0
C      1  0.5487620000000  0.5051890000000  0.3801980000000 1.0
C      1  0.4999400000000  0.5000210000000  0.4779670000000 1.0
C      1  0.4811050000000  0.5526100000000  0.4107420000000 1.0
C      1  0.3903750000000  0.4776340000000  0.5226560000000 1.0
C      1  0.5308050000000  0.4647370000000  0.5236700000000 1.0
C      1  0.4490630000000  0.4398590000000  0.5105690000000 1.0
C      1  0.5166820000000  0.5605100000000  0.4931750000000 1.0
C      1  0.4951980000000  0.5437590000000  0.5945850000000 1.0
C      1  0.5570220000000  0.4368410000000  0.4715190000000 1.0
C      1  0.4575240000000  0.5038480000000  0.4930690000000 1.0
C      1  0.4718760000000  0.4888140000000  0.5303740000000 1.0
C      1  0.4873530000000  0.5076630000000  0.5066760000000 1.0
C      1  0.4665080000000  0.4221200000000  0.4619380000000 1.0
C      1  0.5081260000000  0.5532140000000  0.4153530000000 1.0
C      1  0.4426810000000  0.4732600000000  0.5708470000000 1.0
C      1  0.5164100000000  0.5355290000000  0.4741590000000 1.0
C      1  0.4935890000000  0.4640000000000  0.4051460000000 1.0
C      1  0.5096930000000  0.5358320000000  0.5390700000000 1.0
C      1  0.4146910000000  0.4201520000000  0.4814490000000 1.0
C      1  0.5992380000000  0.5253520000000  0.4745490000000 1.0
C      1  0.4919660000000  0.4427160000000  0.4556720000000 1.0
C      1  0.4450960000000  0.4452880000000  0.4353890000000 1.0
C      1  0.5432880000000  0.4962130000000  0.4042190000000 1.0
C      1  0.5749160000000  0.4839630000000  0.5630940000000 1.0
C      1  0.4271430000000  0.4650100000000  0.4217430000000 1.0
C      1  0.4571180000000  0.5198910000000  0.4659370000000 1.0
C      1  0.4600160000000  0.5484160000000  0.4842170000000 1.0
C      1  0.5076790000000  0.4769400000000  0.5884620000000 1.0
C      1  0.4229470000000  0.4365760000000  0.5288240000000 1.0
C      1  0.4666460000000  0.4744870000000  0.4856560000000 1.0
C      1  0.5534550000000  0.3903720000000  0.5024610000000 1.0
C      1  0.5616630000000  0.5027070000000  0.4290850000000 1.0
C      1  0.5618920000000  0.5626170000000  0.4459200000000 1.0
C      1  0.4078840000000  0.5533600000000  0.4811290000000 1.0
C      1  0.4197990000000  0.5163250000000  0.5333840000000 1.0
C      1  0.5615320000000  0.5376510000000  0.4769330000000 1.0
C      1  0.4862190000000  0.5685900000000  0.4805520000000 1.0
C      1  0.5101110000000  0.4441370000000  0.4843980000000 1.0
C      1  0.5603910000000  0.5783740000000  0.5231330000000 1.0
C      1  0.5730170000000  0.5612210000000  0.5624560000000 1.0
C      1  0.5543730000000  0.5329000000000  0.5717520000000 1.0
C      1  0.5106900000000  0.5995180000000  0.4871520000000 1.0
C      1  0.4760390000000  0.4832370000000  0.4137780000000 1.0
C      1  0.4822000000000  0.4015160000000  0.5111730000000 1.0
C      1  0.4651770000000  0.4267100000000  0.4222640000000 1.0
C      1  0.4896500000000  0.5428950000000  0.5622840000000 1.0
C      1  0.5782340000000  0.4527120000000  0.5274390000000 1.0
C      1  0.5053490000000  0.4819240000000  0.5337900000000 1.0
C      1  0.6031810000000  0.5552870000000  0.5171370000000 1.0
C      1  0.4555810000000  0.5662030000000  0.5678610000000 1.0
C      1  0.4851030000000  0.5629340000000  0.5231350000000 1.0
C      1  0.4402890000000  0.4578300000000  0.4865460000000 1.0
C      1  0.4738130000000  0.5942800000000  0.5619040000000 1.0
C      1  0.6033540000000  0.4730380000000  0.4906160000000 1.0
C      1  0.5154900000000  0.5921940000000  0.5284220000000 1.0
C      1  0.4720630000000  0.5272350000000  0.4070740000000 1.0
C      1  0.5210500000000  0.3944700000000  0.5406080000000 1.0
C      1  0.4829110000000  0.5917530000000  0.5052210000000 1.0
C      1  0.4900310000000  0.5216470000000  0.4574740000000 1.0
C      1  0.4624190000000  0.5464020000000  0.5910790000000 1.0
C      1  0.5298920000000  0.5715630000000  0.4461380000000 1.0
C      1  0.4815590000000  0.4648230000000  0.5952640000000 1.0
C      1  0.5900060000000  0.5081380000000  0.5273020000000 1.0
C      1  0.4266220000000  0.4950560000000  0.5565550000000 1.0
C      1  0.4298390000000  0.5391880000000  0.4596320000000 1.0
C      1  0.4484970000000  0.4512430000000  0.5557460000000 1.0
C      1  0.5543460000000  0.4156830000000  0.4557490000000 1.0
C      1  0.4957650000000  0.4143040000000  0.5643590000000 1.0
C      1  0.4474110000000  0.4921640000000  0.4486130000000 1.0
C      1  0.5281790000000  0.4110870000000  0.5683750000000 1.0
C      1  0.4329000000000  0.5300820000000  0.5953700000000 1.0
C      1  0.4474590000000  0.5165790000000  0.4017920000000 1.0
C      1  0.5242480000000  0.5380390000000  0.4411690000000 1.0
C      1  0.5898320000000  0.5519890000000  0.4891880000000 1.0
C      1  0.5512180000000  0.5074270000000  0.5412860000000 1.0
C      1  0.6008840000000  0.5285830000000  0.4470350000000 1.0
C      1  0.4990910000000  0.5739400000000  0.5521070000000 1.0
C      1  0.5783180000000  0.4275770000000  0.5450370000000 1.0
C      1  0.5269020000000  0.5171440000000  0.5593030000000 1.0
C      1  0.5336190000000  0.5106770000000  0.5978890000000 1.0
C      1  0.4184830000000  0.4816320000000  0.4946480000000 1.0
C      1  0.5157110000000  0.4632900000000  0.5602880000000 1.0
C      1  0.5260540000000  0.4750310000000  0.4408680000000 1.0
C      1  0.4031890000000  0.5077760000000  0.4368530000000 1.0
C      1  0.4461910000000  0.5896230000000  0.5446730000000 1.0
C      1  0.6052280000000  0.4641780000000  0.5171660000000 1.0
C      1  0.4994000000000  0.3820980000000  0.5297480000000 1.0
C      1  0.5329470000000  0.4364230000000  0.5083800000000 1.0
C      1  0.5602170000000  0.5448070000000  0.5165600000000 1.0
C      1  0.4457120000000  0.4883950000000  0.4147910000000 1.0
C      1  0.4651440000000  0.4007040000000  0.4361240000000 1.0
C      1  0.5284940000000  0.4081030000000  0.4475390000000 1.0
C      1  0.5646580000000  0.4767520000000  0.4821320000000 1.0
C      1  0.5352580000000  0.4629680000000  0.4713200000000 1.0
C      1  0.4057570000000  0.4759530000000  0.4365720000000 1.0
C      1  0.4873120000000  0.4579750000000  0.5017730000000 1.0
C      1  0.5390610000000  0.4413870000000  0.5717770000000 1.0
C      1  0.4065570000000  0.5409620000000  0.5469980000000 1.0
C      1  0.4873090000000  0.5089680000000  0.4260400000000 1.0
C      1  0.5739560000000  0.5342970000000  0.4312740000000 1.0
C      1  0.4812870000000  0.5404300000000  0.5089470000000 1.0
C      1  0.5017080000000  0.4112860000000  0.4870340000000 1.0
C      1  0.3916640000000  0.5305550000000  0.4946590000000 1.0
C      1  0.5466080000000  0.5485260000000  0.5452090000000 1.0
C      1  0.5372360000000  0.5640800000000  0.4137940000000 1.0
C      1  0.4170390000000  0.4918070000000  0.4639460000000 1.0
C      1  0.4808440000000  0.5844000000000  0.4507630000000 1.0
C      1  0.5403110000000  0.4084510000000  0.5194650000000 1.0
C      1  0.5607750000000  0.5525110000000  0.4074990000000 1.0
C      1  0.4357990000000  0.5510980000000  0.5467050000000 1.0
C      1  0.5170830000000  0.5111870000000  0.5210450000000 1.0
C      1  0.5891460000000  0.4739830000000  0.4597370000000 1.0
C      1  0.4720240000000  0.5197180000000  0.5445780000000 1.0
C      1  0.5102730000000  0.5910440000000  0.4582040000000 1.0
C      1  0.4309990000000  0.5610020000000  0.4262960000000 1.0
C      1  0.4042640000000  0.4327830000000  0.5035850000000 1.0
C      1  0.5399260000000  0.5850690000000  0.4968140000000 1.0
C      1  0.4817700000000  0.4396220000000  0.5822330000000 1.0
C      1  0.5664920000000  0.4536530000000  0.4206430000000 1.0
C      1  0.4444230000000  0.5231850000000  0.5641330000000 1.0
C      1  0.4215300000000  0.5745210000000  0.4991690000000 1.0
C      1  0.5562120000000  0.4754710000000  0.5359860000000 1.0
C      1  0.4728470000000  0.4091940000000  0.5417880000000 1.0
C      1  0.4870180000000  0.6078330000000  0.5349000000000 1.0
C      1  0.5286020000000  0.5845140000000  0.5653020000000 1.0
C      1  0.4397480000000  0.4822550000000  0.5212060000000 1.0
C      1  0.5380900000000  0.5261280000000  0.4986920000000 1.0
C      1  0.4519430000000  0.5702760000000  0.4594590000000 1.0
C      1  0.4438040000000  0.5533470000000  0.5137220000000 1.0
C      1  0.4369850000000  0.4359300000000  0.4654220000000 1.0
C      1  0.3934530000000  0.4583660000000  0.4988420000000 1.0
C      1  0.5402560000000  0.4464000000000  0.4173830000000 1.0
C      1  0.4479450000000  0.4215180000000  0.5460550000000 1.0
C      1  0.4097530000000  0.5661450000000  0.4500640000000 1.0
C      1  0.4015280000000  0.5061180000000  0.5110630000000 1.0
C      1  0.5784180000000  0.4760930000000  0.4342390000000 1.0
C      1  0.5549070000000  0.4138930000000  0.5475460000000 1.0
C      1  0.5999990000000  0.4836930000000  0.5401140000000 1.0
C      1  0.5536660000000  0.4909130000000  0.5887350000000 1.0
C      1  0.4158480000000  0.5316520000000  0.4316900000000 1.0
C      1  0.4894490000000  0.4380300000000  0.4150430000000 1.0
C      1  0.5126450000000  0.3957290000000  0.4673340000000 1.0
C      1  0.5537370000000  0.5866410000000  0.5533270000000 1.0
C      1  0.5641610000000  0.5711000000000  0.4774320000000 1.0
C      1  0.4927610000000  0.4437520000000  0.5503230000000 1.0
C      1  0.4611900000000  0.4828120000000  0.5889990000000 1.0
C      1  0.5146110000000  0.4310570000000  0.4331300000000 1.0
C      1  0.5813690000000  0.5170510000000  0.5656450000000 1.0
C      1  0.5846910000000  0.5382510000000  0.5392520000000 1.0
C      1  0.4647420000000  0.4633920000000  0.4549230000000 1.0
C      1  0.5287450000000  0.4962330000000  0.4740380000000 1.0
C      1  0.4156760000000  0.4675530000000  0.5398100000000 1.0
C      1  0.4628700000000  0.4179790000000  0.4934990000000 1.0
C      1  0.5376750000000  0.4668890000000  0.5931200000000 1.0
C      1  0.5627460000000  0.5054800000000  0.5097730000000 1.0
C      1  0.5171160000000  0.5059060000000  0.4326210000000 1.0
END
