TITL C-2847947-6848-279 -0.240609022320657 125000 -114.898867649811 0 0 21 (C1) n - 1
REM
REM in /home/bkarasulu/work/CARBON/AIRSS/Generating-Clusters/AIREBO/with-SteepDescent/Only-C1/SD-CG-opt/Try1-1.4A-POS3A/HFTN-CG
REM
REM
REM
REM
REM
REM ./C.cell (11c1c37f851c82e70ff6c80c92926a4b)
REM
REM compiler GCC version 9.2.1 20190827 (Red Hat 9.2.1-1)
REM options -cpp -mtune=generic -march=x86-64 -g -O0 -fpre-include=/usr/include/finclude/math-vector-fortran.h
REM seed 211015261 844701920 1107172667 520263142 515426436 1461499570 2020021401 671322615 -1330117616 205779051 -34729577 -1039470509 -1155098954 150561608 -467726082 1529321758 -676494273 -1347650357 -1342217888 -746538441 -1009533412 -2134984009 1254989272 -1483907734 -1906346314 1804915556 -1460272702 216717313 924511388 1159181104 1212938470 147292578 1221622072
REM
CELL 1.54180   50.00000   50.00000   50.00000   90.00000   90.00000   90.00000
LATT -1
SFAC C  
C      1  0.5326970000000  0.4852450000000  0.4587410000000 1.0
C      1  0.5295550000000  0.5396430000000  0.5196520000000 1.0
C      1  0.4833230000000  0.5387840000000  0.4704220000000 1.0
C      1  0.5419090000000  0.5627830000000  0.5259870000000 1.0
C      1  0.5117080000000  0.5381300000000  0.4984000000000 1.0
C      1  0.5115120000000  0.4517620000000  0.5340470000000 1.0
C      1  0.4950610000000  0.4491880000000  0.5105210000000 1.0
C      1  0.5076520000000  0.5579050000000  0.4744580000000 1.0
C      1  0.5275990000000  0.4958830000000  0.5505010000000 1.0
C      1  0.4421210000000  0.5432150000000  0.4365500000000 1.0
C      1  0.5119610000000  0.4436520000000  0.4512380000000 1.0
C      1  0.4687920000000  0.4800020000000  0.5215860000000 1.0
C      1  0.4882220000000  0.5181100000000  0.4928720000000 1.0
C      1  0.4648340000000  0.4497980000000  0.5167400000000 1.0
C      1  0.4833590000000  0.4914390000000  0.4986450000000 1.0
C      1  0.4808430000000  0.4850360000000  0.5471490000000 1.0
C      1  0.4616210000000  0.5417810000000  0.4540050000000 1.0
C      1  0.5341940000000  0.5163430000000  0.5341290000000 1.0
C      1  0.5080050000000  0.4759830000000  0.5490000000000 1.0
C      1  0.5151060000000  0.4660630000000  0.4660380000000 1.0
C      1  0.4999250000000  0.4692550000000  0.4893180000000 1.0
END
