TITL C-2848501-3133-558 -0.000674978151558884 125000 -991.771627659713 0 0 186 (C1) n - 1
REM
REM in /home/bkarasulu/work/CARBON/AIRSS/Generating-Clusters/AIREBO/with-SteepDescent/Only-C1/SD-CG-opt/Try1-1.4A-POS3A/HFTN-CG
REM
REM
REM
REM
REM
REM ./C.cell (11c1c37f851c82e70ff6c80c92926a4b)
REM
REM compiler GCC version 9.2.1 20190827 (Red Hat 9.2.1-1)
REM options -cpp -mtune=generic -march=x86-64 -g -O0 -fpre-include=/usr/include/finclude/math-vector-fortran.h
REM seed -1265868547 -1117785717 32094843 592421224 1102997950 -1873383099 1580514271 -484254298 2004610784 -2016881812 2077486705 -78822465 1856162388 457785775 656916436 -744932652 -732317248 1432259230 -249740769 593191906 1116056416 522921298 416727328 -1395529379 248877718 -1415651344 405997258 -163698942 -506148123 -1824659983 1187681043 -1270057174 1566226665
REM
CELL 1.54180   50.00000   50.00000   50.00000   90.00000   90.00000   90.00000
LATT -1
SFAC C  
C      1  0.5032040000000  0.5969100000000  0.4299000000000 1.0
C      1  0.5050050000000  0.4851790000000  0.5604800000000 1.0
C      1  0.5255570000000  0.4930600000000  0.6118030000000 1.0
C      1  0.4671400000000  0.4760200000000  0.4151930000000 1.0
C      1  0.5700460000000  0.5650250000000  0.5570890000000 1.0
C      1  0.5558100000000  0.5660550000000  0.5062770000000 1.0
C      1  0.4436930000000  0.4109760000000  0.4512930000000 1.0
C      1  0.4462860000000  0.4536960000000  0.4002450000000 1.0
C      1  0.4180040000000  0.4970340000000  0.5700430000000 1.0
C      1  0.4598260000000  0.5481350000000  0.5464680000000 1.0
C      1  0.4107790000000  0.4369240000000  0.4657330000000 1.0
C      1  0.4902290000000  0.5350970000000  0.4848080000000 1.0
C      1  0.5179120000000  0.3908670000000  0.5274390000000 1.0
C      1  0.4652530000000  0.5321530000000  0.5183780000000 1.0
C      1  0.4209670000000  0.4713740000000  0.5507450000000 1.0
C      1  0.5960290000000  0.5084870000000  0.5464740000000 1.0
C      1  0.5020020000000  0.4684370000000  0.4467860000000 1.0
C      1  0.4415380000000  0.5021010000000  0.4336780000000 1.0
C      1  0.4330790000000  0.4815500000000  0.5958970000000 1.0
C      1  0.4660680000000  0.6151320000000  0.4920810000000 1.0
C      1  0.5146040000000  0.4283740000000  0.5774830000000 1.0
C      1  0.4381620000000  0.5409140000000  0.4997860000000 1.0
C      1  0.5643440000000  0.5017070000000  0.5060950000000 1.0
C      1  0.4472760000000  0.4370950000000  0.5595110000000 1.0
C      1  0.5920870000000  0.5126190000000  0.5156760000000 1.0
C      1  0.5317570000000  0.4737540000000  0.5636330000000 1.0
C      1  0.4863050000000  0.4686820000000  0.5988740000000 1.0
C      1  0.5713990000000  0.5717960000000  0.4811850000000 1.0
C      1  0.4701980000000  0.5591370000000  0.4250120000000 1.0
C      1  0.5667660000000  0.5797720000000  0.4487030000000 1.0
C      1  0.5342350000000  0.4888220000000  0.5155940000000 1.0
C      1  0.5509790000000  0.4552440000000  0.4489730000000 1.0
C      1  0.5293120000000  0.4355990000000  0.4089290000000 1.0
C      1  0.4775030000000  0.5672420000000  0.4860540000000 1.0
C      1  0.5365500000000  0.4321270000000  0.5007390000000 1.0
C      1  0.5450600000000  0.5927780000000  0.4714120000000 1.0
C      1  0.4329870000000  0.4224010000000  0.5320800000000 1.0
C      1  0.5081280000000  0.4581060000000  0.4065760000000 1.0
C      1  0.5676850000000  0.4236600000000  0.5114820000000 1.0
C      1  0.4547920000000  0.5573960000000  0.4546660000000 1.0
C      1  0.4898170000000  0.5128340000000  0.5652290000000 1.0
C      1  0.4939780000000  0.5648270000000  0.4564100000000 1.0
C      1  0.5969760000000  0.5653580000000  0.5364080000000 1.0
C      1  0.4755700000000  0.4726750000000  0.5690700000000 1.0
C      1  0.5600080000000  0.5120800000000  0.4531990000000 1.0
C      1  0.3948790000000  0.4882010000000  0.5256270000000 1.0
C      1  0.4597740000000  0.5334270000000  0.4746190000000 1.0
C      1  0.4060280000000  0.4916210000000  0.4677960000000 1.0
C      1  0.5765310000000  0.4177120000000  0.5437710000000 1.0
C      1  0.5010630000000  0.4740510000000  0.4807870000000 1.0
C      1  0.4112740000000  0.4462680000000  0.5371400000000 1.0
C      1  0.5324180000000  0.5461830000000  0.4555700000000 1.0
C      1  0.4900880000000  0.5628510000000  0.5490370000000 1.0
C      1  0.4211070000000  0.4683880000000  0.4183630000000 1.0
C      1  0.4090750000000  0.4651370000000  0.4466780000000 1.0
C      1  0.4520830000000  0.4313280000000  0.4263620000000 1.0
C      1  0.4209370000000  0.4667380000000  0.5042380000000 1.0
C      1  0.4828920000000  0.4415380000000  0.4550340000000 1.0
C      1  0.4398130000000  0.4900820000000  0.4642840000000 1.0
C      1  0.5150940000000  0.5914270000000  0.4590990000000 1.0
C      1  0.4019540000000  0.5479330000000  0.4782840000000 1.0
C      1  0.5533800000000  0.5213540000000  0.4852370000000 1.0
C      1  0.5228910000000  0.5297380000000  0.5516370000000 1.0
C      1  0.4129070000000  0.5758800000000  0.4656160000000 1.0
C      1  0.4903730000000  0.4106900000000  0.5297780000000 1.0
C      1  0.6186580000000  0.4167390000000  0.4937620000000 1.0
C      1  0.5682430000000  0.5106150000000  0.5930040000000 1.0
C      1  0.4455780000000  0.5463560000000  0.4091800000000 1.0
C      1  0.5438610000000  0.5091370000000  0.4234160000000 1.0
C      1  0.4914330000000  0.5966830000000  0.4803250000000 1.0
C      1  0.4893510000000  0.4177020000000  0.4338950000000 1.0
C      1  0.4847880000000  0.5347030000000  0.4435360000000 1.0
C      1  0.5549620000000  0.3976950000000  0.4935090000000 1.0
C      1  0.5423960000000  0.4187240000000  0.3949650000000 1.0
C      1  0.5984820000000  0.4362170000000  0.5043680000000 1.0
C      1  0.5059130000000  0.5325700000000  0.4061740000000 1.0
C      1  0.5562390000000  0.5405120000000  0.4190600000000 1.0
C      1  0.4352870000000  0.4784390000000  0.5263040000000 1.0
C      1  0.5126210000000  0.4421200000000  0.5497760000000 1.0
C      1  0.4549370000000  0.5041360000000  0.4912980000000 1.0
C      1  0.4462790000000  0.5171620000000  0.5502060000000 1.0
C      1  0.4553980000000  0.5809200000000  0.5547820000000 1.0
C      1  0.5196650000000  0.6095020000000  0.5518340000000 1.0
C      1  0.4963650000000  0.5123240000000  0.3854880000000 1.0
C      1  0.4949920000000  0.5758230000000  0.4151250000000 1.0
C      1  0.6139240000000  0.4961270000000  0.4866700000000 1.0
C      1  0.5040640000000  0.5073950000000  0.4855730000000 1.0
C      1  0.4972680000000  0.4917190000000  0.6116300000000 1.0
C      1  0.5146070000000  0.4176060000000  0.4570160000000 1.0
C      1  0.5399550000000  0.4503580000000  0.5829840000000 1.0
C      1  0.4923210000000  0.6071450000000  0.5345810000000 1.0
C      1  0.4651240000000  0.4334620000000  0.5307830000000 1.0
C      1  0.5978120000000  0.4669380000000  0.4938370000000 1.0
C      1  0.4568100000000  0.4370900000000  0.4686520000000 1.0
C      1  0.4134640000000  0.5290180000000  0.5620540000000 1.0
C      1  0.5273460000000  0.5381460000000  0.5819430000000 1.0
C      1  0.4598950000000  0.4991530000000  0.5245770000000 1.0
C      1  0.5685160000000  0.4647250000000  0.4248850000000 1.0
C      1  0.4478050000000  0.4610660000000  0.4381030000000 1.0
C      1  0.5653020000000  0.5459040000000  0.4513910000000 1.0
C      1  0.5077830000000  0.5634100000000  0.5847530000000 1.0
C      1  0.4798800000000  0.5134760000000  0.6103600000000 1.0
C      1  0.5367280000000  0.6111860000000  0.4987770000000 1.0
C      1  0.4484380000000  0.5733150000000  0.4987590000000 1.0
C      1  0.4696800000000  0.4736230000000  0.4881990000000 1.0
C      1  0.4186980000000  0.5192440000000  0.4817010000000 1.0
C      1  0.5642400000000  0.4858120000000  0.4114860000000 1.0
C      1  0.5912970000000  0.5061540000000  0.4476560000000 1.0
C      1  0.5037420000000  0.6134270000000  0.5044740000000 1.0
C      1  0.4446160000000  0.5144020000000  0.4025770000000 1.0
C      1  0.5343780000000  0.5397620000000  0.5037020000000 1.0
C      1  0.5542680000000  0.4454120000000  0.4789210000000 1.0
C      1  0.4745430000000  0.5047110000000  0.4320510000000 1.0
C      1  0.5187810000000  0.4861590000000  0.4227290000000 1.0
C      1  0.5370200000000  0.4342180000000  0.5346710000000 1.0
C      1  0.4283870000000  0.4120990000000  0.4809740000000 1.0
C      1  0.5724690000000  0.4540460000000  0.5782900000000 1.0
C      1  0.4710260000000  0.5303460000000  0.3924080000000 1.0
C      1  0.5146820000000  0.5597120000000  0.4032170000000 1.0
C      1  0.4175980000000  0.4979420000000  0.4096220000000 1.0
C      1  0.4169970000000  0.5129580000000  0.5334010000000 1.0
C      1  0.5875410000000  0.4427670000000  0.5552650000000 1.0
C      1  0.5047430000000  0.4354230000000  0.5112610000000 1.0
C      1  0.4069120000000  0.5454690000000  0.5123980000000 1.0
C      1  0.4628070000000  0.6011640000000  0.5368050000000 1.0
C      1  0.5071450000000  0.5794870000000  0.5288740000000 1.0
C      1  0.5662620000000  0.4719390000000  0.4942240000000 1.0
C      1  0.5161850000000  0.5232790000000  0.4372330000000 1.0
C      1  0.5601680000000  0.4549900000000  0.5230620000000 1.0
C      1  0.5054700000000  0.4874090000000  0.3914660000000 1.0
C      1  0.5158500000000  0.5571720000000  0.4812910000000 1.0
C      1  0.4934730000000  0.5239270000000  0.5354740000000 1.0
C      1  0.5910050000000  0.5457650000000  0.5094540000000 1.0
C      1  0.4517180000000  0.6005970000000  0.5114230000000 1.0
C      1  0.4759210000000  0.5727190000000  0.5778650000000 1.0
C      1  0.5254670000000  0.5535030000000  0.5333940000000 1.0
C      1  0.5257410000000  0.3953770000000  0.4756600000000 1.0
C      1  0.5832740000000  0.4838970000000  0.5542440000000 1.0
C      1  0.4421840000000  0.4523070000000  0.5811160000000 1.0
C      1  0.5776650000000  0.4850540000000  0.5841760000000 1.0
C      1  0.5432740000000  0.5589630000000  0.4034370000000 1.0
C      1  0.4517790000000  0.4890120000000  0.5684990000000 1.0
C      1  0.5368350000000  0.4040370000000  0.5432840000000 1.0
C      1  0.5255440000000  0.5801240000000  0.5037560000000 1.0
C      1  0.4817780000000  0.4453300000000  0.4155110000000 1.0
C      1  0.5424810000000  0.6063950000000  0.5306570000000 1.0
C      1  0.3953250000000  0.4627460000000  0.4822360000000 1.0
C      1  0.5230900000000  0.5868010000000  0.5722080000000 1.0
C      1  0.5487050000000  0.4828020000000  0.4662880000000 1.0
C      1  0.3899120000000  0.4574650000000  0.5146800000000 1.0
C      1  0.5244510000000  0.4437770000000  0.4400860000000 1.0
C      1  0.4878280000000  0.5362730000000  0.5874550000000 1.0
C      1  0.5157570000000  0.5148630000000  0.5142410000000 1.0
C      1  0.6117760000000  0.4850450000000  0.5187380000000 1.0
C      1  0.4958920000000  0.4088130000000  0.5633120000000 1.0
C      1  0.6055080000000  0.5161050000000  0.4695180000000 1.0
C      1  0.5427610000000  0.5773810000000  0.5469440000000 1.0
C      1  0.4867190000000  0.4841830000000  0.5316500000000 1.0
C      1  0.5098170000000  0.4690130000000  0.5127790000000 1.0
C      1  0.4443100000000  0.4091180000000  0.5043670000000 1.0
C      1  0.5740760000000  0.5259040000000  0.5557980000000 1.0
C      1  0.5524800000000  0.4820120000000  0.5422150000000 1.0
C      1  0.5379820000000  0.4673320000000  0.6106130000000 1.0
C      1  0.4032770000000  0.5496640000000  0.5412650000000 1.0
C      1  0.4962070000000  0.3977520000000  0.4924050000000 1.0
C      1  0.4040900000000  0.5553220000000  0.4445240000000 1.0
C      1  0.5224130000000  0.5017990000000  0.4616550000000 1.0
C      1  0.4630830000000  0.4444840000000  0.5003040000000 1.0
C      1  0.5048430000000  0.4402810000000  0.4785180000000 1.0
C      1  0.4560470000000  0.5265380000000  0.5814080000000 1.0
C      1  0.5640960000000  0.5449080000000  0.5302250000000 1.0
C      1  0.5297070000000  0.3801880000000  0.5049920000000 1.0
C      1  0.4346090000000  0.4587260000000  0.4763590000000 1.0
C      1  0.4401770000000  0.5771350000000  0.4688670000000 1.0
C      1  0.5472480000000  0.5130230000000  0.5474650000000 1.0
C      1  0.5891130000000  0.5431610000000  0.4755710000000 1.0
C      1  0.4508190000000  0.5068490000000  0.6042640000000 1.0
C      1  0.4691500000000  0.3967780000000  0.4363400000000 1.0
C      1  0.5394980000000  0.5149530000000  0.6007690000000 1.0
C      1  0.3964410000000  0.5144330000000  0.5063530000000 1.0
C      1  0.4177360000000  0.5546830000000  0.4212760000000 1.0
C      1  0.6006910000000  0.4558130000000  0.5321220000000 1.0
C      1  0.4701040000000  0.3972990000000  0.5059790000000 1.0
C      1  0.4708950000000  0.4796570000000  0.4547560000000 1.0
C      1  0.5615530000000  0.5418530000000  0.5811860000000 1.0
C      1  0.4862100000000  0.4538620000000  0.5444790000000 1.0
END
