TITL C-2847948-6138-321 0.000128620756078955 125000 -405.369811052655 0 0 73 (C1) n - 1
REM
REM in /home/bkarasulu/work/CARBON/AIRSS/Generating-Clusters/AIREBO/with-SteepDescent/Only-C1/SD-CG-opt/Try1-1.4A-POS3A/HFTN-CG
REM
REM
REM
REM
REM
REM ./C.cell (11c1c37f851c82e70ff6c80c92926a4b)
REM
REM compiler GCC version 9.2.1 20190827 (Red Hat 9.2.1-1)
REM options -cpp -mtune=generic -march=x86-64 -g -O0 -fpre-include=/usr/include/finclude/math-vector-fortran.h
REM seed 1561603900 1040031835 1456348063 -1718273468 -1651549240 -1703255800 473648311 1685408638 1419196695 1433115184 -1132123892 1717248561 1209979461 1329599037 478583171 -483012996 528366701 1231663364 -1648827368 -243587869 -1207835101 828364767 -789571812 -1503456737 1168892152 -1444774034 82287685 1422324403 2042333355 418950775 -1712240894 448596523 628790461
REM
CELL 1.54180   50.00000   50.00000   50.00000   90.00000   90.00000   90.00000
LATT -1
SFAC C  
C      1  0.5617620000000  0.5345690000000  0.4712200000000 1.0
C      1  0.5213080000000  0.4695130000000  0.4298120000000 1.0
C      1  0.5362310000000  0.4412860000000  0.5443790000000 1.0
C      1  0.5254980000000  0.5183990000000  0.4748510000000 1.0
C      1  0.4865340000000  0.5375240000000  0.4298670000000 1.0
C      1  0.5778620000000  0.4881380000000  0.4817850000000 1.0
C      1  0.5460060000000  0.5471080000000  0.5174220000000 1.0
C      1  0.5893080000000  0.5447970000000  0.4649870000000 1.0
C      1  0.5216560000000  0.4696730000000  0.5078660000000 1.0
C      1  0.4940380000000  0.5398790000000  0.5506170000000 1.0
C      1  0.5161190000000  0.4629290000000  0.5468600000000 1.0
C      1  0.4531520000000  0.5109460000000  0.4217600000000 1.0
C      1  0.4973880000000  0.4574110000000  0.4874400000000 1.0
C      1  0.4308310000000  0.5402250000000  0.4609590000000 1.0
C      1  0.4867090000000  0.4604300000000  0.5307080000000 1.0
C      1  0.5224670000000  0.5653580000000  0.4719130000000 1.0
C      1  0.4687850000000  0.4516080000000  0.4963700000000 1.0
C      1  0.5479860000000  0.5118730000000  0.4501990000000 1.0
C      1  0.5013790000000  0.4310490000000  0.5277290000000 1.0
C      1  0.5267600000000  0.4311530000000  0.4476210000000 1.0
C      1  0.4698900000000  0.5180330000000  0.4717520000000 1.0
C      1  0.5273810000000  0.4874770000000  0.5819620000000 1.0
C      1  0.5643280000000  0.4847240000000  0.5404610000000 1.0
C      1  0.4529040000000  0.5520320000000  0.5038700000000 1.0
C      1  0.5226050000000  0.5225240000000  0.5561590000000 1.0
C      1  0.5945210000000  0.4930450000000  0.5045580000000 1.0
C      1  0.5434050000000  0.5535640000000  0.4865180000000 1.0
C      1  0.4975400000000  0.4882680000000  0.4137370000000 1.0
C      1  0.4155070000000  0.4722100000000  0.5542970000000 1.0
C      1  0.4416550000000  0.4722820000000  0.4967900000000 1.0
C      1  0.4645260000000  0.5260210000000  0.5745920000000 1.0
C      1  0.4619210000000  0.4695840000000  0.5713130000000 1.0
C      1  0.5049980000000  0.5184380000000  0.4126760000000 1.0
C      1  0.4517010000000  0.5620680000000  0.5287710000000 1.0
C      1  0.5137470000000  0.5909930000000  0.4759240000000 1.0
C      1  0.4424760000000  0.4692340000000  0.5511390000000 1.0
C      1  0.4357970000000  0.5585110000000  0.4821570000000 1.0
C      1  0.5323400000000  0.4927600000000  0.5487410000000 1.0
C      1  0.4677830000000  0.5534790000000  0.5570270000000 1.0
C      1  0.5040130000000  0.4915850000000  0.5909860000000 1.0
C      1  0.4981320000000  0.5159010000000  0.4613270000000 1.0
C      1  0.5428680000000  0.4602370000000  0.4533020000000 1.0
C      1  0.5271000000000  0.4434320000000  0.4785980000000 1.0
C      1  0.4571880000000  0.5327120000000  0.4454380000000 1.0
C      1  0.5804430000000  0.5038760000000  0.5273710000000 1.0
C      1  0.4143860000000  0.5175940000000  0.4680210000000 1.0
C      1  0.4752330000000  0.4446270000000  0.5739770000000 1.0
C      1  0.5245260000000  0.5486170000000  0.5391760000000 1.0
C      1  0.4927660000000  0.5211760000000  0.5153500000000 1.0
C      1  0.4904640000000  0.4298400000000  0.5560990000000 1.0
C      1  0.4778720000000  0.4953620000000  0.5739850000000 1.0
C      1  0.5534530000000  0.5068130000000  0.4892540000000 1.0
C      1  0.4866200000000  0.5084270000000  0.5463960000000 1.0
C      1  0.5084590000000  0.5473510000000  0.4534890000000 1.0
C      1  0.4998850000000  0.4353740000000  0.4398080000000 1.0
C      1  0.4551700000000  0.4628020000000  0.5254460000000 1.0
C      1  0.4266480000000  0.4983110000000  0.4818630000000 1.0
C      1  0.4471730000000  0.5802610000000  0.5539890000000 1.0
C      1  0.4980620000000  0.4890660000000  0.5228220000000 1.0
C      1  0.4712490000000  0.5321140000000  0.4983540000000 1.0
C      1  0.3899910000000  0.4775940000000  0.5569010000000 1.0
C      1  0.4561430000000  0.4908020000000  0.4723940000000 1.0
C      1  0.5727440000000  0.5320500000000  0.5291640000000 1.0
C      1  0.4672460000000  0.4876460000000  0.4242340000000 1.0
C      1  0.4909090000000  0.4599010000000  0.4565250000000 1.0
C      1  0.5248480000000  0.5268390000000  0.4337180000000 1.0
C      1  0.5227660000000  0.5257300000000  0.5064190000000 1.0
C      1  0.5606270000000  0.4841590000000  0.4571410000000 1.0
C      1  0.5497880000000  0.4621090000000  0.5258010000000 1.0
C      1  0.5010840000000  0.4904470000000  0.4466740000000 1.0
C      1  0.4647150000000  0.4743660000000  0.4490510000000 1.0
C      1  0.5361660000000  0.4980050000000  0.5153580000000 1.0
C      1  0.5144610000000  0.4257650000000  0.5047580000000 1.0
END
