TITL C-2847947-6848-311 0.000824202256396581 125000 -1056.26808738577 0 0 192 (C1) n - 1
REM
REM in /home/bkarasulu/work/CARBON/AIRSS/Generating-Clusters/AIREBO/with-SteepDescent/Only-C1/SD-CG-opt/Try1-1.4A-POS3A/HFTN-CG
REM
REM
REM
REM
REM
REM ./C.cell (11c1c37f851c82e70ff6c80c92926a4b)
REM
REM compiler GCC version 9.2.1 20190827 (Red Hat 9.2.1-1)
REM options -cpp -mtune=generic -march=x86-64 -g -O0 -fpre-include=/usr/include/finclude/math-vector-fortran.h
REM seed 1358938869 1176462573 -787502804 -806741091 -549117866 1366668459 1638976586 1602934679 2027571304 -1745138155 1857494184 897509957 -441716953 -925938789 678956937 526046348 -1933169361 1606929508 -266306949 -854427922 1318506161 1180976120 -1645852868 -1917940870 -49342984 -2075237866 -268626045 -747094499 -1287268282 -658320186 2145354199 -718428444 -569708234
REM
CELL 1.54180   50.00000   50.00000   50.00000   90.00000   90.00000   90.00000
LATT -1
SFAC C  
C      1  0.5739620000000  0.5542210000000  0.5642020000000 1.0
C      1  0.3917170000000  0.4704530000000  0.5148010000000 1.0
C      1  0.5890770000000  0.5355730000000  0.4543270000000 1.0
C      1  0.3929880000000  0.4426960000000  0.5021400000000 1.0
C      1  0.4522220000000  0.4924070000000  0.5622430000000 1.0
C      1  0.4431440000000  0.4414300000000  0.5164820000000 1.0
C      1  0.4627870000000  0.4362750000000  0.4592650000000 1.0
C      1  0.5283580000000  0.4955720000000  0.4268280000000 1.0
C      1  0.4652820000000  0.5245840000000  0.5819720000000 1.0
C      1  0.5746360000000  0.4982600000000  0.5460560000000 1.0
C      1  0.5231370000000  0.3831530000000  0.5127150000000 1.0
C      1  0.5517970000000  0.5725440000000  0.4734970000000 1.0
C      1  0.4177300000000  0.5425840000000  0.4936860000000 1.0
C      1  0.4916980000000  0.6126580000000  0.4917820000000 1.0
C      1  0.5294210000000  0.4836420000000  0.5601680000000 1.0
C      1  0.5708960000000  0.4749450000000  0.5067600000000 1.0
C      1  0.4439950000000  0.4852350000000  0.4468680000000 1.0
C      1  0.4479620000000  0.4629930000000  0.5884120000000 1.0
C      1  0.5603420000000  0.4894390000000  0.5727600000000 1.0
C      1  0.4767010000000  0.5829930000000  0.4846240000000 1.0
C      1  0.5766320000000  0.5536130000000  0.5356210000000 1.0
C      1  0.5994010000000  0.4816860000000  0.4264580000000 1.0
C      1  0.5937980000000  0.4311910000000  0.5013900000000 1.0
C      1  0.4515670000000  0.5189860000000  0.4011250000000 1.0
C      1  0.5956280000000  0.4962610000000  0.5031320000000 1.0
C      1  0.5312470000000  0.4198760000000  0.4403470000000 1.0
C      1  0.5281410000000  0.5466640000000  0.3984630000000 1.0
C      1  0.5163140000000  0.5341460000000  0.4859570000000 1.0
C      1  0.4285060000000  0.5752600000000  0.4677530000000 1.0
C      1  0.4932420000000  0.4863960000000  0.6063740000000 1.0
C      1  0.4065820000000  0.5412560000000  0.5631220000000 1.0
C      1  0.5048610000000  0.6135970000000  0.5386540000000 1.0
C      1  0.5211430000000  0.5722300000000  0.5918020000000 1.0
C      1  0.4287400000000  0.5558260000000  0.4422040000000 1.0
C      1  0.4877240000000  0.5701320000000  0.4209240000000 1.0
C      1  0.5288990000000  0.5423300000000  0.5938730000000 1.0
C      1  0.5305100000000  0.4672110000000  0.4355520000000 1.0
C      1  0.5688090000000  0.5802220000000  0.5152010000000 1.0
C      1  0.5204420000000  0.4158160000000  0.5174050000000 1.0
C      1  0.4957200000000  0.4790920000000  0.5598490000000 1.0
C      1  0.4357300000000  0.4757710000000  0.4168880000000 1.0
C      1  0.5122700000000  0.5276750000000  0.3835880000000 1.0
C      1  0.4502190000000  0.5349530000000  0.4516290000000 1.0
C      1  0.4527960000000  0.4001410000000  0.5200630000000 1.0
C      1  0.5505350000000  0.4980390000000  0.5132390000000 1.0
C      1  0.5511250000000  0.5372270000000  0.4190430000000 1.0
C      1  0.4268660000000  0.4331910000000  0.4421500000000 1.0
C      1  0.4492440000000  0.5736370000000  0.5800970000000 1.0
C      1  0.4551530000000  0.4304370000000  0.4264650000000 1.0
C      1  0.5409290000000  0.5645350000000  0.5222010000000 1.0
C      1  0.5115160000000  0.5374460000000  0.5371240000000 1.0
C      1  0.5123570000000  0.4815360000000  0.5241310000000 1.0
C      1  0.4392090000000  0.5259410000000  0.4813680000000 1.0
C      1  0.5574570000000  0.4915530000000  0.4633650000000 1.0
C      1  0.4744490000000  0.5748650000000  0.5175610000000 1.0
C      1  0.5411150000000  0.5048070000000  0.3980960000000 1.0
C      1  0.3848120000000  0.5139420000000  0.5106140000000 1.0
C      1  0.4101250000000  0.4738420000000  0.5381400000000 1.0
C      1  0.4224990000000  0.4284340000000  0.5394320000000 1.0
C      1  0.4539670000000  0.4881550000000  0.3989370000000 1.0
C      1  0.4009970000000  0.5420640000000  0.4373480000000 1.0
C      1  0.5126110000000  0.5005030000000  0.5844710000000 1.0
C      1  0.4418570000000  0.4790240000000  0.5333000000000 1.0
C      1  0.5657670000000  0.5117930000000  0.5926890000000 1.0
C      1  0.5730220000000  0.5604350000000  0.4243970000000 1.0
C      1  0.5323700000000  0.5742910000000  0.5497570000000 1.0
C      1  0.3942000000000  0.5261970000000  0.5346200000000 1.0
C      1  0.4808990000000  0.6016040000000  0.5465800000000 1.0
C      1  0.4437110000000  0.5791660000000  0.4920100000000 1.0
C      1  0.5332190000000  0.4217240000000  0.4674540000000 1.0
C      1  0.4406280000000  0.4146380000000  0.4981970000000 1.0
C      1  0.5126820000000  0.6131670000000  0.5107790000000 1.0
C      1  0.5815510000000  0.4639210000000  0.4160170000000 1.0
C      1  0.5437990000000  0.5957740000000  0.4499880000000 1.0
C      1  0.5483440000000  0.4333530000000  0.4241650000000 1.0
C      1  0.5193520000000  0.4442390000000  0.5146730000000 1.0
C      1  0.5490290000000  0.5417450000000  0.4663180000000 1.0
C      1  0.4470570000000  0.5709120000000  0.5462750000000 1.0
C      1  0.5046940000000  0.4490090000000  0.4336340000000 1.0
C      1  0.4618880000000  0.5936010000000  0.4556250000000 1.0
C      1  0.6045460000000  0.5078800000000  0.5322370000000 1.0
C      1  0.4558420000000  0.5978770000000  0.5279470000000 1.0
C      1  0.5168290000000  0.5712590000000  0.4058430000000 1.0
C      1  0.5312460000000  0.4537950000000  0.4043150000000 1.0
C      1  0.4811510000000  0.3901090000000  0.5181300000000 1.0
C      1  0.4623510000000  0.6193910000000  0.4777750000000 1.0
C      1  0.4683890000000  0.5448800000000  0.4155950000000 1.0
C      1  0.6047200000000  0.4878130000000  0.4713490000000 1.0
C      1  0.5839170000000  0.5022730000000  0.4486490000000 1.0
C      1  0.4295080000000  0.5628810000000  0.5182750000000 1.0
C      1  0.5619140000000  0.4071230000000  0.5466460000000 1.0
C      1  0.4977190000000  0.3976490000000  0.4582610000000 1.0
C      1  0.5258370000000  0.6061600000000  0.5550130000000 1.0
C      1  0.5668100000000  0.4534640000000  0.5280290000000 1.0
C      1  0.4903810000000  0.4558910000000  0.5281230000000 1.0
C      1  0.4982230000000  0.3941630000000  0.4922820000000 1.0
C      1  0.5097300000000  0.5623830000000  0.4440570000000 1.0
C      1  0.3939430000000  0.5185230000000  0.4579310000000 1.0
C      1  0.5739540000000  0.4423490000000  0.4315340000000 1.0
C      1  0.5330240000000  0.3982540000000  0.5429040000000 1.0
C      1  0.5718130000000  0.4209590000000  0.5205440000000 1.0
C      1  0.4989480000000  0.5304740000000  0.5829210000000 1.0
C      1  0.4764130000000  0.4975110000000  0.5409620000000 1.0
C      1  0.5249300000000  0.5752930000000  0.4941780000000 1.0
C      1  0.4143160000000  0.4607990000000  0.4368890000000 1.0
C      1  0.4249720000000  0.5067780000000  0.5564650000000 1.0
C      1  0.5420800000000  0.6014020000000  0.5076270000000 1.0
C      1  0.4789190000000  0.4283840000000  0.4116760000000 1.0
C      1  0.4618650000000  0.4406150000000  0.5703500000000 1.0
C      1  0.5415220000000  0.5133960000000  0.4762010000000 1.0
C      1  0.5090110000000  0.4159010000000  0.5556870000000 1.0
C      1  0.4136790000000  0.4615990000000  0.4831800000000 1.0
C      1  0.4513100000000  0.4934960000000  0.5040080000000 1.0
C      1  0.3983280000000  0.4848360000000  0.4550950000000 1.0
C      1  0.4996610000000  0.5017430000000  0.4697020000000 1.0
C      1  0.4628960000000  0.4527840000000  0.5386150000000 1.0
C      1  0.4848240000000  0.4587160000000  0.4536260000000 1.0
C      1  0.4957490000000  0.5068150000000  0.3943080000000 1.0
C      1  0.5024990000000  0.5194670000000  0.5098760000000 1.0
C      1  0.5727440000000  0.4202800000000  0.5679470000000 1.0
C      1  0.5949780000000  0.4433860000000  0.5442000000000 1.0
C      1  0.5288270000000  0.5081750000000  0.5373660000000 1.0
C      1  0.4926810000000  0.4722260000000  0.4809370000000 1.0
C      1  0.5004930000000  0.4571770000000  0.6066910000000 1.0
C      1  0.5359050000000  0.5970240000000  0.5823790000000 1.0
C      1  0.5217960000000  0.4958420000000  0.4948510000000 1.0
C      1  0.4948400000000  0.4981600000000  0.6320310000000 1.0
C      1  0.5684360000000  0.5239990000000  0.5246630000000 1.0
C      1  0.3963180000000  0.4903820000000  0.4886070000000 1.0
C      1  0.4418540000000  0.6114570000000  0.5025010000000 1.0
C      1  0.6051570000000  0.4574360000000  0.4827990000000 1.0
C      1  0.5250110000000  0.5876740000000  0.4323630000000 1.0
C      1  0.5024240000000  0.4151790000000  0.4301890000000 1.0
C      1  0.5537240000000  0.4080450000000  0.4788380000000 1.0
C      1  0.4817510000000  0.4810120000000  0.3923930000000 1.0
C      1  0.5834050000000  0.5464770000000  0.4861620000000 1.0
C      1  0.5289300000000  0.4483490000000  0.5960430000000 1.0
C      1  0.4579810000000  0.5263050000000  0.5427070000000 1.0
C      1  0.4828480000000  0.4047010000000  0.5453770000000 1.0
C      1  0.4848250000000  0.4903430000000  0.5088070000000 1.0
C      1  0.6008650000000  0.5192920000000  0.4806130000000 1.0
C      1  0.5098580000000  0.4253440000000  0.5852320000000 1.0
C      1  0.5665070000000  0.5078170000000  0.4199630000000 1.0
C      1  0.4750130000000  0.5401250000000  0.4707140000000 1.0
C      1  0.4271010000000  0.5344830000000  0.5368530000000 1.0
C      1  0.5544540000000  0.5426640000000  0.4999180000000 1.0
C      1  0.4629890000000  0.5234610000000  0.5136510000000 1.0
C      1  0.5562820000000  0.5374080000000  0.5862570000000 1.0
C      1  0.4115010000000  0.4491440000000  0.5593030000000 1.0
C      1  0.4696260000000  0.5483240000000  0.5579980000000 1.0
C      1  0.4557880000000  0.5119580000000  0.4341240000000 1.0
C      1  0.5138510000000  0.4456380000000  0.4819300000000 1.0
C      1  0.5500360000000  0.4034150000000  0.5071460000000 1.0
C      1  0.3985620000000  0.4951670000000  0.5605380000000 1.0
C      1  0.6113260000000  0.4545550000000  0.5161160000000 1.0
C      1  0.4856890000000  0.5163110000000  0.4215270000000 1.0
C      1  0.4970010000000  0.4552770000000  0.4013270000000 1.0
C      1  0.5275110000000  0.5377560000000  0.4420480000000 1.0
C      1  0.5010520000000  0.5617430000000  0.4740620000000 1.0
C      1  0.4372610000000  0.4189600000000  0.4712280000000 1.0
C      1  0.4157880000000  0.5944310000000  0.5161690000000 1.0
C      1  0.5785350000000  0.5678800000000  0.4530090000000 1.0
C      1  0.5368520000000  0.4644910000000  0.4654290000000 1.0
C      1  0.4510350000000  0.4155950000000  0.5504600000000 1.0
C      1  0.5833320000000  0.4421830000000  0.4616380000000 1.0
C      1  0.5984210000000  0.4760350000000  0.5373490000000 1.0
C      1  0.4823670000000  0.4359630000000  0.5933970000000 1.0
C      1  0.5660760000000  0.4637870000000  0.4784900000000 1.0
C      1  0.5717280000000  0.4515660000000  0.5676220000000 1.0
C      1  0.5102370000000  0.4490530000000  0.5531370000000 1.0
C      1  0.5390020000000  0.4572590000000  0.5399300000000 1.0
C      1  0.5025160000000  0.5590500000000  0.5139440000000 1.0
C      1  0.4428990000000  0.4639480000000  0.4958890000000 1.0
C      1  0.5560170000000  0.5750000000000  0.5726420000000 1.0
C      1  0.3996810000000  0.4219160000000  0.5183770000000 1.0
C      1  0.5827680000000  0.5796800000000  0.4856090000000 1.0
C      1  0.4671680000000  0.5074770000000  0.4773420000000 1.0
C      1  0.4805920000000  0.5783000000000  0.5664640000000 1.0
C      1  0.5562120000000  0.4769270000000  0.4052610000000 1.0
C      1  0.5518990000000  0.4597290000000  0.5870230000000 1.0
C      1  0.3930370000000  0.5301370000000  0.4873620000000 1.0
C      1  0.5081580000000  0.5125230000000  0.4412630000000 1.0
C      1  0.5076630000000  0.5578080000000  0.5641120000000 1.0
C      1  0.4243930000000  0.5058960000000  0.4608570000000 1.0
C      1  0.4364790000000  0.5434540000000  0.5792170000000 1.0
C      1  0.4654090000000  0.4920010000000  0.5919370000000 1.0
C      1  0.4571050000000  0.5716650000000  0.4339000000000 1.0
C      1  0.5785120000000  0.4127170000000  0.4694480000000 1.0
C      1  0.4427000000000  0.4618850000000  0.4649640000000 1.0
C      1  0.4230980000000  0.4677320000000  0.5776500000000 1.0
C      1  0.4887080000000  0.4232100000000  0.4772220000000 1.0
C      1  0.4748360000000  0.5464130000000  0.5004670000000 1.0
END
