TITL C-2848499-1157-514 -0.00111302935536187 125000 -388.677407373217 0 0 71 (C1) n - 1
REM
REM in /home/bkarasulu/work/CARBON/AIRSS/Generating-Clusters/AIREBO/with-SteepDescent/Only-C1/SD-CG-opt/Try1-1.4A-POS3A/HFTN-CG
REM
REM
REM
REM
REM
REM ./C.cell (11c1c37f851c82e70ff6c80c92926a4b)
REM
REM compiler GCC version 9.2.1 20190827 (Red Hat 9.2.1-1)
REM options -cpp -mtune=generic -march=x86-64 -g -O0 -fpre-include=/usr/include/finclude/math-vector-fortran.h
REM seed -1034721620 21589246 1991857064 -1303463083 -1875284545 824413722 1984589620 -487860246 -944668342 1942940376 -417735138 642069867 -1134498374 -650814798 -1142581932 695346191 1473768814 -1283414464 1960804291 750237833 1066563041 1217310148 1677514904 -398639335 82403257 1917627176 -1043163410 -729402667 -1095034614 351690054 -965168250 174800587 1203064288
REM
CELL 1.54180   50.00000   50.00000   50.00000   90.00000   90.00000   90.00000
LATT -1
SFAC C  
C      1  0.5103530000000  0.4271950000000  0.5108490000000 1.0
C      1  0.5006860000000  0.5627330000000  0.5386230000000 1.0
C      1  0.4854490000000  0.4812550000000  0.5804690000000 1.0
C      1  0.5006590000000  0.5593000000000  0.5047860000000 1.0
C      1  0.5214080000000  0.4938630000000  0.4749200000000 1.0
C      1  0.4338300000000  0.4698450000000  0.5256660000000 1.0
C      1  0.4683780000000  0.4771970000000  0.4297410000000 1.0
C      1  0.5173920000000  0.5112850000000  0.5102020000000 1.0
C      1  0.5344090000000  0.5094400000000  0.4492480000000 1.0
C      1  0.4579820000000  0.5742050000000  0.5232220000000 1.0
C      1  0.5399340000000  0.4570860000000  0.4459260000000 1.0
C      1  0.5229380000000  0.5036040000000  0.5593390000000 1.0
C      1  0.5804460000000  0.4683110000000  0.5124000000000 1.0
C      1  0.5075250000000  0.5001740000000  0.4380480000000 1.0
C      1  0.5251960000000  0.5398480000000  0.5143160000000 1.0
C      1  0.5614620000000  0.5596340000000  0.4888630000000 1.0
C      1  0.4541840000000  0.5558200000000  0.4942820000000 1.0
C      1  0.5628020000000  0.4974440000000  0.4452270000000 1.0
C      1  0.5390140000000  0.4357630000000  0.5115270000000 1.0
C      1  0.5480200000000  0.4657470000000  0.5203320000000 1.0
C      1  0.5547330000000  0.5459610000000  0.5124510000000 1.0
C      1  0.4437240000000  0.5099060000000  0.4671780000000 1.0
C      1  0.5057700000000  0.5370900000000  0.4795450000000 1.0
C      1  0.5563940000000  0.5220200000000  0.5313800000000 1.0
C      1  0.4759420000000  0.5817910000000  0.4971340000000 1.0
C      1  0.5603490000000  0.5035400000000  0.4786220000000 1.0
C      1  0.5343460000000  0.5632680000000  0.4702740000000 1.0
C      1  0.4602700000000  0.4601330000000  0.4723310000000 1.0
C      1  0.4976070000000  0.4760800000000  0.4282860000000 1.0
C      1  0.4750880000000  0.5391250000000  0.5145680000000 1.0
C      1  0.4630720000000  0.5237470000000  0.4867420000000 1.0
C      1  0.4877500000000  0.4437610000000  0.5211820000000 1.0
C      1  0.4735430000000  0.5673430000000  0.5458200000000 1.0
C      1  0.4585340000000  0.5170760000000  0.5313910000000 1.0
C      1  0.5003050000000  0.4456840000000  0.4647440000000 1.0
C      1  0.5155350000000  0.4835850000000  0.5780670000000 1.0
C      1  0.4608010000000  0.4389570000000  0.5413030000000 1.0
C      1  0.4609880000000  0.5232940000000  0.5611590000000 1.0
C      1  0.5228950000000  0.5514770000000  0.5524680000000 1.0
C      1  0.5119830000000  0.4536050000000  0.4397780000000 1.0
C      1  0.5378180000000  0.5265550000000  0.5531570000000 1.0
C      1  0.5148790000000  0.4632470000000  0.5275680000000 1.0
C      1  0.4622070000000  0.5509810000000  0.5658390000000 1.0
C      1  0.4861320000000  0.5117900000000  0.4544150000000 1.0
C      1  0.4720280000000  0.5343350000000  0.4376970000000 1.0
C      1  0.5475100000000  0.4980520000000  0.5097290000000 1.0
C      1  0.4865900000000  0.5566760000000  0.4355960000000 1.0
C      1  0.5387070000000  0.5298790000000  0.4750950000000 1.0
C      1  0.4316840000000  0.5089570000000  0.5180310000000 1.0
C      1  0.4773380000000  0.4599810000000  0.5598640000000 1.0
C      1  0.5076590000000  0.5576390000000  0.4522720000000 1.0
C      1  0.5608850000000  0.4723240000000  0.4346540000000 1.0
C      1  0.4925290000000  0.5067480000000  0.4874380000000 1.0
C      1  0.5105460000000  0.4572010000000  0.5607520000000 1.0
C      1  0.4153240000000  0.4903100000000  0.5353350000000 1.0
C      1  0.4376130000000  0.4659310000000  0.4931690000000 1.0
C      1  0.4809290000000  0.4973790000000  0.5190340000000 1.0
C      1  0.5247330000000  0.5818420000000  0.4964940000000 1.0
C      1  0.5085860000000  0.4944680000000  0.5345310000000 1.0
C      1  0.4569380000000  0.4568460000000  0.4456690000000 1.0
C      1  0.5672380000000  0.4728570000000  0.4860170000000 1.0
C      1  0.5181300000000  0.4661820000000  0.4938400000000 1.0
C      1  0.4334970000000  0.4973380000000  0.4918830000000 1.0
C      1  0.5440330000000  0.4548330000000  0.4767580000000 1.0
C      1  0.4877210000000  0.4731780000000  0.4803340000000 1.0
C      1  0.4639300000000  0.4734280000000  0.5332880000000 1.0
C      1  0.5481230000000  0.4232230000000  0.4834930000000 1.0
C      1  0.4545280000000  0.5058180000000  0.4374370000000 1.0
C      1  0.5149720000000  0.4276480000000  0.4806970000000 1.0
C      1  0.4684550000000  0.5036860000000  0.5796930000000 1.0
C      1  0.4570420000000  0.4434780000000  0.5078130000000 1.0
END
