TITL C-2847946-5639-421 0.000802553028337404 125000 -961.662265759317 0 0 178 (C1) n - 1
REM
REM in /home/bkarasulu/work/CARBON/AIRSS/Generating-Clusters/AIREBO/with-SteepDescent/Only-C1/SD-CG-opt/Try1-1.4A-POS3A/HFTN-CG
REM
REM
REM
REM
REM
REM ./C.cell (11c1c37f851c82e70ff6c80c92926a4b)
REM
REM compiler GCC version 9.2.1 20190827 (Red Hat 9.2.1-1)
REM options -cpp -mtune=generic -march=x86-64 -g -O0 -fpre-include=/usr/include/finclude/math-vector-fortran.h
REM seed -1279811994 -403929150 1944141713 1078923867 -1731428916 1420970465 1423422295 -708202300 233015687 2039996183 -536279680 -1204464853 627410761 1299981871 1568358196 1799317152 -1645865359 -596708952 -1906952761 -1909761117 1627582434 1697547096 -25479418 -79432318 1679577923 1544959654 1098877692 -488589987 -1893602826 1217200155 1176865788 1660013958 1839841151
REM
CELL 1.54180   50.00000   50.00000   50.00000   90.00000   90.00000   90.00000
LATT -1
SFAC C  
C      1  0.4539450000000  0.5704930000000  0.4924240000000 1.0
C      1  0.5928740000000  0.4865450000000  0.4321880000000 1.0
C      1  0.4952230000000  0.5640180000000  0.4546430000000 1.0
C      1  0.5141590000000  0.5314770000000  0.5102090000000 1.0
C      1  0.4927800000000  0.4359020000000  0.5237810000000 1.0
C      1  0.3863900000000  0.4937970000000  0.4992000000000 1.0
C      1  0.5253230000000  0.5190670000000  0.5998110000000 1.0
C      1  0.5412340000000  0.4237360000000  0.5562540000000 1.0
C      1  0.4994220000000  0.6102780000000  0.5419840000000 1.0
C      1  0.5555020000000  0.5204650000000  0.5163590000000 1.0
C      1  0.5786540000000  0.5753370000000  0.5009440000000 1.0
C      1  0.4782620000000  0.5366160000000  0.4566190000000 1.0
C      1  0.4307060000000  0.4971460000000  0.4926980000000 1.0
C      1  0.4235780000000  0.4306240000000  0.5343700000000 1.0
C      1  0.5495620000000  0.4873360000000  0.5145110000000 1.0
C      1  0.5170820000000  0.5660110000000  0.4301740000000 1.0
C      1  0.3930350000000  0.4555500000000  0.5028690000000 1.0
C      1  0.5040470000000  0.4698930000000  0.5999400000000 1.0
C      1  0.5934810000000  0.4464740000000  0.4934820000000 1.0
C      1  0.4651470000000  0.5250460000000  0.4274210000000 1.0
C      1  0.4808500000000  0.5028280000000  0.4565680000000 1.0
C      1  0.5177580000000  0.4161320000000  0.5332180000000 1.0
C      1  0.4732990000000  0.4529820000000  0.4492460000000 1.0
C      1  0.5673190000000  0.4493440000000  0.4442490000000 1.0
C      1  0.5046350000000  0.5619170000000  0.4999870000000 1.0
C      1  0.4436180000000  0.5570060000000  0.5666430000000 1.0
C      1  0.5421190000000  0.4976420000000  0.4041170000000 1.0
C      1  0.5316810000000  0.5976770000000  0.5436340000000 1.0
C      1  0.4734180000000  0.5174020000000  0.5975730000000 1.0
C      1  0.4481110000000  0.4936520000000  0.5526020000000 1.0
C      1  0.4489960000000  0.4347120000000  0.4232930000000 1.0
C      1  0.5236430000000  0.5077260000000  0.5600970000000 1.0
C      1  0.4812880000000  0.4605050000000  0.4814350000000 1.0
C      1  0.5455980000000  0.5839590000000  0.4839420000000 1.0
C      1  0.5803540000000  0.4914890000000  0.5472460000000 1.0
C      1  0.3948300000000  0.4627250000000  0.4728140000000 1.0
C      1  0.6142270000000  0.5286350000000  0.5327420000000 1.0
C      1  0.5845040000000  0.5531100000000  0.4764180000000 1.0
C      1  0.5331430000000  0.5745140000000  0.5670570000000 1.0
C      1  0.5109800000000  0.5003970000000  0.4057870000000 1.0
C      1  0.4390790000000  0.5326680000000  0.4594420000000 1.0
C      1  0.5171540000000  0.4489330000000  0.4111430000000 1.0
C      1  0.4895070000000  0.5117040000000  0.5050650000000 1.0
C      1  0.5263920000000  0.4541490000000  0.5930660000000 1.0
C      1  0.4769620000000  0.5000220000000  0.3853600000000 1.0
C      1  0.4129040000000  0.5137830000000  0.4487430000000 1.0
C      1  0.4245620000000  0.5380460000000  0.5578250000000 1.0
C      1  0.5976180000000  0.4650520000000  0.4728500000000 1.0
C      1  0.4950200000000  0.4386140000000  0.5575980000000 1.0
C      1  0.5463840000000  0.4901990000000  0.5482410000000 1.0
C      1  0.5570900000000  0.5818020000000  0.5273920000000 1.0
C      1  0.5186210000000  0.3931000000000  0.5082200000000 1.0
C      1  0.5028090000000  0.4980870000000  0.4366830000000 1.0
C      1  0.5346110000000  0.4172630000000  0.4452260000000 1.0
C      1  0.6060510000000  0.4831670000000  0.5265790000000 1.0
C      1  0.4864670000000  0.6127590000000  0.5107050000000 1.0
C      1  0.4882880000000  0.4234230000000  0.4430160000000 1.0
C      1  0.5616740000000  0.4297140000000  0.5327170000000 1.0
C      1  0.5432020000000  0.5459450000000  0.4217380000000 1.0
C      1  0.5742980000000  0.5101360000000  0.4451330000000 1.0
C      1  0.4080810000000  0.5190970000000  0.5346230000000 1.0
C      1  0.4522560000000  0.4667710000000  0.4144580000000 1.0
C      1  0.5499030000000  0.4692770000000  0.5819920000000 1.0
C      1  0.6169130000000  0.5069110000000  0.5145350000000 1.0
C      1  0.5006730000000  0.5031230000000  0.5360220000000 1.0
C      1  0.5103860000000  0.4195720000000  0.4581740000000 1.0
C      1  0.5016950000000  0.5879560000000  0.5681210000000 1.0
C      1  0.5705010000000  0.4886380000000  0.5800850000000 1.0
C      1  0.4767430000000  0.4972280000000  0.5699180000000 1.0
C      1  0.5323290000000  0.4304200000000  0.5057980000000 1.0
C      1  0.5164460000000  0.4580470000000  0.5299060000000 1.0
C      1  0.5243380000000  0.5238300000000  0.4393980000000 1.0
C      1  0.4973380000000  0.5344090000000  0.4215960000000 1.0
C      1  0.4943940000000  0.4755810000000  0.3922080000000 1.0
C      1  0.4485220000000  0.4212660000000  0.5484460000000 1.0
C      1  0.4961180000000  0.3990830000000  0.5534610000000 1.0
C      1  0.4302290000000  0.4815190000000  0.4644970000000 1.0
C      1  0.4520240000000  0.4708570000000  0.4962000000000 1.0
C      1  0.5504920000000  0.4030680000000  0.5146430000000 1.0
C      1  0.4394700000000  0.4207270000000  0.5059860000000 1.0
C      1  0.4626060000000  0.4189820000000  0.4836530000000 1.0
C      1  0.4467020000000  0.4333400000000  0.4571880000000 1.0
C      1  0.4654740000000  0.3986410000000  0.5490010000000 1.0
C      1  0.5706480000000  0.5723120000000  0.5536400000000 1.0
C      1  0.5454590000000  0.4694580000000  0.4421910000000 1.0
C      1  0.4325510000000  0.5290150000000  0.4183870000000 1.0
C      1  0.4165680000000  0.4204240000000  0.4797640000000 1.0
C      1  0.4288630000000  0.5699060000000  0.5246400000000 1.0
C      1  0.5557750000000  0.5934250000000  0.4536360000000 1.0
C      1  0.4551150000000  0.4996300000000  0.4060370000000 1.0
C      1  0.5352100000000  0.4702730000000  0.4149070000000 1.0
C      1  0.4467840000000  0.5754540000000  0.5461970000000 1.0
C      1  0.4847160000000  0.4570080000000  0.4174550000000 1.0
C      1  0.4515220000000  0.5860620000000  0.4556590000000 1.0
C      1  0.5194280000000  0.4330210000000  0.5764520000000 1.0
C      1  0.5744600000000  0.5469100000000  0.5191470000000 1.0
C      1  0.4854020000000  0.3874370000000  0.4759650000000 1.0
C      1  0.4590350000000  0.5402620000000  0.4844580000000 1.0
C      1  0.5674610000000  0.5269460000000  0.6225490000000 1.0
C      1  0.4267000000000  0.4811480000000  0.5726740000000 1.0
C      1  0.5613130000000  0.4974260000000  0.4842430000000 1.0
C      1  0.4408070000000  0.5191640000000  0.5365630000000 1.0
C      1  0.4769130000000  0.5554980000000  0.4044410000000 1.0
C      1  0.3989460000000  0.4941890000000  0.4687500000000 1.0
C      1  0.4279060000000  0.5901570000000  0.5036580000000 1.0
C      1  0.4950770000000  0.5250040000000  0.3889980000000 1.0
C      1  0.5576130000000  0.4274750000000  0.4586830000000 1.0
C      1  0.4540620000000  0.5620940000000  0.4124030000000 1.0
C      1  0.4629400000000  0.3965280000000  0.4581210000000 1.0
C      1  0.5006610000000  0.5708380000000  0.5387620000000 1.0
C      1  0.3826940000000  0.4749740000000  0.5288090000000 1.0
C      1  0.4751830000000  0.4306620000000  0.6026570000000 1.0
C      1  0.4824510000000  0.4754550000000  0.5437010000000 1.0
C      1  0.4680710000000  0.5433190000000  0.5762230000000 1.0
C      1  0.5848300000000  0.5249450000000  0.5430150000000 1.0
C      1  0.4770010000000  0.4595090000000  0.6020840000000 1.0
C      1  0.6078340000000  0.4563030000000  0.5163120000000 1.0
C      1  0.4646800000000  0.4090880000000  0.4309890000000 1.0
C      1  0.5277940000000  0.5413010000000  0.5620800000000 1.0
C      1  0.5390060000000  0.5227410000000  0.4885710000000 1.0
C      1  0.5450990000000  0.5581470000000  0.5061040000000 1.0
C      1  0.5942490000000  0.5273150000000  0.4667200000000 1.0
C      1  0.4207990000000  0.5294280000000  0.4879330000000 1.0
C      1  0.4782900000000  0.5884190000000  0.4619050000000 1.0
C      1  0.5294520000000  0.4235520000000  0.4172820000000 1.0
C      1  0.4146960000000  0.4448550000000  0.4568520000000 1.0
C      1  0.5178440000000  0.6008360000000  0.4889840000000 1.0
C      1  0.4251970000000  0.4495760000000  0.4950110000000 1.0
C      1  0.4570490000000  0.4747110000000  0.5865940000000 1.0
C      1  0.5893640000000  0.4903130000000  0.4805610000000 1.0
C      1  0.4653360000000  0.4485940000000  0.5498460000000 1.0
C      1  0.4043630000000  0.4730760000000  0.5560490000000 1.0
C      1  0.6089450000000  0.5106980000000  0.4874850000000 1.0
C      1  0.4805420000000  0.5253750000000  0.5520340000000 1.0
C      1  0.5633590000000  0.5502020000000  0.4559380000000 1.0
C      1  0.4264650000000  0.5785550000000  0.4740900000000 1.0
C      1  0.4095750000000  0.5461490000000  0.4366890000000 1.0
C      1  0.5279120000000  0.4607760000000  0.4672190000000 1.0
C      1  0.4597670000000  0.5207220000000  0.5094200000000 1.0
C      1  0.5392470000000  0.4574080000000  0.5519400000000 1.0
C      1  0.5573850000000  0.5176140000000  0.4179330000000 1.0
C      1  0.4081510000000  0.5548000000000  0.4690000000000 1.0
C      1  0.5524710000000  0.5224070000000  0.6000160000000 1.0
C      1  0.5919410000000  0.4614450000000  0.4458320000000 1.0
C      1  0.5685950000000  0.5213660000000  0.5710600000000 1.0
C      1  0.4730920000000  0.5889340000000  0.5391800000000 1.0
C      1  0.4923240000000  0.4922400000000  0.4829620000000 1.0
C      1  0.4257180000000  0.4959950000000  0.4227530000000 1.0
C      1  0.5172460000000  0.4842080000000  0.5131210000000 1.0
C      1  0.4908930000000  0.6064720000000  0.4792830000000 1.0
C      1  0.5200740000000  0.5640890000000  0.4734510000000 1.0
C      1  0.4184090000000  0.5449670000000  0.5162600000000 1.0
C      1  0.4126290000000  0.4886190000000  0.5202050000000 1.0
C      1  0.4184120000000  0.4578300000000  0.5334770000000 1.0
C      1  0.5229140000000  0.4876330000000  0.4797620000000 1.0
C      1  0.5608690000000  0.4572760000000  0.5136530000000 1.0
C      1  0.4268670000000  0.4657640000000  0.4351740000000 1.0
C      1  0.4615790000000  0.4889800000000  0.5217320000000 1.0
C      1  0.5188090000000  0.5862350000000  0.5167630000000 1.0
C      1  0.4928900000000  0.4127710000000  0.4978370000000 1.0
C      1  0.5084750000000  0.4392140000000  0.4831770000000 1.0
C      1  0.4788670000000  0.5798780000000  0.5065630000000 1.0
C      1  0.5366940000000  0.5402200000000  0.4655190000000 1.0
C      1  0.5626190000000  0.4324830000000  0.4904420000000 1.0
C      1  0.4976970000000  0.5429990000000  0.5357950000000 1.0
C      1  0.4567030000000  0.4469000000000  0.5191870000000 1.0
C      1  0.5068010000000  0.4961450000000  0.5857810000000 1.0
C      1  0.4834840000000  0.4167570000000  0.5796180000000 1.0
C      1  0.4399700000000  0.5609130000000  0.4405090000000 1.0
C      1  0.5433260000000  0.5006540000000  0.4555620000000 1.0
C      1  0.6305960000000  0.5494820000000  0.5385180000000 1.0
C      1  0.4995240000000  0.5547970000000  0.5753160000000 1.0
C      1  0.5594990000000  0.5718360000000  0.4366070000000 1.0
C      1  0.5781220000000  0.4578490000000  0.5427530000000 1.0
C      1  0.5581450000000  0.5527070000000  0.5745330000000 1.0
C      1  0.5374480000000  0.5410380000000  0.5330660000000 1.0
C      1  0.4590570000000  0.4820110000000  0.4522930000000 1.0
C      1  0.4995720000000  0.5333280000000  0.5986280000000 1.0
END
