TITL C-2848498-1409-582 -0.00388888965232028 125000 -706.106777304802 0 0 134 (C1) n - 1
REM
REM in /home/bkarasulu/work/CARBON/AIRSS/Generating-Clusters/AIREBO/with-SteepDescent/Only-C1/SD-CG-opt/Try1-1.4A-POS3A/HFTN-CG
REM
REM
REM
REM
REM
REM ./C.cell (11c1c37f851c82e70ff6c80c92926a4b)
REM
REM compiler GCC version 9.2.1 20190827 (Red Hat 9.2.1-1)
REM options -cpp -mtune=generic -march=x86-64 -g -O0 -fpre-include=/usr/include/finclude/math-vector-fortran.h
REM seed 2102630242 490796806 478738518 -1569910282 1377552028 -456635149 140216249 933843717 1964437173 926102649 1364279760 362112363 1015752362 189364427 2078942510 1264203698 1614710863 1356464948 1390019910 -977542808 -846322569 516322645 1508789050 1756266859 -207054025 379891910 1111609811 -72730952 748887936 1153762722 -1371111985 864668996 251035504
REM
CELL 1.54180   50.00000   50.00000   50.00000   90.00000   90.00000   90.00000
LATT -1
SFAC C  
C      1  0.5158370000000  0.4369830000000  0.5715240000000 1.0
C      1  0.4364470000000  0.4427110000000  0.4882290000000 1.0
C      1  0.4976500000000  0.4159560000000  0.5145190000000 1.0
C      1  0.5134530000000  0.5420430000000  0.5326350000000 1.0
C      1  0.4995280000000  0.5247580000000  0.5761870000000 1.0
C      1  0.5393280000000  0.4334040000000  0.5471990000000 1.0
C      1  0.5622480000000  0.4481590000000  0.4223440000000 1.0
C      1  0.5650950000000  0.4653890000000  0.5058770000000 1.0
C      1  0.5409540000000  0.4274130000000  0.4930820000000 1.0
C      1  0.4623910000000  0.5427270000000  0.4621330000000 1.0
C      1  0.5557360000000  0.4698150000000  0.4653920000000 1.0
C      1  0.4978100000000  0.5368010000000  0.4166020000000 1.0
C      1  0.5944360000000  0.5082970000000  0.5492220000000 1.0
C      1  0.4366900000000  0.5535120000000  0.4426200000000 1.0
C      1  0.5248280000000  0.5459230000000  0.5785180000000 1.0
C      1  0.5929600000000  0.5481620000000  0.5467270000000 1.0
C      1  0.5023020000000  0.4072460000000  0.4664930000000 1.0
C      1  0.4604170000000  0.5023930000000  0.4207660000000 1.0
C      1  0.4695450000000  0.4296100000000  0.5062550000000 1.0
C      1  0.5236910000000  0.5721280000000  0.5084350000000 1.0
C      1  0.5261740000000  0.4968470000000  0.4266000000000 1.0
C      1  0.5515530000000  0.4619170000000  0.5882060000000 1.0
C      1  0.4986140000000  0.4792080000000  0.4210150000000 1.0
C      1  0.4597500000000  0.4917360000000  0.5350090000000 1.0
C      1  0.5067670000000  0.5737020000000  0.4351250000000 1.0
C      1  0.4966410000000  0.5807630000000  0.5588950000000 1.0
C      1  0.4350220000000  0.4932920000000  0.4888290000000 1.0
C      1  0.4701550000000  0.5132640000000  0.6007480000000 1.0
C      1  0.5372420000000  0.5011080000000  0.5029810000000 1.0
C      1  0.4158180000000  0.4678550000000  0.4932460000000 1.0
C      1  0.5263140000000  0.5459780000000  0.4327560000000 1.0
C      1  0.5251190000000  0.4535780000000  0.5951180000000 1.0
C      1  0.5511700000000  0.5278380000000  0.4179170000000 1.0
C      1  0.5620170000000  0.4439090000000  0.5682740000000 1.0
C      1  0.4547720000000  0.5919240000000  0.5119520000000 1.0
C      1  0.4228800000000  0.4237640000000  0.4456840000000 1.0
C      1  0.5604540000000  0.5471860000000  0.4761980000000 1.0
C      1  0.4303890000000  0.4930580000000  0.4551260000000 1.0
C      1  0.5490250000000  0.5762480000000  0.5522720000000 1.0
C      1  0.4405240000000  0.5126560000000  0.5162520000000 1.0
C      1  0.5100660000000  0.4630140000000  0.4732210000000 1.0
C      1  0.5160430000000  0.5149630000000  0.4038370000000 1.0
C      1  0.4657120000000  0.4314970000000  0.5766210000000 1.0
C      1  0.5880480000000  0.5484190000000  0.5173190000000 1.0
C      1  0.4589950000000  0.4628140000000  0.4731340000000 1.0
C      1  0.5411780000000  0.4993120000000  0.5540720000000 1.0
C      1  0.4854790000000  0.4551330000000  0.4890130000000 1.0
C      1  0.4849080000000  0.6069140000000  0.5071660000000 1.0
C      1  0.5724710000000  0.5388520000000  0.5627150000000 1.0
C      1  0.3936620000000  0.5008580000000  0.4968370000000 1.0
C      1  0.6136610000000  0.5402830000000  0.4624880000000 1.0
C      1  0.4490860000000  0.4257390000000  0.5553110000000 1.0
C      1  0.5501010000000  0.5643440000000  0.4487220000000 1.0
C      1  0.5433300000000  0.5874660000000  0.4647630000000 1.0
C      1  0.5802670000000  0.5164240000000  0.5259770000000 1.0
C      1  0.5410200000000  0.5432400000000  0.5037500000000 1.0
C      1  0.4273710000000  0.4937820000000  0.4216480000000 1.0
C      1  0.4698810000000  0.5626570000000  0.5170410000000 1.0
C      1  0.4104090000000  0.4972950000000  0.5199680000000 1.0
C      1  0.4275270000000  0.5413190000000  0.5030650000000 1.0
C      1  0.5369710000000  0.4504340000000  0.5178400000000 1.0
C      1  0.5107420000000  0.6031870000000  0.5133500000000 1.0
C      1  0.4973850000000  0.5693060000000  0.5298180000000 1.0
C      1  0.4882120000000  0.5268210000000  0.5460140000000 1.0
C      1  0.5901980000000  0.4988830000000  0.4811780000000 1.0
C      1  0.5614120000000  0.4107270000000  0.4954000000000 1.0
C      1  0.4792570000000  0.5455540000000  0.5939170000000 1.0
C      1  0.4261660000000  0.5869790000000  0.5217520000000 1.0
C      1  0.5179550000000  0.4084460000000  0.5566280000000 1.0
C      1  0.4484740000000  0.4396550000000  0.4505450000000 1.0
C      1  0.4529200000000  0.5588930000000  0.4897090000000 1.0
C      1  0.4743830000000  0.4179670000000  0.4559340000000 1.0
C      1  0.4151030000000  0.5641060000000  0.5212890000000 1.0
C      1  0.4250310000000  0.5533420000000  0.4710650000000 1.0
C      1  0.5196680000000  0.5169390000000  0.4794630000000 1.0
C      1  0.4820560000000  0.4682440000000  0.3983520000000 1.0
C      1  0.5032550000000  0.3960930000000  0.4917060000000 1.0
C      1  0.4850750000000  0.4387700000000  0.4346390000000 1.0
C      1  0.4113570000000  0.4727620000000  0.5338490000000 1.0
C      1  0.5027610000000  0.5495570000000  0.4948490000000 1.0
C      1  0.4345650000000  0.4516260000000  0.5473870000000 1.0
C      1  0.4540340000000  0.5165120000000  0.4738560000000 1.0
C      1  0.5740180000000  0.4469930000000  0.4823370000000 1.0
C      1  0.5248940000000  0.4272740000000  0.4633780000000 1.0
C      1  0.4661950000000  0.5411610000000  0.4283770000000 1.0
C      1  0.5027910000000  0.5204160000000  0.5087770000000 1.0
C      1  0.4758850000000  0.4617730000000  0.5355660000000 1.0
C      1  0.4912820000000  0.4965200000000  0.5468180000000 1.0
C      1  0.5509940000000  0.5827790000000  0.4917730000000 1.0
C      1  0.4914270000000  0.5140870000000  0.4607390000000 1.0
C      1  0.4003810000000  0.4880860000000  0.4706960000000 1.0
C      1  0.4711470000000  0.5936740000000  0.4821590000000 1.0
C      1  0.5577270000000  0.5058660000000  0.4034930000000 1.0
C      1  0.5853230000000  0.4798930000000  0.4626150000000 1.0
C      1  0.5788020000000  0.4921840000000  0.5058440000000 1.0
C      1  0.5474780000000  0.5210620000000  0.5287040000000 1.0
C      1  0.4716260000000  0.4844760000000  0.5935430000000 1.0
C      1  0.4943930000000  0.4025820000000  0.5423350000000 1.0
C      1  0.4736650000000  0.4920030000000  0.4793500000000 1.0
C      1  0.5054870000000  0.4775850000000  0.5978210000000 1.0
C      1  0.4222290000000  0.4459700000000  0.5172350000000 1.0
C      1  0.4909090000000  0.4779060000000  0.5689180000000 1.0
C      1  0.5416800000000  0.5459170000000  0.5512040000000 1.0
C      1  0.4640300000000  0.4126380000000  0.5352500000000 1.0
C      1  0.5517620000000  0.4895960000000  0.5831810000000 1.0
C      1  0.5297160000000  0.5167110000000  0.4497360000000 1.0
C      1  0.4452880000000  0.4690220000000  0.4360790000000 1.0
C      1  0.5332550000000  0.4645710000000  0.4274820000000 1.0
C      1  0.5371620000000  0.4824550000000  0.5292850000000 1.0
C      1  0.5311730000000  0.4787450000000  0.4798840000000 1.0
C      1  0.5574950000000  0.4788450000000  0.4096080000000 1.0
C      1  0.5531040000000  0.4408350000000  0.4528250000000 1.0
C      1  0.4887860000000  0.4475440000000  0.5636840000000 1.0
C      1  0.5005740000000  0.5643560000000  0.5800250000000 1.0
C      1  0.5883850000000  0.5259790000000  0.4697780000000 1.0
C      1  0.4424610000000  0.5083640000000  0.5591310000000 1.0
C      1  0.4627740000000  0.5342860000000  0.5302160000000 1.0
C      1  0.4890650000000  0.5807310000000  0.4632910000000 1.0
C      1  0.5610810000000  0.5261100000000  0.4495190000000 1.0
C      1  0.5021720000000  0.4495260000000  0.5177860000000 1.0
C      1  0.4392750000000  0.5249830000000  0.4152290000000 1.0
C      1  0.4513220000000  0.4759190000000  0.5641260000000 1.0
C      1  0.5069230000000  0.4829420000000  0.5218840000000 1.0
C      1  0.4940010000000  0.5477180000000  0.4663070000000 1.0
C      1  0.4677080000000  0.4540450000000  0.4188420000000 1.0
C      1  0.4596620000000  0.5262010000000  0.5749480000000 1.0
C      1  0.5772610000000  0.5654740000000  0.4982070000000 1.0
C      1  0.5117520000000  0.4513640000000  0.4436800000000 1.0
C      1  0.4880920000000  0.5079520000000  0.4314350000000 1.0
C      1  0.4542850000000  0.4162890000000  0.4820540000000 1.0
C      1  0.4161600000000  0.5147840000000  0.5679480000000 1.0
C      1  0.5180050000000  0.5958920000000  0.4554900000000 1.0
C      1  0.5202960000000  0.5022610000000  0.5807850000000 1.0
C      1  0.4807020000000  0.4972570000000  0.5084530000000 1.0
END
