TITL C-2847952-8118-258 -0.000817198730007551 125000 -941.200856077244 0 0 179 (C1) n - 1
REM
REM in /home/bkarasulu/work/CARBON/AIRSS/Generating-Clusters/AIREBO/with-SteepDescent/Only-C1/SD-CG-opt/Try1-1.4A-POS3A/HFTN-CG
REM
REM
REM
REM
REM
REM ./C.cell (11c1c37f851c82e70ff6c80c92926a4b)
REM
REM compiler GCC version 9.2.1 20190827 (Red Hat 9.2.1-1)
REM options -cpp -mtune=generic -march=x86-64 -g -O0 -fpre-include=/usr/include/finclude/math-vector-fortran.h
REM seed 215050797 -1287386833 -2101637600 -565186840 1617571068 1065030966 -23766130 953150713 934877502 -875760486 -1540812429 1424349447 -1029646205 2022083794 1766028999 566918317 957021738 1693986202 -1129091842 844182657 -695480176 -539311021 -695176516 -1402435202 -1655802986 824019092 962562179 -56335045 -1863376954 1603996714 -448205957 -840091724 961272285
REM
CELL 1.54180   50.00000   50.00000   50.00000   90.00000   90.00000   90.00000
LATT -1
SFAC C  
C      1  0.5699720000000  0.4846490000000  0.4360340000000 1.0
C      1  0.4484720000000  0.5651900000000  0.5064480000000 1.0
C      1  0.5658530000000  0.5173750000000  0.4750990000000 1.0
C      1  0.5612550000000  0.4994480000000  0.5036250000000 1.0
C      1  0.4457430000000  0.5269610000000  0.5918820000000 1.0
C      1  0.4815410000000  0.6003860000000  0.4688330000000 1.0
C      1  0.4234930000000  0.4837920000000  0.4174670000000 1.0
C      1  0.4487430000000  0.5524860000000  0.5717050000000 1.0
C      1  0.5306130000000  0.5353060000000  0.4811310000000 1.0
C      1  0.4419810000000  0.5823350000000  0.4319160000000 1.0
C      1  0.5772320000000  0.5741070000000  0.5519190000000 1.0
C      1  0.5040330000000  0.5229940000000  0.4638620000000 1.0
C      1  0.5545060000000  0.4492750000000  0.6035600000000 1.0
C      1  0.5081560000000  0.4327600000000  0.5922910000000 1.0
C      1  0.4522640000000  0.4955520000000  0.5265190000000 1.0
C      1  0.5753610000000  0.4420960000000  0.4456010000000 1.0
C      1  0.5172730000000  0.4955610000000  0.5103740000000 1.0
C      1  0.5436880000000  0.4766760000000  0.5167280000000 1.0
C      1  0.5496910000000  0.4595530000000  0.4766710000000 1.0
C      1  0.4580610000000  0.4542740000000  0.5341540000000 1.0
C      1  0.5023400000000  0.4123520000000  0.5069200000000 1.0
C      1  0.5817640000000  0.5108090000000  0.5257340000000 1.0
C      1  0.4730450000000  0.5822320000000  0.4410940000000 1.0
C      1  0.4326720000000  0.4713640000000  0.5188550000000 1.0
C      1  0.5318060000000  0.5249930000000  0.5123270000000 1.0
C      1  0.4530140000000  0.3882670000000  0.5104510000000 1.0
C      1  0.4757940000000  0.4340570000000  0.5041840000000 1.0
C      1  0.5367860000000  0.4341810000000  0.5645840000000 1.0
C      1  0.5971230000000  0.5246320000000  0.4638920000000 1.0
C      1  0.5813470000000  0.4656420000000  0.5649250000000 1.0
C      1  0.4807650000000  0.3938020000000  0.4724010000000 1.0
C      1  0.4568330000000  0.4953160000000  0.5558990000000 1.0
C      1  0.4944310000000  0.5204300000000  0.6106340000000 1.0
C      1  0.5754600000000  0.5348650000000  0.4195530000000 1.0
C      1  0.4131760000000  0.4990960000000  0.5141370000000 1.0
C      1  0.4723840000000  0.5166500000000  0.4072180000000 1.0
C      1  0.5782430000000  0.4877450000000  0.5825790000000 1.0
C      1  0.4769220000000  0.3804820000000  0.4973020000000 1.0
C      1  0.4794550000000  0.5284510000000  0.5094340000000 1.0
C      1  0.5661300000000  0.5407680000000  0.4993320000000 1.0
C      1  0.4013040000000  0.5783920000000  0.4675810000000 1.0
C      1  0.5068200000000  0.6022130000000  0.5441250000000 1.0
C      1  0.4930320000000  0.5080540000000  0.4917250000000 1.0
C      1  0.4878750000000  0.6196750000000  0.4893990000000 1.0
C      1  0.4458450000000  0.4691260000000  0.4614960000000 1.0
C      1  0.4218360000000  0.4396460000000  0.4031920000000 1.0
C      1  0.5365050000000  0.4712590000000  0.6037410000000 1.0
C      1  0.3992860000000  0.4778340000000  0.4914060000000 1.0
C      1  0.4742490000000  0.5924640000000  0.5445430000000 1.0
C      1  0.5237030000000  0.3922380000000  0.5226900000000 1.0
C      1  0.5904150000000  0.4591970000000  0.4621500000000 1.0
C      1  0.4725450000000  0.4893860000000  0.5048830000000 1.0
C      1  0.5869590000000  0.4379270000000  0.5462290000000 1.0
C      1  0.4610690000000  0.4663150000000  0.5616770000000 1.0
C      1  0.5485350000000  0.5746670000000  0.5386070000000 1.0
C      1  0.4072700000000  0.4963420000000  0.5475170000000 1.0
C      1  0.4916200000000  0.5306900000000  0.5411100000000 1.0
C      1  0.5441910000000  0.4781590000000  0.5562700000000 1.0
C      1  0.4845390000000  0.4260560000000  0.4741120000000 1.0
C      1  0.4503150000000  0.5724540000000  0.5457100000000 1.0
C      1  0.5945510000000  0.5008970000000  0.4399460000000 1.0
C      1  0.5194170000000  0.5797640000000  0.4255660000000 1.0
C      1  0.5303250000000  0.4357470000000  0.4319480000000 1.0
C      1  0.5524350000000  0.5075850000000  0.5413600000000 1.0
C      1  0.5224950000000  0.4806160000000  0.3987790000000 1.0
C      1  0.4167030000000  0.5291680000000  0.5516580000000 1.0
C      1  0.4547430000000  0.5014750000000  0.4558410000000 1.0
C      1  0.4311240000000  0.4796380000000  0.5944420000000 1.0
C      1  0.5440620000000  0.5565620000000  0.5153270000000 1.0
C      1  0.5252760000000  0.5267040000000  0.5452070000000 1.0
C      1  0.4499120000000  0.5884770000000  0.4727670000000 1.0
C      1  0.4732140000000  0.4525560000000  0.4566630000000 1.0
C      1  0.6126750000000  0.5339940000000  0.4893240000000 1.0
C      1  0.5944010000000  0.5381170000000  0.5153750000000 1.0
C      1  0.5708740000000  0.4729790000000  0.5358370000000 1.0
C      1  0.5383890000000  0.4054100000000  0.5459630000000 1.0
C      1  0.4906830000000  0.4613150000000  0.5689610000000 1.0
C      1  0.4588650000000  0.5397780000000  0.5423170000000 1.0
C      1  0.4299290000000  0.5048620000000  0.5714410000000 1.0
C      1  0.5608940000000  0.4252060000000  0.5343850000000 1.0
C      1  0.4124070000000  0.5311290000000  0.4699420000000 1.0
C      1  0.5326580000000  0.5610810000000  0.4507030000000 1.0
C      1  0.5732290000000  0.5820750000000  0.5020160000000 1.0
C      1  0.5167540000000  0.5415870000000  0.4141960000000 1.0
C      1  0.4301840000000  0.4650250000000  0.3929400000000 1.0
C      1  0.3949000000000  0.5271680000000  0.5080480000000 1.0
C      1  0.5369340000000  0.4959170000000  0.3772870000000 1.0
C      1  0.4979330000000  0.4370290000000  0.4148950000000 1.0
C      1  0.5014380000000  0.4320190000000  0.5346570000000 1.0
C      1  0.5061230000000  0.5782830000000  0.4632150000000 1.0
C      1  0.5516850000000  0.5885570000000  0.4294470000000 1.0
C      1  0.5586430000000  0.5939090000000  0.4558400000000 1.0
C      1  0.5709580000000  0.4845610000000  0.4678010000000 1.0
C      1  0.5273310000000  0.4822670000000  0.4807340000000 1.0
C      1  0.4934910000000  0.5646510000000  0.5409950000000 1.0
C      1  0.5267940000000  0.4101470000000  0.4478510000000 1.0
C      1  0.4545760000000  0.5542820000000  0.4194230000000 1.0
C      1  0.4865780000000  0.5050780000000  0.5629270000000 1.0
C      1  0.5484240000000  0.4432040000000  0.5130020000000 1.0
C      1  0.4909940000000  0.5519620000000  0.4759880000000 1.0
C      1  0.5373090000000  0.4896860000000  0.4280110000000 1.0
C      1  0.4509020000000  0.5370780000000  0.5006520000000 1.0
C      1  0.4437480000000  0.4300790000000  0.5057880000000 1.0
C      1  0.4317170000000  0.4008360000000  0.4932350000000 1.0
C      1  0.5442440000000  0.5614030000000  0.4113350000000 1.0
C      1  0.5152570000000  0.4924960000000  0.4538500000000 1.0
C      1  0.5157940000000  0.4126750000000  0.4756820000000 1.0
C      1  0.5648270000000  0.4406610000000  0.5747390000000 1.0
C      1  0.5393570000000  0.5214070000000  0.5758040000000 1.0
C      1  0.5064210000000  0.4646810000000  0.6039640000000 1.0
C      1  0.4960870000000  0.4605220000000  0.3980900000000 1.0
C      1  0.5746360000000  0.4593750000000  0.4985920000000 1.0
C      1  0.4010490000000  0.4845980000000  0.4643330000000 1.0
C      1  0.5843930000000  0.5679370000000  0.5220370000000 1.0
C      1  0.5488480000000  0.5164170000000  0.3863800000000 1.0
C      1  0.5440040000000  0.5219600000000  0.4195740000000 1.0
C      1  0.5000140000000  0.3727740000000  0.5118340000000 1.0
C      1  0.4978270000000  0.5574220000000  0.5757980000000 1.0
C      1  0.4392800000000  0.4597830000000  0.4898520000000 1.0
C      1  0.4760860000000  0.5338280000000  0.5777840000000 1.0
C      1  0.5363280000000  0.6034420000000  0.5355580000000 1.0
C      1  0.5212680000000  0.5744520000000  0.5579880000000 1.0
C      1  0.3996630000000  0.5534550000000  0.4862820000000 1.0
C      1  0.4194740000000  0.4692270000000  0.4451160000000 1.0
C      1  0.4828320000000  0.4838370000000  0.4481540000000 1.0
C      1  0.4808980000000  0.4891860000000  0.3890640000000 1.0
C      1  0.4918360000000  0.5751010000000  0.4201610000000 1.0
C      1  0.5929600000000  0.5406210000000  0.4363060000000 1.0
C      1  0.4730020000000  0.5862250000000  0.5052420000000 1.0
C      1  0.5062900000000  0.4592760000000  0.4776760000000 1.0
C      1  0.4635900000000  0.5587780000000  0.4638260000000 1.0
C      1  0.5465160000000  0.4933570000000  0.5843500000000 1.0
C      1  0.5815750000000  0.5528290000000  0.5697280000000 1.0
C      1  0.4238240000000  0.5867310000000  0.4549710000000 1.0
C      1  0.4856210000000  0.4639810000000  0.5170240000000 1.0
C      1  0.5663920000000  0.4194740000000  0.4585010000000 1.0
C      1  0.4577150000000  0.4317200000000  0.5810600000000 1.0
C      1  0.4266120000000  0.5369540000000  0.4108660000000 1.0
C      1  0.4715020000000  0.4274800000000  0.5502580000000 1.0
C      1  0.4358650000000  0.5222450000000  0.5244320000000 1.0
C      1  0.4337920000000  0.4233580000000  0.5376080000000 1.0
C      1  0.4555650000000  0.4974860000000  0.6011850000000 1.0
C      1  0.4553890000000  0.4017610000000  0.5349320000000 1.0
C      1  0.4842740000000  0.5483470000000  0.4039410000000 1.0
C      1  0.4099690000000  0.5539410000000  0.5175630000000 1.0
C      1  0.5009270000000  0.4852920000000  0.5386830000000 1.0
C      1  0.5351730000000  0.5387790000000  0.5959680000000 1.0
C      1  0.4114080000000  0.4280870000000  0.4954540000000 1.0
C      1  0.5232330000000  0.4067010000000  0.5760250000000 1.0
C      1  0.4442520000000  0.5320340000000  0.4701940000000 1.0
C      1  0.4384740000000  0.4560720000000  0.5816120000000 1.0
C      1  0.5451540000000  0.5316260000000  0.4521540000000 1.0
C      1  0.4875380000000  0.6115910000000  0.5189220000000 1.0
C      1  0.4910760000000  0.4113680000000  0.5729270000000 1.0
C      1  0.5482970000000  0.3980080000000  0.5017900000000 1.0
C      1  0.4402800000000  0.5972920000000  0.5023380000000 1.0
C      1  0.3956660000000  0.4505140000000  0.4974160000000 1.0
C      1  0.4959420000000  0.5235190000000  0.4307930000000 1.0
C      1  0.5037050000000  0.4476790000000  0.4466660000000 1.0
C      1  0.5515210000000  0.4571080000000  0.4284770000000 1.0
C      1  0.4444490000000  0.5274980000000  0.4364970000000 1.0
C      1  0.5152670000000  0.4496350000000  0.5090590000000 1.0
C      1  0.4965660000000  0.5645000000000  0.5071330000000 1.0
C      1  0.4252590000000  0.5793310000000  0.5269900000000 1.0
C      1  0.6049940000000  0.4504690000000  0.4886640000000 1.0
C      1  0.4126740000000  0.4413190000000  0.4296520000000 1.0
C      1  0.5539790000000  0.5845070000000  0.4817850000000 1.0
C      1  0.4509500000000  0.4909920000000  0.3996940000000 1.0
C      1  0.5252890000000  0.5678750000000  0.4893120000000 1.0
C      1  0.5864660000000  0.5989810000000  0.5611510000000 1.0
C      1  0.4884040000000  0.4918870000000  0.5942500000000 1.0
C      1  0.5078070000000  0.5424280000000  0.6010260000000 1.0
C      1  0.4959880000000  0.4870150000000  0.4194550000000 1.0
C      1  0.5176400000000  0.4578270000000  0.5497780000000 1.0
C      1  0.4751980000000  0.4533360000000  0.5967050000000 1.0
C      1  0.3984610000000  0.5115530000000  0.4587220000000 1.0
C      1  0.5460100000000  0.4263660000000  0.4831620000000 1.0
C      1  0.5946650000000  0.4810400000000  0.5153340000000 1.0
C      1  0.6044000000000  0.4491000000000  0.5226360000000 1.0
END
