TITL C-2847946-5639-393 0.000139068489891355 125000 -339.379055225503 0 0 63 (C1) n - 1
REM
REM in /home/bkarasulu/work/CARBON/AIRSS/Generating-Clusters/AIREBO/with-SteepDescent/Only-C1/SD-CG-opt/Try1-1.4A-POS3A/HFTN-CG
REM
REM
REM
REM
REM
REM ./C.cell (11c1c37f851c82e70ff6c80c92926a4b)
REM
REM compiler GCC version 9.2.1 20190827 (Red Hat 9.2.1-1)
REM options -cpp -mtune=generic -march=x86-64 -g -O0 -fpre-include=/usr/include/finclude/math-vector-fortran.h
REM seed -712020516 373537105 332484405 -1559806008 -686157104 1673786938 66734298 1245310240 -2816073 -1190245717 -1798620064 864715722 -1579125467 -1777396534 864316833 -2146657276 -734262990 -308499045 175658002 -2129681873 1911395388 -2142385036 1065180612 -115547045 442181554 625656970 -952260374 -923709496 1177180351 622718462 -898997606 235032720 -1077532990
REM
CELL 1.54180   50.00000   50.00000   50.00000   90.00000   90.00000   90.00000
LATT -1
SFAC C  
C      1  0.4441900000000  0.4907010000000  0.4472840000000 1.0
C      1  0.4595530000000  0.4930110000000  0.4841400000000 1.0
C      1  0.5149630000000  0.5007000000000  0.5460810000000 1.0
C      1  0.4726760000000  0.4601160000000  0.5631040000000 1.0
C      1  0.5633720000000  0.5179640000000  0.4980620000000 1.0
C      1  0.4463290000000  0.4662800000000  0.5223870000000 1.0
C      1  0.4069470000000  0.4985870000000  0.5040840000000 1.0
C      1  0.4992780000000  0.4540370000000  0.5458800000000 1.0
C      1  0.5022750000000  0.5515980000000  0.5386990000000 1.0
C      1  0.5438500000000  0.4950870000000  0.5605340000000 1.0
C      1  0.5370760000000  0.5256130000000  0.5681180000000 1.0
C      1  0.4962030000000  0.4395080000000  0.4676910000000 1.0
C      1  0.4957220000000  0.5288880000000  0.4968540000000 1.0
C      1  0.4216630000000  0.5218540000000  0.4940720000000 1.0
C      1  0.5304700000000  0.5592570000000  0.4947620000000 1.0
C      1  0.5742180000000  0.4968540000000  0.5166720000000 1.0
C      1  0.4859340000000  0.5429670000000  0.4752010000000 1.0
C      1  0.5541820000000  0.5460900000000  0.4865660000000 1.0
C      1  0.4757930000000  0.5627940000000  0.5406840000000 1.0
C      1  0.4535570000000  0.5534120000000  0.5256000000000 1.0
C      1  0.5071390000000  0.5445770000000  0.4500220000000 1.0
C      1  0.4690930000000  0.4443940000000  0.5334000000000 1.0
C      1  0.4807380000000  0.4512020000000  0.4958600000000 1.0
C      1  0.5121530000000  0.5455760000000  0.5127630000000 1.0
C      1  0.5671860000000  0.4912150000000  0.4549960000000 1.0
C      1  0.4872980000000  0.4128150000000  0.4867770000000 1.0
C      1  0.4363240000000  0.5327270000000  0.5174380000000 1.0
C      1  0.5766640000000  0.5103250000000  0.4684990000000 1.0
C      1  0.5567200000000  0.4566920000000  0.5314260000000 1.0
C      1  0.4843060000000  0.5748320000000  0.4746120000000 1.0
C      1  0.4729790000000  0.4796380000000  0.4370530000000 1.0
C      1  0.5157020000000  0.5692010000000  0.4720140000000 1.0
C      1  0.5187080000000  0.5054840000000  0.4260230000000 1.0
C      1  0.4391030000000  0.5088490000000  0.5337650000000 1.0
C      1  0.4974520000000  0.4994890000000  0.4942660000000 1.0
C      1  0.4787780000000  0.4477300000000  0.4397170000000 1.0
C      1  0.5256700000000  0.4831030000000  0.5005610000000 1.0
C      1  0.4906500000000  0.5039330000000  0.4269870000000 1.0
C      1  0.5422230000000  0.4747530000000  0.4651370000000 1.0
C      1  0.4396750000000  0.5137530000000  0.4718660000000 1.0
C      1  0.4753440000000  0.4806670000000  0.5119690000000 1.0
C      1  0.5057850000000  0.4799660000000  0.5279660000000 1.0
C      1  0.5633550000000  0.4836170000000  0.5400060000000 1.0
C      1  0.5189650000000  0.5438450000000  0.5598000000000 1.0
C      1  0.4241520000000  0.4848440000000  0.5235640000000 1.0
C      1  0.4652740000000  0.4992630000000  0.5386160000000 1.0
C      1  0.4734150000000  0.4232940000000  0.5107950000000 1.0
C      1  0.5549510000000  0.5424800000000  0.4588330000000 1.0
C      1  0.4851430000000  0.4889220000000  0.4649880000000 1.0
C      1  0.5095780000000  0.4707330000000  0.4662350000000 1.0
C      1  0.5450510000000  0.4384080000000  0.5490780000000 1.0
C      1  0.5458120000000  0.4581760000000  0.5013420000000 1.0
C      1  0.4719680000000  0.5835230000000  0.5577560000000 1.0
C      1  0.5310820000000  0.5228470000000  0.4498480000000 1.0
C      1  0.4573700000000  0.5511630000000  0.4245000000000 1.0
C      1  0.4479490000000  0.5311650000000  0.4474820000000 1.0
C      1  0.5759360000000  0.4726810000000  0.5003930000000 1.0
C      1  0.5301760000000  0.4448890000000  0.4760500000000 1.0
C      1  0.4805980000000  0.5306080000000  0.4376400000000 1.0
C      1  0.5310760000000  0.4712180000000  0.5781280000000 1.0
C      1  0.4686910000000  0.4870040000000  0.5638710000000 1.0
C      1  0.5382080000000  0.5057790000000  0.4784030000000 1.0
C      1  0.5233060000000  0.4493020000000  0.5630770000000 1.0
END
