TITL C-2848509-3138-573 -0.000856002075158243 125000 -276.814200119889 0 0 51 (C1) n - 1
REM
REM in /home/bkarasulu/work/CARBON/AIRSS/Generating-Clusters/AIREBO/with-SteepDescent/Only-C1/SD-CG-opt/Try1-1.4A-POS3A/HFTN-CG
REM
REM
REM
REM
REM
REM ./C.cell (11c1c37f851c82e70ff6c80c92926a4b)
REM
REM compiler GCC version 9.2.1 20190827 (Red Hat 9.2.1-1)
REM options -cpp -mtune=generic -march=x86-64 -g -O0 -fpre-include=/usr/include/finclude/math-vector-fortran.h
REM seed 2080656088 798277721 -34084010 385611394 -429092570 1507775793 1258770311 1568003030 1475808319 1996980072 45523 161223281 1572951486 -1142717484 -578882676 1384627337 -1623966078 -777312058 -1234410299 -2096502220 -1938121657 -93131295 -1798193037 -815974475 2060904794 -2020635306 25817492 -1315990393 -929222801 -784447045 -1280858317 -1571198929 184522576
REM
CELL 1.54180   50.00000   50.00000   50.00000   90.00000   90.00000   90.00000
LATT -1
SFAC C  
C      1  0.5508020000000  0.5540850000000  0.5046580000000 1.0
C      1  0.4810540000000  0.5209000000000  0.5196140000000 1.0
C      1  0.4674130000000  0.5175160000000  0.4720610000000 1.0
C      1  0.4959550000000  0.5303850000000  0.5478420000000 1.0
C      1  0.4282880000000  0.5338210000000  0.5234570000000 1.0
C      1  0.4720610000000  0.4434800000000  0.5504070000000 1.0
C      1  0.5346980000000  0.5211140000000  0.4712680000000 1.0
C      1  0.4484770000000  0.4923100000000  0.5329800000000 1.0
C      1  0.5455390000000  0.4667380000000  0.5015820000000 1.0
C      1  0.5008120000000  0.4290200000000  0.4880910000000 1.0
C      1  0.5015920000000  0.5615220000000  0.4677330000000 1.0
C      1  0.4378070000000  0.5327470000000  0.4937790000000 1.0
C      1  0.4637910000000  0.4622360000000  0.5288420000000 1.0
C      1  0.5006830000000  0.5738490000000  0.5133220000000 1.0
C      1  0.5566460000000  0.4966550000000  0.4187950000000 1.0
C      1  0.5543340000000  0.5032700000000  0.4520650000000 1.0
C      1  0.5257180000000  0.4933910000000  0.4986620000000 1.0
C      1  0.5808570000000  0.5096080000000  0.4317000000000 1.0
C      1  0.4764920000000  0.4896040000000  0.5136880000000 1.0
C      1  0.5122720000000  0.4955950000000  0.4698440000000 1.0
C      1  0.5495200000000  0.5270670000000  0.4985000000000 1.0
C      1  0.5225080000000  0.5466650000000  0.4589910000000 1.0
C      1  0.5504180000000  0.5113670000000  0.5243680000000 1.0
C      1  0.5603440000000  0.4554620000000  0.5663850000000 1.0
C      1  0.5144880000000  0.5890640000000  0.5373750000000 1.0
C      1  0.5168520000000  0.4463540000000  0.4672770000000 1.0
C      1  0.5529230000000  0.4090920000000  0.5315960000000 1.0
C      1  0.4739970000000  0.4327470000000  0.4887150000000 1.0
C      1  0.4278580000000  0.5335910000000  0.4631570000000 1.0
C      1  0.5523100000000  0.4843930000000  0.5276240000000 1.0
C      1  0.4369600000000  0.5172590000000  0.4461370000000 1.0
C      1  0.5302950000000  0.4401130000000  0.4981680000000 1.0
C      1  0.5502940000000  0.4851060000000  0.4761120000000 1.0
C      1  0.4840800000000  0.5373070000000  0.5789400000000 1.0
C      1  0.4627760000000  0.5302180000000  0.5570390000000 1.0
C      1  0.4387860000000  0.4806470000000  0.5039790000000 1.0
C      1  0.5525470000000  0.4575090000000  0.5405850000000 1.0
C      1  0.5294760000000  0.5609580000000  0.5260480000000 1.0
C      1  0.4769870000000  0.4698620000000  0.4474010000000 1.0
C      1  0.5267430000000  0.5318660000000  0.5376870000000 1.0
C      1  0.4885090000000  0.5615380000000  0.4924530000000 1.0
C      1  0.5047400000000  0.4689490000000  0.4560480000000 1.0
C      1  0.4814130000000  0.4884950000000  0.4824550000000 1.0
C      1  0.5112700000000  0.5097110000000  0.5177860000000 1.0
C      1  0.4483550000000  0.4496110000000  0.5022510000000 1.0
C      1  0.5455480000000  0.4347430000000  0.5253760000000 1.0
C      1  0.4571200000000  0.4928760000000  0.4510140000000 1.0
C      1  0.4639540000000  0.4609740000000  0.4751390000000 1.0
C      1  0.4705740000000  0.5382480000000  0.4971180000000 1.0
C      1  0.4397450000000  0.5006890000000  0.4824230000000 1.0
C      1  0.4433190000000  0.5196730000000  0.5414640000000 1.0
END
