TITL C-2848496-4490-688 -0.00306042689277016 125000 -617.870940493861 0 0 115 (C1) n - 1
REM
REM in /home/bkarasulu/work/CARBON/AIRSS/Generating-Clusters/AIREBO/with-SteepDescent/Only-C1/SD-CG-opt/Try1-1.4A-POS3A/HFTN-CG
REM
REM
REM
REM
REM
REM ./C.cell (11c1c37f851c82e70ff6c80c92926a4b)
REM
REM compiler GCC version 9.2.1 20190827 (Red Hat 9.2.1-1)
REM options -cpp -mtune=generic -march=x86-64 -g -O0 -fpre-include=/usr/include/finclude/math-vector-fortran.h
REM seed 1696418806 366699125 -1583470735 -603494120 -343049557 -1791471795 1631630541 1896283418 1732994184 1796166611 253934201 1722502111 -215304409 1191604586 1099708605 -147780366 435822058 -202514029 384428190 -411825828 712820434 1661856601 -2090484679 -1039562303 -1528505787 -463086964 1012369332 808986555 -1596248181 1642256001 706910245 1532515529 1699556258
REM
CELL 1.54180   50.00000   50.00000   50.00000   90.00000   90.00000   90.00000
LATT -1
SFAC C  
C      1  0.5067550000000  0.4252650000000  0.5378070000000 1.0
C      1  0.4749070000000  0.5036510000000  0.5848800000000 1.0
C      1  0.5645130000000  0.5364370000000  0.4579540000000 1.0
C      1  0.5192300000000  0.4173600000000  0.4985840000000 1.0
C      1  0.5132740000000  0.5555960000000  0.4681470000000 1.0
C      1  0.5163570000000  0.5263930000000  0.4014610000000 1.0
C      1  0.5392080000000  0.5148400000000  0.5882960000000 1.0
C      1  0.4805110000000  0.4532910000000  0.4920380000000 1.0
C      1  0.5309520000000  0.5847560000000  0.5016550000000 1.0
C      1  0.5454360000000  0.5095380000000  0.4659050000000 1.0
C      1  0.5146690000000  0.3989480000000  0.5389240000000 1.0
C      1  0.5038130000000  0.5339430000000  0.4916850000000 1.0
C      1  0.4726420000000  0.5649980000000  0.5458280000000 1.0
C      1  0.4542890000000  0.5628500000000  0.5028230000000 1.0
C      1  0.5559360000000  0.5989710000000  0.5030310000000 1.0
C      1  0.5206040000000  0.4757460000000  0.4295920000000 1.0
C      1  0.4575630000000  0.5304380000000  0.4273000000000 1.0
C      1  0.4225950000000  0.4403070000000  0.4986430000000 1.0
C      1  0.4616140000000  0.4681040000000  0.4311810000000 1.0
C      1  0.4438110000000  0.5715910000000  0.4563580000000 1.0
C      1  0.4351630000000  0.4869180000000  0.4393830000000 1.0
C      1  0.5504140000000  0.5294920000000  0.4319700000000 1.0
C      1  0.4624060000000  0.5460460000000  0.5638400000000 1.0
C      1  0.5684300000000  0.5551100000000  0.4814240000000 1.0
C      1  0.5482720000000  0.4453080000000  0.5690670000000 1.0
C      1  0.5164280000000  0.5294830000000  0.4330250000000 1.0
C      1  0.5381880000000  0.3939490000000  0.5248830000000 1.0
C      1  0.4500520000000  0.5237460000000  0.5515540000000 1.0
C      1  0.5989410000000  0.4807800000000  0.5337060000000 1.0
C      1  0.6091430000000  0.5465290000000  0.5094320000000 1.0
C      1  0.4971030000000  0.4807980000000  0.5820090000000 1.0
C      1  0.4815140000000  0.4728850000000  0.4652970000000 1.0
C      1  0.5279090000000  0.4536800000000  0.3852410000000 1.0
C      1  0.5431130000000  0.5230800000000  0.4961190000000 1.0
C      1  0.5150150000000  0.4040980000000  0.4393750000000 1.0
C      1  0.4853010000000  0.5157950000000  0.4329900000000 1.0
C      1  0.5120050000000  0.5096340000000  0.5712380000000 1.0
C      1  0.4662210000000  0.4440960000000  0.4546560000000 1.0
C      1  0.4962650000000  0.4784660000000  0.5421340000000 1.0
C      1  0.5489010000000  0.4217980000000  0.5110080000000 1.0
C      1  0.5337410000000  0.6336500000000  0.4474740000000 1.0
C      1  0.4564820000000  0.4927530000000  0.4622300000000 1.0
C      1  0.4849130000000  0.5046200000000  0.5524040000000 1.0
C      1  0.4607540000000  0.5824180000000  0.4799670000000 1.0
C      1  0.5290960000000  0.4426080000000  0.5292100000000 1.0
C      1  0.4743230000000  0.4024370000000  0.5361950000000 1.0
C      1  0.5604090000000  0.5208100000000  0.5448280000000 1.0
C      1  0.5778210000000  0.5812710000000  0.4758310000000 1.0
C      1  0.4195740000000  0.4785760000000  0.4667940000000 1.0
C      1  0.5601340000000  0.4498410000000  0.5371080000000 1.0
C      1  0.4358820000000  0.4874690000000  0.4957980000000 1.0
C      1  0.4479260000000  0.5158510000000  0.4814540000000 1.0
C      1  0.5680950000000  0.5181790000000  0.5153390000000 1.0
C      1  0.4835480000000  0.5977340000000  0.4836390000000 1.0
C      1  0.5843740000000  0.5412870000000  0.5033180000000 1.0
C      1  0.4759570000000  0.4352520000000  0.5274010000000 1.0
C      1  0.4722760000000  0.4210900000000  0.5643300000000 1.0
C      1  0.5228560000000  0.4957710000000  0.4967710000000 1.0
C      1  0.5502170000000  0.4730470000000  0.5143030000000 1.0
C      1  0.3919370000000  0.5200390000000  0.4734860000000 1.0
C      1  0.4223630000000  0.4671760000000  0.5195050000000 1.0
C      1  0.4998170000000  0.5581050000000  0.5303090000000 1.0
C      1  0.4234270000000  0.4479940000000  0.4701510000000 1.0
C      1  0.4299710000000  0.5438350000000  0.4425230000000 1.0
C      1  0.4852250000000  0.5424970000000  0.4540700000000 1.0
C      1  0.5819380000000  0.4587190000000  0.4948300000000 1.0
C      1  0.5275670000000  0.4714590000000  0.5471420000000 1.0
C      1  0.5369730000000  0.5559880000000  0.4899420000000 1.0
C      1  0.5385270000000  0.5838290000000  0.5837350000000 1.0
C      1  0.5227900000000  0.6187070000000  0.4660140000000 1.0
C      1  0.4862840000000  0.4118080000000  0.5050290000000 1.0
C      1  0.5795650000000  0.4891980000000  0.5097120000000 1.0
C      1  0.4535330000000  0.5769450000000  0.5295330000000 1.0
C      1  0.5107880000000  0.4448680000000  0.4846040000000 1.0
C      1  0.3983520000000  0.4866490000000  0.5096000000000 1.0
C      1  0.4942780000000  0.4962940000000  0.4842150000000 1.0
C      1  0.5143740000000  0.5280530000000  0.5234790000000 1.0
C      1  0.4332290000000  0.5445200000000  0.4873240000000 1.0
C      1  0.5594880000000  0.5062660000000  0.5710500000000 1.0
C      1  0.5844900000000  0.4657040000000  0.5520990000000 1.0
C      1  0.5309590000000  0.5303920000000  0.5525100000000 1.0
C      1  0.4994860000000  0.4376250000000  0.4541630000000 1.0
C      1  0.4388880000000  0.4551450000000  0.5466830000000 1.0
C      1  0.4606550000000  0.5444230000000  0.4679530000000 1.0
C      1  0.5219500000000  0.4518580000000  0.4117570000000 1.0
C      1  0.4728910000000  0.4155780000000  0.4735640000000 1.0
C      1  0.4356660000000  0.5965490000000  0.5356570000000 1.0
C      1  0.5051110000000  0.4080700000000  0.4701740000000 1.0
C      1  0.4422430000000  0.4330110000000  0.5238240000000 1.0
C      1  0.4778170000000  0.5414580000000  0.5115770000000 1.0
C      1  0.4812490000000  0.4660930000000  0.5205790000000 1.0
C      1  0.4261880000000  0.5124600000000  0.5580510000000 1.0
C      1  0.5417200000000  0.4986050000000  0.4341870000000 1.0
C      1  0.5172200000000  0.4545060000000  0.5747450000000 1.0
C      1  0.5189710000000  0.5804340000000  0.5287900000000 1.0
C      1  0.4556490000000  0.4344890000000  0.4930010000000 1.0
C      1  0.5316440000000  0.4990460000000  0.5276860000000 1.0
C      1  0.5328990000000  0.5829210000000  0.5518950000000 1.0
C      1  0.5113400000000  0.6008710000000  0.4837990000000 1.0
C      1  0.4307250000000  0.5136840000000  0.4268230000000 1.0
C      1  0.5072270000000  0.5620500000000  0.4363430000000 1.0
C      1  0.4681720000000  0.4916720000000  0.5056140000000 1.0
C      1  0.5133600000000  0.5161810000000  0.4641860000000 1.0
C      1  0.4091610000000  0.5396770000000  0.4677170000000 1.0
C      1  0.5738270000000  0.4357670000000  0.5002780000000 1.0
C      1  0.5145190000000  0.4301560000000  0.4261160000000 1.0
C      1  0.5341730000000  0.5559230000000  0.5677700000000 1.0
C      1  0.5564430000000  0.4779030000000  0.5648940000000 1.0
C      1  0.4683090000000  0.5157710000000  0.5264500000000 1.0
C      1  0.3985410000000  0.4947700000000  0.4835290000000 1.0
C      1  0.4528540000000  0.4461670000000  0.5688130000000 1.0
C      1  0.4849530000000  0.4490570000000  0.5796940000000 1.0
C      1  0.4910930000000  0.4846430000000  0.4348660000000 1.0
C      1  0.5387830000000  0.4679470000000  0.4572750000000 1.0
C      1  0.5325580000000  0.4670680000000  0.4858470000000 1.0
END
