TITL C-2847944-5688-672 0.00529125059948967 125000 -924.428634856081 0 0 171 (C1) n - 1
REM
REM in /home/bkarasulu/work/CARBON/AIRSS/Generating-Clusters/AIREBO/with-SteepDescent/Only-C1/SD-CG-opt/Try1-1.4A-POS3A/HFTN-CG
REM
REM
REM
REM
REM
REM ./C.cell (11c1c37f851c82e70ff6c80c92926a4b)
REM
REM compiler GCC version 9.2.1 20190827 (Red Hat 9.2.1-1)
REM options -cpp -mtune=generic -march=x86-64 -g -O0 -fpre-include=/usr/include/finclude/math-vector-fortran.h
REM seed 1656324818 1398415541 -2052897490 -1407695508 -1491299181 1602665262 -95166205 2078890862 -405749323 -1725806028 -1100495006 -1627353127 -462681412 -1860492790 -536709211 1307354736 -184108162 -1520068646 1707249180 -650803586 -1639173072 1545960276 -1625082108 -1881529351 -1211452599 -435044219 402008571 301334478 -1409686442 -716594584 490064855 274232204 -768076038
REM
CELL 1.54180   50.00000   50.00000   50.00000   90.00000   90.00000   90.00000
LATT -1
SFAC C  
C      1  0.5880140000000  0.5401650000000  0.5334090000000 1.0
C      1  0.4969900000000  0.4908600000000  0.5219500000000 1.0
C      1  0.4491080000000  0.4179270000000  0.5363120000000 1.0
C      1  0.4670850000000  0.4580450000000  0.5914240000000 1.0
C      1  0.5139540000000  0.6062300000000  0.5134710000000 1.0
C      1  0.6065250000000  0.5153150000000  0.4510840000000 1.0
C      1  0.5495180000000  0.5173200000000  0.4037860000000 1.0
C      1  0.4648820000000  0.5108430000000  0.5987130000000 1.0
C      1  0.5611410000000  0.5004820000000  0.5393580000000 1.0
C      1  0.5584460000000  0.4695340000000  0.5402550000000 1.0
C      1  0.4586350000000  0.5376520000000  0.5259450000000 1.0
C      1  0.4871690000000  0.4423980000000  0.5161440000000 1.0
C      1  0.5311000000000  0.4587830000000  0.4541090000000 1.0
C      1  0.5217820000000  0.4414560000000  0.5946590000000 1.0
C      1  0.5343740000000  0.4141090000000  0.5138390000000 1.0
C      1  0.5200780000000  0.5064130000000  0.4057130000000 1.0
C      1  0.5325510000000  0.4853980000000  0.4709750000000 1.0
C      1  0.3982810000000  0.4803880000000  0.4383650000000 1.0
C      1  0.4321490000000  0.5461160000000  0.4654040000000 1.0
C      1  0.4945270000000  0.5109370000000  0.3969390000000 1.0
C      1  0.5741530000000  0.4619470000000  0.5670860000000 1.0
C      1  0.4957100000000  0.5928420000000  0.4656930000000 1.0
C      1  0.4275190000000  0.4239600000000  0.4950500000000 1.0
C      1  0.4767700000000  0.4186150000000  0.4969220000000 1.0
C      1  0.5237650000000  0.5033650000000  0.5826510000000 1.0
C      1  0.4772200000000  0.4129160000000  0.5508120000000 1.0
C      1  0.5523200000000  0.5386260000000  0.5509020000000 1.0
C      1  0.5127670000000  0.5030420000000  0.4496710000000 1.0
C      1  0.4670640000000  0.4693100000000  0.5532080000000 1.0
C      1  0.4739540000000  0.5590050000000  0.4905610000000 1.0
C      1  0.5039620000000  0.4013120000000  0.5052980000000 1.0
C      1  0.5479600000000  0.4633150000000  0.4181350000000 1.0
C      1  0.5444900000000  0.4936270000000  0.4259380000000 1.0
C      1  0.4345370000000  0.4712230000000  0.5515600000000 1.0
C      1  0.5731940000000  0.5655320000000  0.5511810000000 1.0
C      1  0.4848340000000  0.4736880000000  0.4776420000000 1.0
C      1  0.4801160000000  0.4342650000000  0.4687850000000 1.0
C      1  0.4526280000000  0.5735200000000  0.5599500000000 1.0
C      1  0.5291600000000  0.5987550000000  0.4677680000000 1.0
C      1  0.5951630000000  0.4542850000000  0.5340320000000 1.0
C      1  0.5689470000000  0.4530630000000  0.5124140000000 1.0
C      1  0.3905240000000  0.5012870000000  0.4613340000000 1.0
C      1  0.6110800000000  0.5092230000000  0.4976950000000 1.0
C      1  0.5542940000000  0.4412730000000  0.4508540000000 1.0
C      1  0.4871240000000  0.5221070000000  0.5153140000000 1.0
C      1  0.4237070000000  0.5481640000000  0.4325260000000 1.0
C      1  0.5310980000000  0.4605920000000  0.5281390000000 1.0
C      1  0.4491040000000  0.5409220000000  0.4111090000000 1.0
C      1  0.4709360000000  0.5175900000000  0.4085120000000 1.0
C      1  0.4515210000000  0.5326780000000  0.5822700000000 1.0
C      1  0.4492660000000  0.4131550000000  0.5089810000000 1.0
C      1  0.5015180000000  0.3958630000000  0.5369160000000 1.0
C      1  0.5499020000000  0.5303200000000  0.4982320000000 1.0
C      1  0.5455560000000  0.5345050000000  0.4661270000000 1.0
C      1  0.4218400000000  0.4626150000000  0.5211670000000 1.0
C      1  0.5244030000000  0.5591230000000  0.4694030000000 1.0
C      1  0.5578600000000  0.4766290000000  0.4919220000000 1.0
C      1  0.4230150000000  0.4952150000000  0.5718150000000 1.0
C      1  0.5326220000000  0.5651870000000  0.5744140000000 1.0
C      1  0.4658540000000  0.4867020000000  0.5102550000000 1.0
C      1  0.5142450000000  0.4543670000000  0.5054710000000 1.0
C      1  0.4940410000000  0.5216540000000  0.6021170000000 1.0
C      1  0.5583760000000  0.5483930000000  0.5188910000000 1.0
C      1  0.5453910000000  0.5012690000000  0.5110690000000 1.0
C      1  0.4187790000000  0.4894820000000  0.5005210000000 1.0
C      1  0.5365770000000  0.4321630000000  0.5425830000000 1.0
C      1  0.5533090000000  0.4176980000000  0.4929510000000 1.0
C      1  0.5569150000000  0.5928240000000  0.5390710000000 1.0
C      1  0.4419000000000  0.5645490000000  0.5135500000000 1.0
C      1  0.5321760000000  0.5728120000000  0.5473410000000 1.0
C      1  0.5798360000000  0.5685510000000  0.4609430000000 1.0
C      1  0.4388080000000  0.4790310000000  0.4573890000000 1.0
C      1  0.5391640000000  0.4784160000000  0.5740510000000 1.0
C      1  0.4735010000000  0.3868830000000  0.4642660000000 1.0
C      1  0.5874360000000  0.4645030000000  0.4788640000000 1.0
C      1  0.4676390000000  0.4620190000000  0.4535850000000 1.0
C      1  0.5464270000000  0.5283940000000  0.5810570000000 1.0
C      1  0.5695680000000  0.5078390000000  0.5695360000000 1.0
C      1  0.6082490000000  0.4914500000000  0.4744380000000 1.0
C      1  0.5316930000000  0.5877070000000  0.4961690000000 1.0
C      1  0.4387830000000  0.4551310000000  0.4119550000000 1.0
C      1  0.5681430000000  0.4811520000000  0.5907000000000 1.0
C      1  0.4603750000000  0.5014190000000  0.5591020000000 1.0
C      1  0.5793890000000  0.4330590000000  0.4891980000000 1.0
C      1  0.4812010000000  0.5466500000000  0.4406700000000 1.0
C      1  0.4332440000000  0.5074200000000  0.4753200000000 1.0
C      1  0.4761380000000  0.4275560000000  0.4356870000000 1.0
C      1  0.5291430000000  0.5230100000000  0.5316040000000 1.0
C      1  0.4309180000000  0.5712870000000  0.4856790000000 1.0
C      1  0.4322640000000  0.5113750000000  0.4113880000000 1.0
C      1  0.4648550000000  0.4382730000000  0.5669290000000 1.0
C      1  0.4058020000000  0.5276590000000  0.4764480000000 1.0
C      1  0.4828480000000  0.5595040000000  0.5667840000000 1.0
C      1  0.4368680000000  0.4507150000000  0.4762580000000 1.0
C      1  0.5849190000000  0.5007430000000  0.5150450000000 1.0
C      1  0.4891290000000  0.5553480000000  0.5999470000000 1.0
C      1  0.5052820000000  0.4913000000000  0.6060640000000 1.0
C      1  0.5414290000000  0.4462310000000  0.5731570000000 1.0
C      1  0.4319290000000  0.4387710000000  0.5432800000000 1.0
C      1  0.4058880000000  0.5287440000000  0.5289570000000 1.0
C      1  0.4515860000000  0.4838970000000  0.5868850000000 1.0
C      1  0.5172870000000  0.5420150000000  0.5889650000000 1.0
C      1  0.5528860000000  0.5414550000000  0.4161780000000 1.0
C      1  0.5272240000000  0.4455850000000  0.4086650000000 1.0
C      1  0.4497850000000  0.5050340000000  0.5302760000000 1.0
C      1  0.4890990000000  0.5499450000000  0.5347480000000 1.0
C      1  0.5027610000000  0.4347420000000  0.5455130000000 1.0
C      1  0.4071120000000  0.4521330000000  0.4926780000000 1.0
C      1  0.5108540000000  0.4334900000000  0.4827830000000 1.0
C      1  0.5101020000000  0.4436340000000  0.4444450000000 1.0
C      1  0.5567510000000  0.5040240000000  0.4560160000000 1.0
C      1  0.5986360000000  0.5424310000000  0.4489800000000 1.0
C      1  0.5139580000000  0.4103940000000  0.4503080000000 1.0
C      1  0.4020220000000  0.4665570000000  0.4650810000000 1.0
C      1  0.4701110000000  0.5829920000000  0.5143580000000 1.0
C      1  0.5730470000000  0.4521340000000  0.4321730000000 1.0
C      1  0.4964910000000  0.4619950000000  0.5618870000000 1.0
C      1  0.5259020000000  0.4009230000000  0.5507660000000 1.0
C      1  0.5195370000000  0.5539120000000  0.5272020000000 1.0
C      1  0.5377160000000  0.4220520000000  0.4682330000000 1.0
C      1  0.4547850000000  0.5273330000000  0.4482230000000 1.0
C      1  0.5082660000000  0.5156570000000  0.5574830000000 1.0
C      1  0.5855850000000  0.4964000000000  0.4421240000000 1.0
C      1  0.4530060000000  0.5650680000000  0.4359930000000 1.0
C      1  0.4188250000000  0.5015930000000  0.5294430000000 1.0
C      1  0.4291540000000  0.4332210000000  0.4247850000000 1.0
C      1  0.3949560000000  0.5348110000000  0.5048930000000 1.0
C      1  0.4985680000000  0.3943520000000  0.4724560000000 1.0
C      1  0.5963890000000  0.4820790000000  0.5410830000000 1.0
C      1  0.4986480000000  0.5286960000000  0.4829590000000 1.0
C      1  0.4715690000000  0.5903750000000  0.5442100000000 1.0
C      1  0.4327750000000  0.5633650000000  0.5440060000000 1.0
C      1  0.5288730000000  0.5501370000000  0.4307160000000 1.0
C      1  0.5919140000000  0.5371760000000  0.5004550000000 1.0
C      1  0.4258900000000  0.5264150000000  0.5725680000000 1.0
C      1  0.4889610000000  0.6017430000000  0.4977070000000 1.0
C      1  0.4583260000000  0.4061300000000  0.4507610000000 1.0
C      1  0.4163420000000  0.5424420000000  0.5510490000000 1.0
C      1  0.4642320000000  0.5789990000000  0.4649300000000 1.0
C      1  0.5661370000000  0.5441820000000  0.4439310000000 1.0
C      1  0.5256870000000  0.4173050000000  0.4190090000000 1.0
C      1  0.5576100000000  0.5788910000000  0.5094310000000 1.0
C      1  0.4981290000000  0.4632950000000  0.5954600000000 1.0
C      1  0.3907350000000  0.4938720000000  0.4916550000000 1.0
C      1  0.4670550000000  0.4663280000000  0.4218010000000 1.0
C      1  0.4799240000000  0.5256650000000  0.5649110000000 1.0
C      1  0.4633430000000  0.4983990000000  0.4324690000000 1.0
C      1  0.5078970000000  0.5348030000000  0.4528100000000 1.0
C      1  0.4382790000000  0.4278170000000  0.4510220000000 1.0
C      1  0.5967080000000  0.5149080000000  0.5499890000000 1.0
C      1  0.5900740000000  0.4692050000000  0.4466530000000 1.0
C      1  0.5069410000000  0.5644170000000  0.4973960000000 1.0
C      1  0.5225690000000  0.6029650000000  0.5419160000000 1.0
C      1  0.4979620000000  0.5897980000000  0.5586570000000 1.0
C      1  0.4278240000000  0.4804690000000  0.4249030000000 1.0
C      1  0.4518990000000  0.5332560000000  0.4872320000000 1.0
C      1  0.5095980000000  0.4813590000000  0.4928710000000 1.0
C      1  0.5704110000000  0.4314680000000  0.5390580000000 1.0
C      1  0.4236630000000  0.5144960000000  0.4434490000000 1.0
C      1  0.4711160000000  0.5096080000000  0.4880030000000 1.0
C      1  0.5819130000000  0.5653420000000  0.4913850000000 1.0
C      1  0.4632510000000  0.4571050000000  0.4968210000000 1.0
C      1  0.5305880000000  0.5786290000000  0.4422460000000 1.0
C      1  0.5171940000000  0.4841890000000  0.5481930000000 1.0
C      1  0.4386190000000  0.5975420000000  0.4744080000000 1.0
C      1  0.4912390000000  0.5764070000000  0.4362490000000 1.0
C      1  0.4943790000000  0.4491810000000  0.4168170000000 1.0
C      1  0.3980980000000  0.4856770000000  0.5507390000000 1.0
C      1  0.5736350000000  0.5124740000000  0.4851580000000 1.0
C      1  0.4817100000000  0.4991460000000  0.4574340000000 1.0
C      1  0.5595420000000  0.5913840000000  0.4538020000000 1.0
END
