TITL C-2847958-8115-277 0.000202634605815919 125000 -292.548190271954 0 0 55 (C1) n - 1
REM
REM in /home/bkarasulu/work/CARBON/AIRSS/Generating-Clusters/AIREBO/with-SteepDescent/Only-C1/SD-CG-opt/Try1-1.4A-POS3A/HFTN-CG
REM
REM
REM
REM
REM
REM ./C.cell (11c1c37f851c82e70ff6c80c92926a4b)
REM
REM compiler GCC version 9.2.1 20190827 (Red Hat 9.2.1-1)
REM options -cpp -mtune=generic -march=x86-64 -g -O0 -fpre-include=/usr/include/finclude/math-vector-fortran.h
REM seed 1662108913 -1341589493 106244751 958607694 -1838034338 283102259 -1838396451 318485342 188750819 -1349634854 -2114561993 1367187610 -1597206156 -1680222865 -272846150 -350860160 -794725553 -1716761084 1334982979 -1787817593 -947925118 -526533742 -418372476 1853250015 2019974153 -1209465479 -777879724 1605882733 172997815 1055489042 1820121814 -2137733572 99876434
REM
CELL 1.54180   50.00000   50.00000   50.00000   90.00000   90.00000   90.00000
LATT -1
SFAC C  
C      1  0.5400450000000  0.5280220000000  0.5089260000000 1.0
C      1  0.4345190000000  0.5234970000000  0.5410500000000 1.0
C      1  0.4647210000000  0.4549920000000  0.5252810000000 1.0
C      1  0.4877500000000  0.5274610000000  0.4365510000000 1.0
C      1  0.4886510000000  0.5848630000000  0.5060490000000 1.0
C      1  0.5338560000000  0.5173620000000  0.4552170000000 1.0
C      1  0.5928840000000  0.5467900000000  0.5353640000000 1.0
C      1  0.4129490000000  0.5026340000000  0.4711640000000 1.0
C      1  0.5076180000000  0.4385710000000  0.4874060000000 1.0
C      1  0.4784740000000  0.4982220000000  0.4397710000000 1.0
C      1  0.4541860000000  0.4443240000000  0.4947630000000 1.0
C      1  0.5283820000000  0.4838030000000  0.4556290000000 1.0
C      1  0.4907790000000  0.5476600000000  0.5390170000000 1.0
C      1  0.4860750000000  0.5691250000000  0.4827870000000 1.0
C      1  0.5627090000000  0.5396780000000  0.5248530000000 1.0
C      1  0.4625810000000  0.4923680000000  0.4851520000000 1.0
C      1  0.5461780000000  0.4569930000000  0.4634010000000 1.0
C      1  0.4896540000000  0.5074250000000  0.5611810000000 1.0
C      1  0.4861840000000  0.5728950000000  0.5306630000000 1.0
C      1  0.4732960000000  0.5280120000000  0.4657770000000 1.0
C      1  0.5378980000000  0.4890910000000  0.5701850000000 1.0
C      1  0.5517800000000  0.5268830000000  0.4808400000000 1.0
C      1  0.5271250000000  0.4445990000000  0.5313220000000 1.0
C      1  0.4819400000000  0.4315000000000  0.5068950000000 1.0
C      1  0.4603610000000  0.5576320000000  0.4766200000000 1.0
C      1  0.5354590000000  0.4409350000000  0.4851260000000 1.0
C      1  0.4525980000000  0.5299320000000  0.4920010000000 1.0
C      1  0.5268200000000  0.5009330000000  0.5247940000000 1.0
C      1  0.4934610000000  0.4674110000000  0.4889090000000 1.0
C      1  0.5109630000000  0.5361190000000  0.4537780000000 1.0
C      1  0.4977130000000  0.4787530000000  0.4588320000000 1.0
C      1  0.5845710000000  0.5167820000000  0.5270540000000 1.0
C      1  0.5051530000000  0.5486090000000  0.4784180000000 1.0
C      1  0.4897390000000  0.5153780000000  0.5283800000000 1.0
C      1  0.4981310000000  0.4537720000000  0.5269440000000 1.0
C      1  0.4284360000000  0.4545130000000  0.5093220000000 1.0
C      1  0.4450590000000  0.4817260000000  0.5215320000000 1.0
C      1  0.4621920000000  0.4808870000000  0.4151240000000 1.0
C      1  0.5486920000000  0.4902510000000  0.5445630000000 1.0
C      1  0.4995330000000  0.4848130000000  0.5171390000000 1.0
C      1  0.4636660000000  0.4635800000000  0.4729790000000 1.0
C      1  0.5225980000000  0.4946500000000  0.4859890000000 1.0
C      1  0.5484900000000  0.4836220000000  0.5051200000000 1.0
C      1  0.4708830000000  0.4651450000000  0.4418430000000 1.0
C      1  0.5138080000000  0.5017270000000  0.5737110000000 1.0
C      1  0.5631000000000  0.4795050000000  0.4749790000000 1.0
C      1  0.4588610000000  0.5132070000000  0.5196450000000 1.0
C      1  0.4911990000000  0.5077350000000  0.4855960000000 1.0
C      1  0.5437260000000  0.4517890000000  0.5105650000000 1.0
C      1  0.4203770000000  0.5039950000000  0.5218000000000 1.0
C      1  0.4658030000000  0.5095060000000  0.5746410000000 1.0
C      1  0.5644100000000  0.5042340000000  0.4621780000000 1.0
C      1  0.5087330000000  0.5298290000000  0.5041450000000 1.0
C      1  0.5732390000000  0.4917190000000  0.5276230000000 1.0
C      1  0.4319940000000  0.5045390000000  0.4914060000000 1.0
END
