TITL C-2847953-8112-63 -0.000752122096754952 125000 -875.755593510807 0 0 162 (C1) n - 1
REM
REM in /home/bkarasulu/work/CARBON/AIRSS/Generating-Clusters/AIREBO/with-SteepDescent/Only-C1/SD-CG-opt/Try1-1.4A-POS3A/HFTN-CG
REM
REM
REM
REM
REM
REM ./C.cell (11c1c37f851c82e70ff6c80c92926a4b)
REM
REM compiler GCC version 9.2.1 20190827 (Red Hat 9.2.1-1)
REM options -cpp -mtune=generic -march=x86-64 -g -O0 -fpre-include=/usr/include/finclude/math-vector-fortran.h
REM seed -1275976565 892156422 1836679178 814035996 507056493 456801324 69567746 -1582023526 992605273 180787340 -1064521172 -151127471 668846649 -137971270 1108557474 -1451481893 -1251757829 19056442 -1318670581 1475065882 -5716410 -1220031416 1966571720 -1444028871 614108446 613334180 1860722797 -629934332 1353843803 1773533438 27254484 1611507737 -1751571821
REM
CELL 1.54180   50.00000   50.00000   50.00000   90.00000   90.00000   90.00000
LATT -1
SFAC C  
C      1  0.4923850000000  0.4224570000000  0.4128460000000 1.0
C      1  0.4379520000000  0.4028970000000  0.4775970000000 1.0
C      1  0.4903120000000  0.6182020000000  0.4600350000000 1.0
C      1  0.3822730000000  0.4820950000000  0.4450920000000 1.0
C      1  0.4388500000000  0.4982100000000  0.4967410000000 1.0
C      1  0.4412610000000  0.4504610000000  0.4336100000000 1.0
C      1  0.4191090000000  0.4217630000000  0.4692250000000 1.0
C      1  0.4866090000000  0.4302330000000  0.5876680000000 1.0
C      1  0.5145010000000  0.4881730000000  0.4338050000000 1.0
C      1  0.4841040000000  0.5535510000000  0.5918330000000 1.0
C      1  0.4423010000000  0.5628110000000  0.4908930000000 1.0
C      1  0.5823810000000  0.4905420000000  0.4226720000000 1.0
C      1  0.5231240000000  0.4005430000000  0.4732120000000 1.0
C      1  0.5315200000000  0.5910760000000  0.4570380000000 1.0
C      1  0.5305020000000  0.4878340000000  0.5538380000000 1.0
C      1  0.5739040000000  0.4243450000000  0.4888710000000 1.0
C      1  0.5046880000000  0.4954240000000  0.5746290000000 1.0
C      1  0.5396750000000  0.4330800000000  0.5997550000000 1.0
C      1  0.6071210000000  0.4455180000000  0.4950440000000 1.0
C      1  0.4951440000000  0.5574910000000  0.3967310000000 1.0
C      1  0.4340060000000  0.5060630000000  0.4291660000000 1.0
C      1  0.4759780000000  0.4832640000000  0.5609060000000 1.0
C      1  0.4393220000000  0.5273340000000  0.4093510000000 1.0
C      1  0.5273280000000  0.5164690000000  0.4934010000000 1.0
C      1  0.5200770000000  0.5446530000000  0.4014970000000 1.0
C      1  0.4895440000000  0.4149660000000  0.5579690000000 1.0
C      1  0.4792360000000  0.4961100000000  0.5142590000000 1.0
C      1  0.5855140000000  0.5655640000000  0.5135530000000 1.0
C      1  0.4617160000000  0.4302780000000  0.4210020000000 1.0
C      1  0.4467260000000  0.5283020000000  0.5218320000000 1.0
C      1  0.4198320000000  0.4418200000000  0.5610140000000 1.0
C      1  0.5752040000000  0.5313000000000  0.5703440000000 1.0
C      1  0.4245610000000  0.4586130000000  0.5831100000000 1.0
C      1  0.4784820000000  0.5577970000000  0.4198030000000 1.0
C      1  0.5052100000000  0.5283920000000  0.5829880000000 1.0
C      1  0.5788350000000  0.5564620000000  0.4529740000000 1.0
C      1  0.4622550000000  0.5058550000000  0.5414800000000 1.0
C      1  0.5243900000000  0.5186140000000  0.6080110000000 1.0
C      1  0.4619440000000  0.4104690000000  0.5461370000000 1.0
C      1  0.5164230000000  0.4194620000000  0.5788810000000 1.0
C      1  0.4831490000000  0.4203190000000  0.4449790000000 1.0
C      1  0.5768260000000  0.5030970000000  0.5689110000000 1.0
C      1  0.3958730000000  0.5347820000000  0.5384590000000 1.0
C      1  0.5318240000000  0.5362170000000  0.4660820000000 1.0
C      1  0.4659170000000  0.4470310000000  0.4570530000000 1.0
C      1  0.5338280000000  0.4000620000000  0.4989640000000 1.0
C      1  0.5525980000000  0.4855530000000  0.5794170000000 1.0
C      1  0.6000810000000  0.5433250000000  0.4951850000000 1.0
C      1  0.4489390000000  0.5294590000000  0.4878960000000 1.0
C      1  0.4118040000000  0.4853430000000  0.4893090000000 1.0
C      1  0.4748010000000  0.4512390000000  0.5647910000000 1.0
C      1  0.4218270000000  0.4661460000000  0.5158680000000 1.0
C      1  0.5565930000000  0.5296320000000  0.5010380000000 1.0
C      1  0.4369730000000  0.5467180000000  0.5743020000000 1.0
C      1  0.4700950000000  0.5998110000000  0.5175850000000 1.0
C      1  0.5284290000000  0.5453770000000  0.5648560000000 1.0
C      1  0.4580270000000  0.5107170000000  0.5924180000000 1.0
C      1  0.4417210000000  0.4779160000000  0.4214300000000 1.0
C      1  0.5359510000000  0.6025320000000  0.4887580000000 1.0
C      1  0.6004840000000  0.5233580000000  0.5170940000000 1.0
C      1  0.5638870000000  0.4457690000000  0.3996980000000 1.0
C      1  0.4029610000000  0.4528870000000  0.5408780000000 1.0
C      1  0.4240240000000  0.4905000000000  0.5779000000000 1.0
C      1  0.5685950000000  0.5879510000000  0.5329930000000 1.0
C      1  0.5264250000000  0.5655020000000  0.5237350000000 1.0
C      1  0.4698050000000  0.4891950000000  0.4248800000000 1.0
C      1  0.4065020000000  0.5960380000000  0.4755280000000 1.0
C      1  0.4751160000000  0.5220420000000  0.5684730000000 1.0
C      1  0.4867130000000  0.5742780000000  0.4406280000000 1.0
C      1  0.4882070000000  0.5683260000000  0.3731280000000 1.0
C      1  0.4576910000000  0.4129690000000  0.4957500000000 1.0
C      1  0.3896960000000  0.4597930000000  0.4931330000000 1.0
C      1  0.4312040000000  0.6089600000000  0.4723470000000 1.0
C      1  0.4662620000000  0.4396800000000  0.4902520000000 1.0
C      1  0.5158190000000  0.5132950000000  0.5252610000000 1.0
C      1  0.5482440000000  0.5657940000000  0.5462330000000 1.0
C      1  0.5722860000000  0.5008130000000  0.4534830000000 1.0
C      1  0.5070720000000  0.4159350000000  0.5334070000000 1.0
C      1  0.6006970000000  0.4357910000000  0.5196150000000 1.0
C      1  0.4430700000000  0.4667770000000  0.4726920000000 1.0
C      1  0.4900060000000  0.5585450000000  0.4641330000000 1.0
C      1  0.4596260000000  0.5740900000000  0.5160380000000 1.0
C      1  0.4950070000000  0.4831330000000  0.4873280000000 1.0
C      1  0.5724320000000  0.4883330000000  0.5209500000000 1.0
C      1  0.4927360000000  0.5078230000000  0.4658850000000 1.0
C      1  0.5109130000000  0.6018350000000  0.5028220000000 1.0
C      1  0.5058080000000  0.5891200000000  0.5318840000000 1.0
C      1  0.4266930000000  0.5337710000000  0.5474110000000 1.0
C      1  0.4704510000000  0.5491140000000  0.5284620000000 1.0
C      1  0.5677200000000  0.4721480000000  0.4712260000000 1.0
C      1  0.4668550000000  0.5287250000000  0.4297520000000 1.0
C      1  0.5169190000000  0.3945040000000  0.5204730000000 1.0
C      1  0.4360570000000  0.5268830000000  0.5952360000000 1.0
C      1  0.5953930000000  0.4381550000000  0.4448640000000 1.0
C      1  0.5169120000000  0.4343280000000  0.4087500000000 1.0
C      1  0.4807130000000  0.5336070000000  0.4764940000000 1.0
C      1  0.4602130000000  0.5628350000000  0.5804490000000 1.0
C      1  0.5249500000000  0.4969410000000  0.4648870000000 1.0
C      1  0.5893720000000  0.5273910000000  0.4671100000000 1.0
C      1  0.4438480000000  0.4316480000000  0.5487350000000 1.0
C      1  0.4120590000000  0.5672590000000  0.4873880000000 1.0
C      1  0.3999040000000  0.4684740000000  0.4618800000000 1.0
C      1  0.4838540000000  0.5288900000000  0.5071830000000 1.0
C      1  0.5142170000000  0.4441970000000  0.5201870000000 1.0
C      1  0.5625460000000  0.5833410000000  0.4663130000000 1.0
C      1  0.5219690000000  0.5243190000000  0.4192630000000 1.0
C      1  0.5764800000000  0.5499080000000  0.5423510000000 1.0
C      1  0.3848700000000  0.5132210000000  0.5311740000000 1.0
C      1  0.5191270000000  0.5632340000000  0.4673290000000 1.0
C      1  0.4828920000000  0.6109420000000  0.5416890000000 1.0
C      1  0.5043730000000  0.4821920000000  0.5327740000000 1.0
C      1  0.5027540000000  0.5987750000000  0.4451310000000 1.0
C      1  0.4659720000000  0.4873290000000  0.4580970000000 1.0
C      1  0.4928370000000  0.4665000000000  0.4590160000000 1.0
C      1  0.5796740000000  0.4352800000000  0.5367020000000 1.0
C      1  0.4938130000000  0.5090740000000  0.4226420000000 1.0
C      1  0.5533380000000  0.4189180000000  0.5046660000000 1.0
C      1  0.5202070000000  0.4564800000000  0.4279010000000 1.0
C      1  0.6032550000000  0.5026730000000  0.4829940000000 1.0
C      1  0.4011580000000  0.4862450000000  0.5339220000000 1.0
C      1  0.5690470000000  0.5354340000000  0.4318300000000 1.0
C      1  0.4851640000000  0.4549530000000  0.5342030000000 1.0
C      1  0.5407450000000  0.4998970000000  0.6045630000000 1.0
C      1  0.5089800000000  0.4190270000000  0.4606490000000 1.0
C      1  0.5646940000000  0.4724520000000  0.4100100000000 1.0
C      1  0.5844120000000  0.4856390000000  0.4939210000000 1.0
C      1  0.5188400000000  0.4477480000000  0.4585640000000 1.0
C      1  0.5896700000000  0.4921520000000  0.5475890000000 1.0
C      1  0.5687070000000  0.5206200000000  0.5288910000000 1.0
C      1  0.5024600000000  0.5650210000000  0.5550490000000 1.0
C      1  0.4491920000000  0.5168630000000  0.4562990000000 1.0
C      1  0.5376140000000  0.4670700000000  0.4754580000000 1.0
C      1  0.5417850000000  0.4098850000000  0.3754600000000 1.0
C      1  0.4621480000000  0.3994990000000  0.5201600000000 1.0
C      1  0.4590740000000  0.4714410000000  0.5023330000000 1.0
C      1  0.4797530000000  0.4603810000000  0.5990700000000 1.0
C      1  0.5393830000000  0.5195920000000  0.5455570000000 1.0
C      1  0.4524230000000  0.5943460000000  0.4823730000000 1.0
C      1  0.3840210000000  0.5728640000000  0.4718960000000 1.0
C      1  0.5405950000000  0.4291080000000  0.3943870000000 1.0
C      1  0.4543190000000  0.4776720000000  0.5865230000000 1.0
C      1  0.5103350000000  0.5447410000000  0.5015630000000 1.0
C      1  0.5471190000000  0.4738900000000  0.5266520000000 1.0
C      1  0.5659380000000  0.5897170000000  0.4995430000000 1.0
C      1  0.5436070000000  0.5167360000000  0.4444560000000 1.0
C      1  0.4155050000000  0.4443680000000  0.4487040000000 1.0
C      1  0.5022350000000  0.4786440000000  0.5995790000000 1.0
C      1  0.4206100000000  0.4465580000000  0.4880990000000 1.0
C      1  0.5386970000000  0.4799350000000  0.4147180000000 1.0
C      1  0.4513400000000  0.4560480000000  0.5307280000000 1.0
C      1  0.5849660000000  0.5194850000000  0.4164010000000 1.0
C      1  0.5468850000000  0.4408820000000  0.5296600000000 1.0
C      1  0.4818380000000  0.6086900000000  0.4886880000000 1.0
C      1  0.4961860000000  0.5336840000000  0.5444560000000 1.0
C      1  0.5862750000000  0.4468310000000  0.4696700000000 1.0
C      1  0.5212760000000  0.4735880000000  0.5045520000000 1.0
C      1  0.4149820000000  0.5043200000000  0.5559210000000 1.0
C      1  0.5635910000000  0.5535350000000  0.4826430000000 1.0
C      1  0.5362870000000  0.5633840000000  0.4946750000000 1.0
C      1  0.5542480000000  0.5416280000000  0.5857800000000 1.0
C      1  0.5392660000000  0.4371020000000  0.5608710000000 1.0
C      1  0.5535480000000  0.4549670000000  0.5831390000000 1.0
END
