TITL C-2847957-7266-546 0.00053483105350765 125000 -310.220486858435 0 0 58 (C1) n - 1
REM
REM in /home/bkarasulu/work/CARBON/AIRSS/Generating-Clusters/AIREBO/with-SteepDescent/Only-C1/SD-CG-opt/Try1-1.4A-POS3A/HFTN-CG
REM
REM
REM
REM
REM
REM ./C.cell (11c1c37f851c82e70ff6c80c92926a4b)
REM
REM compiler GCC version 9.2.1 20190827 (Red Hat 9.2.1-1)
REM options -cpp -mtune=generic -march=x86-64 -g -O0 -fpre-include=/usr/include/finclude/math-vector-fortran.h
REM seed -1348772583 1998195184 -306236638 -1253543243 -1268960474 -231530226 1080940576 -168022310 -26847596 -934439588 -2123450289 58709962 862152333 1300709878 -2058902723 321866812 -146735344 -1075963300 510251085 -1967623978 541057389 -852993412 -1160542561 99824038 -888253218 1164013115 -1175002234 -1921498931 1258822191 -930919477 -806834907 -920393105 2095666144
REM
CELL 1.54180   50.00000   50.00000   50.00000   90.00000   90.00000   90.00000
LATT -1
SFAC C  
C      1  0.4741450000000  0.5137380000000  0.5154020000000 1.0
C      1  0.4622330000000  0.5231010000000  0.4291680000000 1.0
C      1  0.5075950000000  0.5195560000000  0.5134790000000 1.0
C      1  0.4719470000000  0.4927500000000  0.4900270000000 1.0
C      1  0.4198060000000  0.5133920000000  0.4910250000000 1.0
C      1  0.4973320000000  0.5000660000000  0.4527230000000 1.0
C      1  0.5257120000000  0.5458600000000  0.4654330000000 1.0
C      1  0.4547620000000  0.5366300000000  0.5131920000000 1.0
C      1  0.5207170000000  0.4629930000000  0.5459250000000 1.0
C      1  0.5222880000000  0.5336710000000  0.5407110000000 1.0
C      1  0.4525820000000  0.4798350000000  0.4463680000000 1.0
C      1  0.4731110000000  0.5406150000000  0.4717380000000 1.0
C      1  0.4927260000000  0.5400750000000  0.5543170000000 1.0
C      1  0.4611200000000  0.4534430000000  0.4518150000000 1.0
C      1  0.4751290000000  0.4914490000000  0.5404590000000 1.0
C      1  0.4947410000000  0.5164770000000  0.4814570000000 1.0
C      1  0.4901780000000  0.4540090000000  0.4542860000000 1.0
C      1  0.5097980000000  0.4383960000000  0.4759190000000 1.0
C      1  0.5236420000000  0.4584950000000  0.4502690000000 1.0
C      1  0.4936110000000  0.5657240000000  0.5033710000000 1.0
C      1  0.5489080000000  0.4980580000000  0.4696670000000 1.0
C      1  0.4964580000000  0.4544100000000  0.5027820000000 1.0
C      1  0.4304000000000  0.5224270000000  0.4633740000000 1.0
C      1  0.5511360000000  0.4736270000000  0.5495620000000 1.0
C      1  0.5271620000000  0.5142720000000  0.4528260000000 1.0
C      1  0.4677040000000  0.5554230000000  0.4956600000000 1.0
C      1  0.5018180000000  0.5581270000000  0.5288280000000 1.0
C      1  0.5513810000000  0.5000580000000  0.5626830000000 1.0
C      1  0.5421810000000  0.4468850000000  0.4763470000000 1.0
C      1  0.4782970000000  0.5181860000000  0.5612390000000 1.0
C      1  0.5319250000000  0.4777670000000  0.4842200000000 1.0
C      1  0.5677260000000  0.5117320000000  0.4945960000000 1.0
C      1  0.5359940000000  0.5347500000000  0.5024140000000 1.0
C      1  0.5534510000000  0.5501720000000  0.5225980000000 1.0
C      1  0.5213070000000  0.4474720000000  0.5204810000000 1.0
C      1  0.5087060000000  0.4931480000000  0.5353440000000 1.0
C      1  0.4694430000000  0.4579070000000  0.5513260000000 1.0
C      1  0.5476570000000  0.4497050000000  0.5079000000000 1.0
C      1  0.4238280000000  0.5118060000000  0.5389160000000 1.0
C      1  0.5218350000000  0.4970190000000  0.5664750000000 1.0
C      1  0.5125930000000  0.5651160000000  0.4804240000000 1.0
C      1  0.5552560000000  0.5368070000000  0.4753070000000 1.0
C      1  0.5651460000000  0.4663660000000  0.5238460000000 1.0
C      1  0.4419230000000  0.4930870000000  0.5476220000000 1.0
C      1  0.4723240000000  0.4652140000000  0.5189760000000 1.0
C      1  0.4527580000000  0.5355180000000  0.4528770000000 1.0
C      1  0.5602590000000  0.4999040000000  0.5208170000000 1.0
C      1  0.5325000000000  0.4863200000000  0.5130970000000 1.0
C      1  0.4997980000000  0.4770260000000  0.4776090000000 1.0
C      1  0.4490330000000  0.4702760000000  0.4969000000000 1.0
C      1  0.5119120000000  0.4703840000000  0.5779260000000 1.0
C      1  0.4723490000000  0.4975590000000  0.4360990000000 1.0
C      1  0.4479440000000  0.4456730000000  0.4752390000000 1.0
C      1  0.5302440000000  0.4839520000000  0.4376270000000 1.0
C      1  0.5527760000000  0.5232570000000  0.5422180000000 1.0
C      1  0.4284630000000  0.5256650000000  0.5145990000000 1.0
C      1  0.4364870000000  0.4901810000000  0.4722760000000 1.0
C      1  0.5777430000000  0.5144700000000  0.4622190000000 1.0
END
