TITL C-2847958-8115-191 0.00135864755843214 125000 -132.046819007833 0 0 26 (C1) n - 1
REM
REM in /home/bkarasulu/work/CARBON/AIRSS/Generating-Clusters/AIREBO/with-SteepDescent/Only-C1/SD-CG-opt/Try1-1.4A-POS3A/HFTN-CG
REM
REM
REM
REM
REM
REM ./C.cell (11c1c37f851c82e70ff6c80c92926a4b)
REM
REM compiler GCC version 9.2.1 20190827 (Red Hat 9.2.1-1)
REM options -cpp -mtune=generic -march=x86-64 -g -O0 -fpre-include=/usr/include/finclude/math-vector-fortran.h
REM seed -1561668589 -583966814 1435364245 -757143170 -2036377351 408715712 307074895 -861141878 1655648794 800320510 6744763 625777869 1840542733 920451076 124975693 -353711312 -1969632502 -908213838 -1680312147 1691054512 -1052443645 -1454396912 381624589 1553613441 -1006140999 190238715 -1945248640 288706912 2037932816 -2079797427 -580010531 -2076950690 -700310431
REM
CELL 1.54180   50.00000   50.00000   50.00000   90.00000   90.00000   90.00000
LATT -1
SFAC C  
C      1  0.5413250000000  0.4940100000000  0.4709120000000 1.0
C      1  0.4464240000000  0.5115450000000  0.5027510000000 1.0
C      1  0.5359610000000  0.4623220000000  0.4349610000000 1.0
C      1  0.5259330000000  0.4801900000000  0.4524190000000 1.0
C      1  0.4557060000000  0.4756210000000  0.5344460000000 1.0
C      1  0.5181520000000  0.4883660000000  0.5772440000000 1.0
C      1  0.5476630000000  0.4863790000000  0.5107340000000 1.0
C      1  0.4979020000000  0.4848780000000  0.4549090000000 1.0
C      1  0.4777220000000  0.5377890000000  0.4638470000000 1.0
C      1  0.4802500000000  0.4955140000000  0.5326790000000 1.0
C      1  0.5607050000000  0.5094700000000  0.4942030000000 1.0
C      1  0.4829700000000  0.4457260000000  0.4825610000000 1.0
C      1  0.4981040000000  0.5117390000000  0.5863850000000 1.0
C      1  0.4860530000000  0.5432190000000  0.5165170000000 1.0
C      1  0.5496110000000  0.5391280000000  0.5031190000000 1.0
C      1  0.4818610000000  0.4735990000000  0.4797960000000 1.0
C      1  0.4965680000000  0.5195900000000  0.4862820000000 1.0
C      1  0.5233890000000  0.4806720000000  0.5097680000000 1.0
C      1  0.4922960000000  0.5121880000000  0.4548080000000 1.0
C      1  0.4383920000000  0.4814110000000  0.5120040000000 1.0
C      1  0.4688820000000  0.5219240000000  0.5182790000000 1.0
C      1  0.4957110000000  0.4992890000000  0.5565440000000 1.0
C      1  0.5342490000000  0.5269410000000  0.4755710000000 1.0
C      1  0.4532440000000  0.4856280000000  0.4836960000000 1.0
C      1  0.4949970000000  0.4924240000000  0.5041010000000 1.0
C      1  0.5159330000000  0.5404370000000  0.5014650000000 1.0
END
