TITL C-2847958-8115-188 -0.00108707761765376 125000 -153.544945169826 0 0 27 (C1) n - 1
REM
REM in /home/bkarasulu/work/CARBON/AIRSS/Generating-Clusters/AIREBO/with-SteepDescent/Only-C1/SD-CG-opt/Try1-1.4A-POS3A/HFTN-CG
REM
REM
REM
REM
REM
REM ./C.cell (11c1c37f851c82e70ff6c80c92926a4b)
REM
REM compiler GCC version 9.2.1 20190827 (Red Hat 9.2.1-1)
REM options -cpp -mtune=generic -march=x86-64 -g -O0 -fpre-include=/usr/include/finclude/math-vector-fortran.h
REM seed -111582488 1873502495 -333048812 1807909197 1056631773 558484681 -1273647045 1735666948 -266511851 -1794627456 440885344 -2013345663 -2114522580 1144269475 -805306036 1161541828 1791701878 -1932620146 -417839397 1870974482 2015001855 2069873848 -445461673 1503152418 410489157 1099176061 -132913070 -1024436553 1047827459 -1941583812 1500100059 1988812619 -597836506
REM
CELL 1.54180   50.00000   50.00000   50.00000   90.00000   90.00000   90.00000
LATT -1
SFAC C  
C      1  0.5394200000000  0.4888420000000  0.4778340000000 1.0
C      1  0.4958270000000  0.5792810000000  0.4915720000000 1.0
C      1  0.5748770000000  0.5331440000000  0.4963590000000 1.0
C      1  0.4938960000000  0.4732070000000  0.4733020000000 1.0
C      1  0.5009130000000  0.4778970000000  0.5642530000000 1.0
C      1  0.4530640000000  0.5188940000000  0.5313680000000 1.0
C      1  0.4852530000000  0.5424920000000  0.4621770000000 1.0
C      1  0.4346340000000  0.5380100000000  0.5321660000000 1.0
C      1  0.5148390000000  0.5352830000000  0.4989220000000 1.0
C      1  0.4898260000000  0.5007130000000  0.4335950000000 1.0
C      1  0.4622040000000  0.4489860000000  0.5053080000000 1.0
C      1  0.4680050000000  0.4626670000000  0.5291080000000 1.0
C      1  0.5040810000000  0.5110840000000  0.5085800000000 1.0
C      1  0.4858510000000  0.5269200000000  0.4400780000000 1.0
C      1  0.5040720000000  0.4812280000000  0.4479370000000 1.0
C      1  0.5423520000000  0.5355750000000  0.4957470000000 1.0
C      1  0.5558410000000  0.5087640000000  0.4861790000000 1.0
C      1  0.5326110000000  0.4824030000000  0.4508120000000 1.0
C      1  0.5136360000000  0.4837900000000  0.4960390000000 1.0
C      1  0.4855950000000  0.5105500000000  0.5319850000000 1.0
C      1  0.4954380000000  0.4579720000000  0.5410950000000 1.0
C      1  0.5172350000000  0.4627700000000  0.5164780000000 1.0
C      1  0.4985260000000  0.5027130000000  0.5592730000000 1.0
C      1  0.4721360000000  0.4581470000000  0.4814130000000 1.0
C      1  0.4981250000000  0.5534030000000  0.4844470000000 1.0
C      1  0.4607700000000  0.4887560000000  0.5301800000000 1.0
C      1  0.5209710000000  0.4365120000000  0.5337910000000 1.0
END
