TITL C-2847954-6904-499 -0.000320709719414567 125000 -415.656296088789 0 0 76 (C1) n - 1
REM
REM in /home/bkarasulu/work/CARBON/AIRSS/Generating-Clusters/AIREBO/with-SteepDescent/Only-C1/SD-CG-opt/Try1-1.4A-POS3A/HFTN-CG
REM
REM
REM
REM
REM
REM ./C.cell (11c1c37f851c82e70ff6c80c92926a4b)
REM
REM compiler GCC version 9.2.1 20190827 (Red Hat 9.2.1-1)
REM options -cpp -mtune=generic -march=x86-64 -g -O0 -fpre-include=/usr/include/finclude/math-vector-fortran.h
REM seed 1691863105 -760848734 -1164178069 -1838358053 495869976 1517405052 -896828210 -1781382358 -1560822373 -665531261 1398423929 -1922440194 1696992112 -1459121106 -1145126410 -2039163305 -925446987 77468533 -718110147 -1855887952 -1627182869 -1193795681 1261343858 682655115 609933567 -651385778 2065672660 -842552858 -629864482 -2073709361 -2027793150 -1768791420 680155274
REM
CELL 1.54180   50.00000   50.00000   50.00000   90.00000   90.00000   90.00000
LATT -1
SFAC C  
C      1  0.5314400000000  0.5654390000000  0.5346450000000 1.0
C      1  0.4242320000000  0.5352680000000  0.5132940000000 1.0
C      1  0.5444820000000  0.5741660000000  0.4805370000000 1.0
C      1  0.5168520000000  0.4771320000000  0.4306300000000 1.0
C      1  0.4749170000000  0.4133670000000  0.4787950000000 1.0
C      1  0.4978130000000  0.5754070000000  0.4791990000000 1.0
C      1  0.5436820000000  0.5022770000000  0.5720150000000 1.0
C      1  0.4408240000000  0.5339580000000  0.5397830000000 1.0
C      1  0.5623280000000  0.5317660000000  0.4655240000000 1.0
C      1  0.5110470000000  0.4187010000000  0.4559680000000 1.0
C      1  0.4551860000000  0.4472180000000  0.5097940000000 1.0
C      1  0.5350540000000  0.5380600000000  0.5138320000000 1.0
C      1  0.4817500000000  0.4321300000000  0.5030720000000 1.0
C      1  0.4982490000000  0.4263600000000  0.5290230000000 1.0
C      1  0.4352710000000  0.4564730000000  0.4922000000000 1.0
C      1  0.4911810000000  0.5566810000000  0.5137500000000 1.0
C      1  0.4596010000000  0.5168080000000  0.4288250000000 1.0
C      1  0.4633440000000  0.4973240000000  0.5605400000000 1.0
C      1  0.5282430000000  0.4992600000000  0.5206970000000 1.0
C      1  0.4843400000000  0.5324950000000  0.4634740000000 1.0
C      1  0.4953010000000  0.5310210000000  0.5488510000000 1.0
C      1  0.4416400000000  0.4815910000000  0.4540810000000 1.0
C      1  0.5604790000000  0.5233130000000  0.5164840000000 1.0
C      1  0.5837640000000  0.5337080000000  0.5219520000000 1.0
C      1  0.5214570000000  0.5669680000000  0.5021700000000 1.0
C      1  0.5612080000000  0.4619530000000  0.5046060000000 1.0
C      1  0.4860260000000  0.4942880000000  0.5351130000000 1.0
C      1  0.4443130000000  0.4929640000000  0.4283920000000 1.0
C      1  0.4881380000000  0.4820560000000  0.4839920000000 1.0
C      1  0.4853640000000  0.5195940000000  0.4201950000000 1.0
C      1  0.5462340000000  0.4201440000000  0.5345380000000 1.0
C      1  0.5069580000000  0.5017280000000  0.4366830000000 1.0
C      1  0.4739020000000  0.5772600000000  0.4991680000000 1.0
C      1  0.4547380000000  0.5294470000000  0.4566750000000 1.0
C      1  0.5220830000000  0.5513730000000  0.4438100000000 1.0
C      1  0.4390770000000  0.5526560000000  0.4571100000000 1.0
C      1  0.5460770000000  0.5544660000000  0.4598220000000 1.0
C      1  0.4769530000000  0.4597930000000  0.5583650000000 1.0
C      1  0.4957800000000  0.3965780000000  0.4664780000000 1.0
C      1  0.4144410000000  0.5125900000000  0.4924910000000 1.0
C      1  0.4891570000000  0.5631600000000  0.5581030000000 1.0
C      1  0.5188640000000  0.5615790000000  0.5592160000000 1.0
C      1  0.5042740000000  0.5063300000000  0.4702680000000 1.0
C      1  0.4647540000000  0.5465590000000  0.5482110000000 1.0
C      1  0.5140960000000  0.5076120000000  0.5830170000000 1.0
C      1  0.5584040000000  0.4438210000000  0.5296460000000 1.0
C      1  0.4622680000000  0.4851200000000  0.4992960000000 1.0
C      1  0.4444330000000  0.5054680000000  0.4781410000000 1.0
C      1  0.5569790000000  0.4928410000000  0.5070180000000 1.0
C      1  0.4940000000000  0.4961710000000  0.5681270000000 1.0
C      1  0.5123240000000  0.5185670000000  0.5001210000000 1.0
C      1  0.4221150000000  0.4803940000000  0.4998600000000 1.0
C      1  0.4661840000000  0.4389900000000  0.4608810000000 1.0
C      1  0.4995940000000  0.4511920000000  0.5425730000000 1.0
C      1  0.5098290000000  0.4734800000000  0.5225950000000 1.0
C      1  0.4393380000000  0.4990030000000  0.5202220000000 1.0
C      1  0.4397990000000  0.5059990000000  0.5500790000000 1.0
C      1  0.4437630000000  0.4558980000000  0.4650940000000 1.0
C      1  0.5412300000000  0.4659630000000  0.4601690000000 1.0
C      1  0.4972230000000  0.4427830000000  0.4634610000000 1.0
C      1  0.5551850000000  0.5076870000000  0.4778860000000 1.0
C      1  0.4845390000000  0.5235840000000  0.5178690000000 1.0
C      1  0.5261290000000  0.5164100000000  0.5462360000000 1.0
C      1  0.5264410000000  0.5374400000000  0.5729550000000 1.0
C      1  0.4639690000000  0.4690770000000  0.5292400000000 1.0
C      1  0.5351690000000  0.4936470000000  0.4638610000000 1.0
C      1  0.5612740000000  0.4556880000000  0.4453120000000 1.0
C      1  0.5682570000000  0.4951030000000  0.5797350000000 1.0
C      1  0.4982500000000  0.5564890000000  0.4587890000000 1.0
C      1  0.5207590000000  0.4102340000000  0.5323900000000 1.0
C      1  0.5583990000000  0.5976030000000  0.4821670000000 1.0
C      1  0.4560150000000  0.5239490000000  0.5042350000000 1.0
C      1  0.5862160000000  0.4564470000000  0.4919920000000 1.0
C      1  0.5155520000000  0.5316500000000  0.4245320000000 1.0
C      1  0.5369090000000  0.4545740000000  0.4860730000000 1.0
C      1  0.5045460000000  0.4557080000000  0.4940510000000 1.0
END
