TITL C-2847952-8118-521 -0.137216072554771 125000 -78.0823901988918 0 0 15 (C1) n - 1
REM
REM in /home/bkarasulu/work/CARBON/AIRSS/Generating-Clusters/AIREBO/with-SteepDescent/Only-C1/SD-CG-opt/Try1-1.4A-POS3A/HFTN-CG
REM
REM
REM
REM
REM
REM ./C.cell (11c1c37f851c82e70ff6c80c92926a4b)
REM
REM compiler GCC version 9.2.1 20190827 (Red Hat 9.2.1-1)
REM options -cpp -mtune=generic -march=x86-64 -g -O0 -fpre-include=/usr/include/finclude/math-vector-fortran.h
REM seed 298846937 -134059866 223379929 2065339661 -1675615301 805841230 -1280918925 2022402710 -113596728 -847601332 -1982193333 -698965951 1285822443 -525708638 -1163159263 -1414895856 1989745184 513168747 1917469321 -2082185517 -1274253022 -240771058 -257776111 50996424 1624911438 -1337807896 922513905 -1947582806 391320977 532280185 1945217070 1672701057 -1296368652
REM
CELL 1.54180   50.00000   50.00000   50.00000   90.00000   90.00000   90.00000
LATT -1
SFAC C  
C      1  0.5143840000000  0.5279740000000  0.4463740000000 1.0
C      1  0.5205920000000  0.4895180000000  0.5540330000000 1.0
C      1  0.5319560000000  0.5091560000000  0.4869730000000 1.0
C      1  0.5155470000000  0.4554450000000  0.5132380000000 1.0
C      1  0.4489870000000  0.4993060000000  0.4626450000000 1.0
C      1  0.5266690000000  0.4985660000000  0.5778690000000 1.0
C      1  0.4726470000000  0.5092930000000  0.4708860000000 1.0
C      1  0.5121360000000  0.4590220000000  0.4851100000000 1.0
C      1  0.5354540000000  0.5208770000000  0.4625810000000 1.0
C      1  0.4826450000000  0.5039450000000  0.4968490000000 1.0
C      1  0.5169420000000  0.4804140000000  0.5290250000000 1.0
C      1  0.5100720000000  0.4925760000000  0.4996270000000 1.0
C      1  0.4554370000000  0.5181820000000  0.5408700000000 1.0
C      1  0.4883840000000  0.5256870000000  0.4544780000000 1.0
C      1  0.4681480000000  0.5100390000000  0.5194410000000 1.0
END
