TITL C-2848501-3133-235 -0.00313082934433163 125000 -805.979247098892 0 0 144 (C1) n - 1
REM
REM in /home/bkarasulu/work/CARBON/AIRSS/Generating-Clusters/AIREBO/with-SteepDescent/Only-C1/SD-CG-opt/Try1-1.4A-POS3A/HFTN-CG
REM
REM
REM
REM
REM
REM ./C.cell (11c1c37f851c82e70ff6c80c92926a4b)
REM
REM compiler GCC version 9.2.1 20190827 (Red Hat 9.2.1-1)
REM options -cpp -mtune=generic -march=x86-64 -g -O0 -fpre-include=/usr/include/finclude/math-vector-fortran.h
REM seed -418354746 1191396570 42943107 -754337728 -353152354 -1202532184 -984075259 2087005628 1250825405 295606820 -1151378673 -1085066365 471789346 64072600 -518360034 -447591619 647005977 -1424429951 -2064067199 1169501875 -1713252041 1315459533 -571667386 -970771741 1788806604 514298594 509118795 -631509624 -37046644 1134367312 -1154047214 -1501433093 -1944285257
REM
CELL 1.54180   50.00000   50.00000   50.00000   90.00000   90.00000   90.00000
LATT -1
SFAC C  
C      1  0.4785690000000  0.4259830000000  0.5671560000000 1.0
C      1  0.4794910000000  0.4906580000000  0.6244390000000 1.0
C      1  0.4757880000000  0.5947980000000  0.5070270000000 1.0
C      1  0.5205300000000  0.5391660000000  0.6023630000000 1.0
C      1  0.4131400000000  0.5481910000000  0.5042780000000 1.0
C      1  0.4794920000000  0.4874210000000  0.5732840000000 1.0
C      1  0.4636310000000  0.4095690000000  0.5022260000000 1.0
C      1  0.5114330000000  0.4720090000000  0.4424180000000 1.0
C      1  0.4974280000000  0.4348640000000  0.4761720000000 1.0
C      1  0.4746800000000  0.5351070000000  0.4096890000000 1.0
C      1  0.5632530000000  0.5378820000000  0.5726680000000 1.0
C      1  0.4547360000000  0.4318250000000  0.4495390000000 1.0
C      1  0.4401330000000  0.4463100000000  0.4757630000000 1.0
C      1  0.5443700000000  0.5551260000000  0.5337500000000 1.0
C      1  0.5356010000000  0.5393210000000  0.5788920000000 1.0
C      1  0.5541850000000  0.4161880000000  0.5097500000000 1.0
C      1  0.5912060000000  0.5579750000000  0.5337230000000 1.0
C      1  0.5268490000000  0.5333350000000  0.4915900000000 1.0
C      1  0.5798610000000  0.5100140000000  0.4639970000000 1.0
C      1  0.5492620000000  0.4648120000000  0.5220670000000 1.0
C      1  0.4195530000000  0.4563390000000  0.5514510000000 1.0
C      1  0.5170190000000  0.5414690000000  0.5231130000000 1.0
C      1  0.4910960000000  0.5573680000000  0.4760720000000 1.0
C      1  0.5247530000000  0.5880550000000  0.4340190000000 1.0
C      1  0.4628480000000  0.3888140000000  0.5181530000000 1.0
C      1  0.5701260000000  0.5564420000000  0.4926130000000 1.0
C      1  0.5783870000000  0.4816180000000  0.5271480000000 1.0
C      1  0.5501300000000  0.5322720000000  0.4318800000000 1.0
C      1  0.4231720000000  0.4743610000000  0.5160630000000 1.0
C      1  0.5942860000000  0.4653210000000  0.4589710000000 1.0
C      1  0.5611960000000  0.4314310000000  0.4599750000000 1.0
C      1  0.5530060000000  0.4601940000000  0.5665250000000 1.0
C      1  0.5017610000000  0.4542490000000  0.5821250000000 1.0
C      1  0.5369110000000  0.5270650000000  0.4627780000000 1.0
C      1  0.5681700000000  0.4357060000000  0.5537560000000 1.0
C      1  0.5116870000000  0.4043020000000  0.4551610000000 1.0
C      1  0.5565140000000  0.4905650000000  0.5516050000000 1.0
C      1  0.4082660000000  0.4732000000000  0.4686070000000 1.0
C      1  0.5153320000000  0.4092460000000  0.4858380000000 1.0
C      1  0.4902250000000  0.5006700000000  0.6005780000000 1.0
C      1  0.5160760000000  0.4844220000000  0.5886150000000 1.0
C      1  0.5448830000000  0.5209620000000  0.4024570000000 1.0
C      1  0.4867270000000  0.5334940000000  0.5478090000000 1.0
C      1  0.4469750000000  0.5855360000000  0.5052040000000 1.0
C      1  0.5840090000000  0.4540640000000  0.4835990000000 1.0
C      1  0.5730300000000  0.5111350000000  0.5708930000000 1.0
C      1  0.5030760000000  0.5841280000000  0.5619930000000 1.0
C      1  0.4673380000000  0.5513690000000  0.5076290000000 1.0
C      1  0.5815310000000  0.5547380000000  0.4644000000000 1.0
C      1  0.4568950000000  0.5216580000000  0.5176300000000 1.0
C      1  0.4757820000000  0.4909610000000  0.4329920000000 1.0
C      1  0.5053110000000  0.4625840000000  0.4703240000000 1.0
C      1  0.6158020000000  0.4482030000000  0.5195120000000 1.0
C      1  0.4406460000000  0.4970200000000  0.5345480000000 1.0
C      1  0.5745490000000  0.5330790000000  0.4507480000000 1.0
C      1  0.3903900000000  0.4866450000000  0.5040090000000 1.0
C      1  0.4465730000000  0.4579450000000  0.5308490000000 1.0
C      1  0.4985350000000  0.4257250000000  0.4216360000000 1.0
C      1  0.4548040000000  0.5247950000000  0.4361060000000 1.0
C      1  0.4988530000000  0.5162310000000  0.4059410000000 1.0
C      1  0.4678990000000  0.4529460000000  0.5786710000000 1.0
C      1  0.5237310000000  0.4163080000000  0.6182730000000 1.0
C      1  0.5246610000000  0.5025070000000  0.4447810000000 1.0
C      1  0.5014900000000  0.4802090000000  0.5517020000000 1.0
C      1  0.4337030000000  0.4933590000000  0.4787430000000 1.0
C      1  0.5348570000000  0.5999270000000  0.5131540000000 1.0
C      1  0.5221460000000  0.4388740000000  0.6040020000000 1.0
C      1  0.5252220000000  0.4996950000000  0.5612770000000 1.0
C      1  0.5690290000000  0.5541030000000  0.5506170000000 1.0
C      1  0.5062640000000  0.4259130000000  0.5252000000000 1.0
C      1  0.5261190000000  0.4120250000000  0.5114220000000 1.0
C      1  0.5501710000000  0.4802380000000  0.4400410000000 1.0
C      1  0.5287520000000  0.4776580000000  0.4137390000000 1.0
C      1  0.4595570000000  0.5691020000000  0.4810270000000 1.0
C      1  0.5796070000000  0.4870560000000  0.4488980000000 1.0
C      1  0.5704460000000  0.5074580000000  0.4931780000000 1.0
C      1  0.5184580000000  0.5416070000000  0.4311290000000 1.0
C      1  0.4761630000000  0.5472660000000  0.5890240000000 1.0
C      1  0.4133030000000  0.4625410000000  0.4442240000000 1.0
C      1  0.4790540000000  0.4791270000000  0.4647120000000 1.0
C      1  0.5561750000000  0.4806150000000  0.4939160000000 1.0
C      1  0.4103840000000  0.5234780000000  0.4400740000000 1.0
C      1  0.4656300000000  0.5750470000000  0.4331090000000 1.0
C      1  0.4831370000000  0.5639450000000  0.4119370000000 1.0
C      1  0.4706180000000  0.4605530000000  0.5119810000000 1.0
C      1  0.5185840000000  0.5290710000000  0.5547480000000 1.0
C      1  0.4763110000000  0.5631960000000  0.5607430000000 1.0
C      1  0.4451240000000  0.4940950000000  0.4471510000000 1.0
C      1  0.5240300000000  0.5816660000000  0.5350430000000 1.0
C      1  0.4313940000000  0.5671910000000  0.5206740000000 1.0
C      1  0.5385410000000  0.5851210000000  0.4649880000000 1.0
C      1  0.5232430000000  0.5040280000000  0.3998750000000 1.0
C      1  0.5533510000000  0.5320020000000  0.5093880000000 1.0
C      1  0.4079180000000  0.5105850000000  0.4926950000000 1.0
C      1  0.4956820000000  0.5278560000000  0.4923750000000 1.0
C      1  0.5117070000000  0.4490630000000  0.4181930000000 1.0
C      1  0.5568440000000  0.5860330000000  0.4939250000000 1.0
C      1  0.4527510000000  0.5338490000000  0.5490550000000 1.0
C      1  0.4940070000000  0.5896730000000  0.4862680000000 1.0
C      1  0.5103360000000  0.5687210000000  0.4205820000000 1.0
C      1  0.4837030000000  0.4326260000000  0.5056050000000 1.0
C      1  0.4414360000000  0.4612790000000  0.4389650000000 1.0
C      1  0.4128870000000  0.5347200000000  0.4726320000000 1.0
C      1  0.5706670000000  0.4314060000000  0.5268230000000 1.0
C      1  0.4319510000000  0.5462110000000  0.4486640000000 1.0
C      1  0.4102790000000  0.5025000000000  0.5411030000000 1.0
C      1  0.4934350000000  0.5596590000000  0.5184760000000 1.0
C      1  0.4232420000000  0.5022710000000  0.4224390000000 1.0
C      1  0.5553240000000  0.4609250000000  0.4666650000000 1.0
C      1  0.4015620000000  0.4780000000000  0.5510430000000 1.0
C      1  0.4780340000000  0.5468280000000  0.4475560000000 1.0
C      1  0.5214160000000  0.5578660000000  0.4606790000000 1.0
C      1  0.5389230000000  0.4622290000000  0.5936590000000 1.0
C      1  0.3716200000000  0.5308110000000  0.5291800000000 1.0
C      1  0.5883690000000  0.4531040000000  0.5133910000000 1.0
C      1  0.4950490000000  0.5184480000000  0.4396570000000 1.0
C      1  0.4965420000000  0.4052350000000  0.4036000000000 1.0
C      1  0.4837290000000  0.4229030000000  0.4493430000000 1.0
C      1  0.5407980000000  0.5044070000000  0.5248080000000 1.0
C      1  0.4881000000000  0.5140750000000  0.5199020000000 1.0
C      1  0.5287520000000  0.4623740000000  0.5459190000000 1.0
C      1  0.4939480000000  0.5302790000000  0.5999980000000 1.0
C      1  0.4900930000000  0.4829340000000  0.5230240000000 1.0
C      1  0.5415890000000  0.4066540000000  0.4559050000000 1.0
C      1  0.4565620000000  0.4689720000000  0.4849740000000 1.0
C      1  0.5843990000000  0.5771890000000  0.5124860000000 1.0
C      1  0.4906540000000  0.5877030000000  0.5326200000000 1.0
C      1  0.5048710000000  0.4403660000000  0.5511100000000 1.0
C      1  0.4465680000000  0.5703010000000  0.4549130000000 1.0
C      1  0.5199780000000  0.5991350000000  0.4867540000000 1.0
C      1  0.4553620000000  0.5141130000000  0.4870020000000 1.0
C      1  0.4541380000000  0.4754140000000  0.5571490000000 1.0
C      1  0.5191020000000  0.4891380000000  0.5125580000000 1.0
C      1  0.4446470000000  0.5627740000000  0.5465490000000 1.0
C      1  0.5248090000000  0.4744220000000  0.4886320000000 1.0
C      1  0.4449990000000  0.4146650000000  0.4805690000000 1.0
C      1  0.3976850000000  0.5236100000000  0.5219760000000 1.0
C      1  0.5621470000000  0.4093830000000  0.4828640000000 1.0
C      1  0.4820720000000  0.5106110000000  0.4700930000000 1.0
C      1  0.4514280000000  0.4892750000000  0.4085420000000 1.0
C      1  0.4041150000000  0.4568310000000  0.4951360000000 1.0
C      1  0.5912110000000  0.5098580000000  0.5177940000000 1.0
C      1  0.6026770000000  0.5328550000000  0.5255340000000 1.0
C      1  0.4148770000000  0.4279970000000  0.4890580000000 1.0
END
