TITL C-2848506-1665-266 -2271.30111651839 125000 -465.846827316667 0 0 87 (C1) n - 1
REM
REM in /home/bkarasulu/work/CARBON/AIRSS/Generating-Clusters/AIREBO/with-SteepDescent/Only-C1/SD-CG-opt/Try1-1.4A-POS3A/HFTN-CG
REM
REM
REM
REM
REM
REM ./C.cell (11c1c37f851c82e70ff6c80c92926a4b)
REM
REM compiler GCC version 9.2.1 20190827 (Red Hat 9.2.1-1)
REM options -cpp -mtune=generic -march=x86-64 -g -O0 -fpre-include=/usr/include/finclude/math-vector-fortran.h
REM seed -2143289621 -1003775006 1259219060 -42951863 590478851 432904945 704418140 -1930938254 1066183254 345305380 393951313 1624592955 -1766574813 1619814482 519388978 1667475930 508113936 -1665171285 -209455692 1587403594 933904734 -1594429645 1799611826 -1815442020 798615606 1596650567 1639087373 1092027458 -1602630363 -1067803316 -548865830 -1175297957 -1101243125
REM
CELL 1.54180   50.00000   50.00000   50.00000   90.00000   90.00000   90.00000
LATT -1
SFAC C  
C      1  0.5774050000000  0.5196680000000  0.5096360000000 1.0
C      1  0.4656170000000  0.4751510000000  0.5488980000000 1.0
C      1  0.4641550000000  0.4780650000000  0.5005000000000 1.0
C      1  0.5214410000000  0.4933060000000  0.4936060000000 1.0
C      1  0.4606780000000  0.5528700000000  0.5277950000000 1.0
C      1  0.5886660000000  0.4894520000000  0.5072920000000 1.0
C      1  0.5126250000000  0.5375810000000  0.5102540000000 1.0
C      1  0.4701790000000  0.4761100000000  0.4260170000000 1.0
C      1  0.4996420000000  0.5484070000000  0.5581200000000 1.0
C      1  0.4811660000000  0.5327100000000  0.5815180000000 1.0
C      1  0.5349590000000  0.5376380000000  0.4268390000000 1.0
C      1  0.5762310000000  0.5016150000000  0.5371720000000 1.0
C      1  0.5549270000000  0.5142310000000  0.5592910000000 1.0
C      1  0.4603920000000  0.4722390000000  0.4520660000000 1.0
C      1  0.4710130000000  0.5241270000000  0.4159370000000 1.0
C      1  0.5234290000000  0.5749440000000  0.4839310000000 1.0
C      1  0.5224390000000  0.4891600000000  0.4474670000000 1.0
C      1  0.4276250000000  0.5450570000000  0.4813750000000 1.0
C      1  0.5035500000000  0.4331050000000  0.4489670000000 1.0
C      1  0.5018100000000  0.5163330000000  0.5516530000000 1.0
C      1  0.4913440000000  0.5565640000000  0.5288290000000 1.0
C      1  0.4181810000000  0.5264730000000  0.5280350000000 1.0
C      1  0.5440760000000  0.5124660000000  0.5107480000000 1.0
C      1  0.4797400000000  0.5385320000000  0.4877160000000 1.0
C      1  0.5076480000000  0.4756230000000  0.5720730000000 1.0
C      1  0.5352510000000  0.5199340000000  0.4542270000000 1.0
C      1  0.5481350000000  0.5525540000000  0.4766660000000 1.0
C      1  0.5132900000000  0.5064340000000  0.5239120000000 1.0
C      1  0.4814460000000  0.4714540000000  0.4749810000000 1.0
C      1  0.4526010000000  0.5406480000000  0.5023070000000 1.0
C      1  0.5574390000000  0.5432650000000  0.5053690000000 1.0
C      1  0.4445360000000  0.4824930000000  0.5279290000000 1.0
C      1  0.5023870000000  0.5313360000000  0.4208790000000 1.0
C      1  0.4172480000000  0.5221980000000  0.4993730000000 1.0
C      1  0.5611260000000  0.5213070000000  0.4732200000000 1.0
C      1  0.4352540000000  0.4418010000000  0.5248220000000 1.0
C      1  0.5136070000000  0.5773700000000  0.5137170000000 1.0
C      1  0.4641060000000  0.4495160000000  0.5173680000000 1.0
C      1  0.4933830000000  0.4294070000000  0.5560730000000 1.0
C      1  0.5726860000000  0.4953550000000  0.4420940000000 1.0
C      1  0.4408980000000  0.4442310000000  0.4839260000000 1.0
C      1  0.5265630000000  0.4634710000000  0.4936250000000 1.0
C      1  0.4845500000000  0.4270680000000  0.5064600000000 1.0
C      1  0.4762760000000  0.4985600000000  0.5626330000000 1.0
C      1  0.4989650000000  0.4477820000000  0.4857670000000 1.0
C      1  0.5261810000000  0.5099870000000  0.5727850000000 1.0
C      1  0.4579420000000  0.5256920000000  0.4436390000000 1.0
C      1  0.5136150000000  0.4581000000000  0.4383840000000 1.0
C      1  0.5003790000000  0.4949500000000  0.4698640000000 1.0
C      1  0.5326700000000  0.5404090000000  0.5597890000000 1.0
C      1  0.5501450000000  0.4934630000000  0.4282320000000 1.0
C      1  0.5481210000000  0.4842330000000  0.5436690000000 1.0
C      1  0.4795730000000  0.4205720000000  0.4572800000000 1.0
C      1  0.5292230000000  0.4207740000000  0.5281670000000 1.0
C      1  0.5117610000000  0.6061010000000  0.5234590000000 1.0
C      1  0.5788200000000  0.4937270000000  0.4748910000000 1.0
C      1  0.4974250000000  0.5033660000000  0.5889160000000 1.0
C      1  0.5589380000000  0.4403740000000  0.4745150000000 1.0
C      1  0.4524470000000  0.5211640000000  0.5672510000000 1.0
C      1  0.5154620000000  0.4759980000000  0.5389620000000 1.0
C      1  0.5345120000000  0.4537320000000  0.5216940000000 1.0
C      1  0.4261250000000  0.4672110000000  0.5042050000000 1.0
C      1  0.5030250000000  0.5737370000000  0.4639470000000 1.0
C      1  0.5597030000000  0.5648950000000  0.5256990000000 1.0
C      1  0.4324840000000  0.5050030000000  0.5446080000000 1.0
C      1  0.4408860000000  0.5085260000000  0.4641730000000 1.0
C      1  0.4755150000000  0.5645810000000  0.4699450000000 1.0
C      1  0.4357920000000  0.4687510000000  0.4658840000000 1.0
C      1  0.5310570000000  0.5559760000000  0.5325270000000 1.0
C      1  0.4183760000000  0.4920720000000  0.4835770000000 1.0
C      1  0.4501740000000  0.5510050000000  0.4618080000000 1.0
C      1  0.4857830000000  0.5093780000000  0.5041370000000 1.0
C      1  0.5697930000000  0.4627860000000  0.4857970000000 1.0
C      1  0.4641610000000  0.4289030000000  0.4805030000000 1.0
C      1  0.4876660000000  0.4564010000000  0.5389630000000 1.0
C      1  0.5411020000000  0.4418090000000  0.5528570000000 1.0
C      1  0.4541190000000  0.5084120000000  0.4928800000000 1.0
C      1  0.5010130000000  0.4169360000000  0.5298120000000 1.0
C      1  0.5033970000000  0.5437010000000  0.4504260000000 1.0
C      1  0.5654510000000  0.4676230000000  0.5191710000000 1.0
C      1  0.5279530000000  0.4388590000000  0.4702380000000 1.0
C      1  0.4841960000000  0.4968620000000  0.4129040000000 1.0
C      1  0.5161100000000  0.5011290000000  0.4166620000000 1.0
C      1  0.4850310000000  0.5194600000000  0.4632400000000 1.0
C      1  0.5187670000000  0.5356840000000  0.4796840000000 1.0
C      1  0.4408540000000  0.5431820000000  0.5456980000000 1.0
C      1  0.5155700000000  0.4468640000000  0.5680760000000 1.0
END
