TITL C-2848501-3133-34 -0.000874664086470447 125000 -720.385540331524 0 0 135 (C1) n - 1
REM
REM in /home/bkarasulu/work/CARBON/AIRSS/Generating-Clusters/AIREBO/with-SteepDescent/Only-C1/SD-CG-opt/Try1-1.4A-POS3A/HFTN-CG
REM
REM
REM
REM
REM
REM ./C.cell (11c1c37f851c82e70ff6c80c92926a4b)
REM
REM compiler GCC version 9.2.1 20190827 (Red Hat 9.2.1-1)
REM options -cpp -mtune=generic -march=x86-64 -g -O0 -fpre-include=/usr/include/finclude/math-vector-fortran.h
REM seed -1071483580 -392559373 -1473864620 448332263 1005176862 -272871283 2005909832 -1950936652 -707486430 938595923 1535952392 767379796 -1941239598 1635197465 -2080773368 -1984981030 -537275073 291824255 -2128766719 -1024782874 -1453150190 1682046774 -169757756 -1929509504 986899477 33936571 -838895579 1374130594 50115325 1568117370 -914656358 1356930938 -1462353519
REM
CELL 1.54180   50.00000   50.00000   50.00000   90.00000   90.00000   90.00000
LATT -1
SFAC C  
C      1  0.5553070000000  0.4938480000000  0.5927870000000 1.0
C      1  0.5984040000000  0.5226760000000  0.4824930000000 1.0
C      1  0.4839950000000  0.4797570000000  0.4293700000000 1.0
C      1  0.4424410000000  0.5423510000000  0.4933460000000 1.0
C      1  0.5187410000000  0.4365330000000  0.5669680000000 1.0
C      1  0.4897800000000  0.4699930000000  0.5548370000000 1.0
C      1  0.4763450000000  0.4570840000000  0.5263910000000 1.0
C      1  0.5127180000000  0.5561330000000  0.5285350000000 1.0
C      1  0.5958950000000  0.4771700000000  0.5280980000000 1.0
C      1  0.4273030000000  0.4626160000000  0.4512670000000 1.0
C      1  0.4843770000000  0.4232830000000  0.4346680000000 1.0
C      1  0.4779960000000  0.5918490000000  0.5283010000000 1.0
C      1  0.5546880000000  0.4491900000000  0.4659540000000 1.0
C      1  0.5538430000000  0.5470570000000  0.5170670000000 1.0
C      1  0.5306020000000  0.5351120000000  0.4116650000000 1.0
C      1  0.5323950000000  0.5964250000000  0.4935150000000 1.0
C      1  0.5277720000000  0.5445710000000  0.4694600000000 1.0
C      1  0.4747030000000  0.5256000000000  0.6114050000000 1.0
C      1  0.5294730000000  0.4693010000000  0.5087380000000 1.0
C      1  0.5013070000000  0.5374470000000  0.4896870000000 1.0
C      1  0.4865970000000  0.4106040000000  0.5173170000000 1.0
C      1  0.4505670000000  0.5612280000000  0.4407310000000 1.0
C      1  0.4661370000000  0.5046980000000  0.4173510000000 1.0
C      1  0.4488230000000  0.5331310000000  0.4246260000000 1.0
C      1  0.4135580000000  0.4586930000000  0.4301360000000 1.0
C      1  0.4999420000000  0.5056480000000  0.4777170000000 1.0
C      1  0.5761540000000  0.4363490000000  0.5504380000000 1.0
C      1  0.5287310000000  0.5836840000000  0.5216040000000 1.0
C      1  0.5277790000000  0.4878640000000  0.4849090000000 1.0
C      1  0.5808690000000  0.4678050000000  0.5535170000000 1.0
C      1  0.5584310000000  0.4238090000000  0.4625190000000 1.0
C      1  0.4701040000000  0.5763810000000  0.4640360000000 1.0
C      1  0.4640750000000  0.5035020000000  0.5002880000000 1.0
C      1  0.5051560000000  0.5606570000000  0.4362260000000 1.0
C      1  0.5237030000000  0.4813090000000  0.5908050000000 1.0
C      1  0.4226420000000  0.5854320000000  0.5793450000000 1.0
C      1  0.4034420000000  0.4861540000000  0.5405190000000 1.0
C      1  0.4378730000000  0.5742850000000  0.4697330000000 1.0
C      1  0.5623940000000  0.5201180000000  0.5762240000000 1.0
C      1  0.5518660000000  0.5226970000000  0.4593260000000 1.0
C      1  0.4590000000000  0.4864060000000  0.4514970000000 1.0
C      1  0.4721340000000  0.5360530000000  0.5071360000000 1.0
C      1  0.3871770000000  0.5307630000000  0.5137490000000 1.0
C      1  0.5244010000000  0.5079430000000  0.5456080000000 1.0
C      1  0.5957280000000  0.4667930000000  0.5019060000000 1.0
C      1  0.5646790000000  0.4791760000000  0.4336650000000 1.0
C      1  0.5141970000000  0.4108520000000  0.4453060000000 1.0
C      1  0.5562010000000  0.5723850000000  0.5385640000000 1.0
C      1  0.4986090000000  0.5663540000000  0.5556050000000 1.0
C      1  0.5054340000000  0.5310920000000  0.5737370000000 1.0
C      1  0.4399290000000  0.4191530000000  0.4781900000000 1.0
C      1  0.5666040000000  0.5605580000000  0.4673260000000 1.0
C      1  0.4344650000000  0.4400870000000  0.4943450000000 1.0
C      1  0.5605840000000  0.3977350000000  0.4610080000000 1.0
C      1  0.5311830000000  0.5008940000000  0.4320390000000 1.0
C      1  0.4747680000000  0.4573700000000  0.5807500000000 1.0
C      1  0.5309210000000  0.4560390000000  0.4129250000000 1.0
C      1  0.4743580000000  0.5337710000000  0.4021850000000 1.0
C      1  0.4810010000000  0.5109710000000  0.4538610000000 1.0
C      1  0.5163610000000  0.4128720000000  0.5134180000000 1.0
C      1  0.5750260000000  0.5460190000000  0.4917620000000 1.0
C      1  0.4439270000000  0.5787370000000  0.5669600000000 1.0
C      1  0.5342250000000  0.4501250000000  0.5852190000000 1.0
C      1  0.5573840000000  0.4612320000000  0.4139750000000 1.0
C      1  0.4912100000000  0.4832990000000  0.5925180000000 1.0
C      1  0.4688840000000  0.5407300000000  0.5403820000000 1.0
C      1  0.5164100000000  0.5688420000000  0.5771260000000 1.0
C      1  0.4241200000000  0.5435940000000  0.4647300000000 1.0
C      1  0.4672130000000  0.5706200000000  0.5500190000000 1.0
C      1  0.4424720000000  0.4527710000000  0.5471590000000 1.0
C      1  0.4907430000000  0.5697290000000  0.4878280000000 1.0
C      1  0.4967030000000  0.5829330000000  0.4506120000000 1.0
C      1  0.5588540000000  0.4666240000000  0.5791330000000 1.0
C      1  0.5038320000000  0.4404640000000  0.4556970000000 1.0
C      1  0.4139440000000  0.4556590000000  0.5035560000000 1.0
C      1  0.4354520000000  0.5116960000000  0.5654530000000 1.0
C      1  0.5170140000000  0.4814040000000  0.5597430000000 1.0
C      1  0.5384080000000  0.4770190000000  0.4551450000000 1.0
C      1  0.5061610000000  0.4452960000000  0.5147760000000 1.0
C      1  0.5721570000000  0.5118960000000  0.4342630000000 1.0
C      1  0.4650840000000  0.5156040000000  0.5630640000000 1.0
C      1  0.4601350000000  0.4588100000000  0.4965430000000 1.0
C      1  0.4991120000000  0.5284500000000  0.5428400000000 1.0
C      1  0.4769190000000  0.4227000000000  0.4927880000000 1.0
C      1  0.3960000000000  0.5012080000000  0.5109550000000 1.0
C      1  0.5567180000000  0.4271290000000  0.5370330000000 1.0
C      1  0.5616800000000  0.4958570000000  0.5521490000000 1.0
C      1  0.5005630000000  0.4671980000000  0.4024380000000 1.0
C      1  0.4213150000000  0.5340970000000  0.4383180000000 1.0
C      1  0.3940800000000  0.5545050000000  0.5096180000000 1.0
C      1  0.5745750000000  0.5149060000000  0.5054930000000 1.0
C      1  0.5120850000000  0.4637810000000  0.4401600000000 1.0
C      1  0.4566540000000  0.4556350000000  0.4649970000000 1.0
C      1  0.5974570000000  0.4895360000000  0.4772820000000 1.0
C      1  0.5045880000000  0.5152430000000  0.4164550000000 1.0
C      1  0.5490310000000  0.5079320000000  0.5227930000000 1.0
C      1  0.5384160000000  0.3986490000000  0.5082520000000 1.0
C      1  0.5683030000000  0.5454890000000  0.4379080000000 1.0
C      1  0.4368160000000  0.5183670000000  0.5126170000000 1.0
C      1  0.4573850000000  0.4304830000000  0.5358610000000 1.0
C      1  0.4226100000000  0.5106330000000  0.5392200000000 1.0
C      1  0.4269570000000  0.4861750000000  0.5078770000000 1.0
C      1  0.5573230000000  0.5016480000000  0.4802470000000 1.0
C      1  0.4170340000000  0.5637540000000  0.4944870000000 1.0
C      1  0.4961410000000  0.4488090000000  0.4825500000000 1.0
C      1  0.5519380000000  0.5108080000000  0.4069380000000 1.0
C      1  0.4243280000000  0.4822290000000  0.5670860000000 1.0
C      1  0.5160230000000  0.5955730000000  0.4655710000000 1.0
C      1  0.4727620000000  0.4933600000000  0.5427810000000 1.0
C      1  0.5355930000000  0.5520280000000  0.4378990000000 1.0
C      1  0.5409100000000  0.4723960000000  0.5389130000000 1.0
C      1  0.4876410000000  0.5357160000000  0.4334250000000 1.0
C      1  0.4872990000000  0.4792140000000  0.4949910000000 1.0
C      1  0.4850830000000  0.4374720000000  0.4058740000000 1.0
C      1  0.4917250000000  0.4316540000000  0.5686700000000 1.0
C      1  0.5703580000000  0.4712940000000  0.4796490000000 1.0
C      1  0.4915380000000  0.5041150000000  0.5203240000000 1.0
C      1  0.5366580000000  0.5418430000000  0.5813310000000 1.0
C      1  0.4001720000000  0.4917640000000  0.4790450000000 1.0
C      1  0.4667150000000  0.4252950000000  0.4604080000000 1.0
C      1  0.5292180000000  0.4417590000000  0.5396650000000 1.0
C      1  0.4334840000000  0.4866610000000  0.4744980000000 1.0
C      1  0.4490580000000  0.4776020000000  0.5299340000000 1.0
C      1  0.5249910000000  0.5296870000000  0.5123760000000 1.0
C      1  0.5970260000000  0.5045580000000  0.5264110000000 1.0
C      1  0.4436590000000  0.4599060000000  0.5757890000000 1.0
C      1  0.5998890000000  0.5094360000000  0.4511640000000 1.0
C      1  0.3996550000000  0.5247600000000  0.4271560000000 1.0
C      1  0.5404520000000  0.5747300000000  0.4709920000000 1.0
C      1  0.5411630000000  0.5372800000000  0.5479370000000 1.0
C      1  0.4971180000000  0.5872880000000  0.5095300000000 1.0
C      1  0.4798490000000  0.4155860000000  0.5480710000000 1.0
C      1  0.5694180000000  0.5505300000000  0.5610430000000 1.0
C      1  0.5229950000000  0.4926000000000  0.3994630000000 1.0
C      1  0.4775070000000  0.5082570000000  0.5903260000000 1.0
END
