TITL C-2847959-7740-473 -0.00115305432706223 125000 -1072.39320805398 0 0 199 (C1) n - 1
REM
REM in /home/bkarasulu/work/CARBON/AIRSS/Generating-Clusters/AIREBO/with-SteepDescent/Only-C1/SD-CG-opt/Try1-1.4A-POS3A/HFTN-CG
REM
REM
REM
REM
REM
REM ./C.cell (11c1c37f851c82e70ff6c80c92926a4b)
REM
REM compiler GCC version 9.2.1 20190827 (Red Hat 9.2.1-1)
REM options -cpp -mtune=generic -march=x86-64 -g -O0 -fpre-include=/usr/include/finclude/math-vector-fortran.h
REM seed -265377379 963611642 -605725185 -1382459069 1670541657 -1504147641 -160082006 942788365 1112274621 1593820884 -1543941259 -181715463 248505036 -584891342 849613706 -30440640 1819238485 -1396639667 -60099754 1550927626 1434303731 -1894268055 -1462687572 1194395880 1517196945 762232483 590087078 1413355032 -1403585117 548880567 -1206760073 364845061 -1986491680
REM
CELL 1.54180   50.00000   50.00000   50.00000   90.00000   90.00000   90.00000
LATT -1
SFAC C  
C      1  0.4735780000000  0.4867260000000  0.4385550000000 1.0
C      1  0.4637080000000  0.5360940000000  0.6020080000000 1.0
C      1  0.5381610000000  0.5666180000000  0.5501570000000 1.0
C      1  0.4423010000000  0.4490200000000  0.4633140000000 1.0
C      1  0.4362220000000  0.4112780000000  0.4958940000000 1.0
C      1  0.5349420000000  0.5603390000000  0.4486400000000 1.0
C      1  0.5337300000000  0.5176490000000  0.5608920000000 1.0
C      1  0.6018660000000  0.4638260000000  0.5370620000000 1.0
C      1  0.5247360000000  0.5835500000000  0.4146200000000 1.0
C      1  0.4127450000000  0.4570750000000  0.4947280000000 1.0
C      1  0.5597710000000  0.5895640000000  0.4596750000000 1.0
C      1  0.6123630000000  0.4779110000000  0.5150380000000 1.0
C      1  0.4355060000000  0.5885530000000  0.4799180000000 1.0
C      1  0.4924280000000  0.3961460000000  0.5358400000000 1.0
C      1  0.5595150000000  0.4262040000000  0.4573930000000 1.0
C      1  0.4533200000000  0.5070940000000  0.4247720000000 1.0
C      1  0.4265550000000  0.5526340000000  0.4335760000000 1.0
C      1  0.5877960000000  0.4267090000000  0.5083990000000 1.0
C      1  0.5786180000000  0.5108020000000  0.4974990000000 1.0
C      1  0.4090890000000  0.4262370000000  0.4935990000000 1.0
C      1  0.5287590000000  0.5070830000000  0.4594120000000 1.0
C      1  0.4952750000000  0.6259050000000  0.5170160000000 1.0
C      1  0.5779580000000  0.5662640000000  0.4691440000000 1.0
C      1  0.4485540000000  0.5541220000000  0.5808190000000 1.0
C      1  0.4347640000000  0.4703730000000  0.5774780000000 1.0
C      1  0.4221750000000  0.5389690000000  0.5717330000000 1.0
C      1  0.6029450000000  0.5118120000000  0.5593650000000 1.0
C      1  0.5009930000000  0.4271220000000  0.5251180000000 1.0
C      1  0.4080790000000  0.5169080000000  0.5522510000000 1.0
C      1  0.5049150000000  0.5978720000000  0.4287990000000 1.0
C      1  0.4167070000000  0.5063360000000  0.5215140000000 1.0
C      1  0.5539730000000  0.5243250000000  0.4148820000000 1.0
C      1  0.4195670000000  0.4325470000000  0.5253320000000 1.0
C      1  0.4848760000000  0.4115370000000  0.4702270000000 1.0
C      1  0.5902810000000  0.5747480000000  0.5213250000000 1.0
C      1  0.4363590000000  0.5852550000000  0.5553410000000 1.0
C      1  0.5914320000000  0.5369070000000  0.4798120000000 1.0
C      1  0.6054560000000  0.5242340000000  0.5342960000000 1.0
C      1  0.4119200000000  0.5650960000000  0.4869950000000 1.0
C      1  0.4722590000000  0.4648000000000  0.4602140000000 1.0
C      1  0.4841020000000  0.3946640000000  0.4340380000000 1.0
C      1  0.4773610000000  0.4473290000000  0.5221090000000 1.0
C      1  0.5626630000000  0.5356570000000  0.5564810000000 1.0
C      1  0.4043730000000  0.5167450000000  0.4608960000000 1.0
C      1  0.3973810000000  0.4190670000000  0.4655150000000 1.0
C      1  0.5004180000000  0.4662370000000  0.5112270000000 1.0
C      1  0.4231500000000  0.5445360000000  0.5116470000000 1.0
C      1  0.5530170000000  0.5432890000000  0.4718550000000 1.0
C      1  0.4025760000000  0.5039730000000  0.4924830000000 1.0
C      1  0.4908650000000  0.5541320000000  0.5181990000000 1.0
C      1  0.5967520000000  0.5754040000000  0.4944720000000 1.0
C      1  0.3997260000000  0.4495420000000  0.5387200000000 1.0
C      1  0.5139650000000  0.4471030000000  0.4714290000000 1.0
C      1  0.4946580000000  0.5429990000000  0.5776690000000 1.0
C      1  0.4292080000000  0.4939400000000  0.4146930000000 1.0
C      1  0.5770540000000  0.4485140000000  0.4419640000000 1.0
C      1  0.4995590000000  0.4293550000000  0.4942750000000 1.0
C      1  0.4845490000000  0.5136410000000  0.4532800000000 1.0
C      1  0.3870880000000  0.4693160000000  0.4767170000000 1.0
C      1  0.4515490000000  0.6202980000000  0.5226490000000 1.0
C      1  0.4512260000000  0.5552580000000  0.4138190000000 1.0
C      1  0.5437030000000  0.4668570000000  0.4537190000000 1.0
C      1  0.5615540000000  0.4113690000000  0.5080970000000 1.0
C      1  0.5026540000000  0.5153180000000  0.4280210000000 1.0
C      1  0.4600830000000  0.4336960000000  0.4996050000000 1.0
C      1  0.5159110000000  0.4989150000000  0.3890120000000 1.0
C      1  0.4859390000000  0.3821540000000  0.4873080000000 1.0
C      1  0.4439180000000  0.5698390000000  0.5071150000000 1.0
C      1  0.4077340000000  0.4353300000000  0.4448590000000 1.0
C      1  0.4097670000000  0.4937840000000  0.4357270000000 1.0
C      1  0.5110570000000  0.3933440000000  0.5075360000000 1.0
C      1  0.5364700000000  0.4532100000000  0.5885590000000 1.0
C      1  0.5683300000000  0.5202660000000  0.4518840000000 1.0
C      1  0.5223250000000  0.4932090000000  0.6239030000000 1.0
C      1  0.3909650000000  0.4784550000000  0.5093770000000 1.0
C      1  0.5331920000000  0.4125350000000  0.4407590000000 1.0
C      1  0.6042220000000  0.5061830000000  0.5132680000000 1.0
C      1  0.5072840000000  0.5555640000000  0.4370370000000 1.0
C      1  0.5531480000000  0.5812720000000  0.4289820000000 1.0
C      1  0.4681740000000  0.5058360000000  0.4967970000000 1.0
C      1  0.5134660000000  0.5549170000000  0.4035360000000 1.0
C      1  0.6058220000000  0.4814760000000  0.4818580000000 1.0
C      1  0.5674480000000  0.5483040000000  0.5022530000000 1.0
C      1  0.5606280000000  0.4736520000000  0.4259770000000 1.0
C      1  0.4644700000000  0.5316160000000  0.4077070000000 1.0
C      1  0.4470820000000  0.5213520000000  0.5185160000000 1.0
C      1  0.5296370000000  0.4641370000000  0.5289130000000 1.0
C      1  0.5665400000000  0.4616110000000  0.4783590000000 1.0
C      1  0.4624590000000  0.5754670000000  0.4372640000000 1.0
C      1  0.4120630000000  0.4888730000000  0.5691750000000 1.0
C      1  0.5929820000000  0.4413280000000  0.4852010000000 1.0
C      1  0.4663920000000  0.5435600000000  0.5325920000000 1.0
C      1  0.5073120000000  0.4485550000000  0.5492890000000 1.0
C      1  0.5306780000000  0.4106760000000  0.5596220000000 1.0
C      1  0.4931830000000  0.4349270000000  0.4222970000000 1.0
C      1  0.5232680000000  0.5161620000000  0.5097750000000 1.0
C      1  0.5345740000000  0.4781240000000  0.4062060000000 1.0
C      1  0.5709740000000  0.4319900000000  0.5543480000000 1.0
C      1  0.5380240000000  0.4354960000000  0.5126040000000 1.0
C      1  0.4646720000000  0.5570620000000  0.5554560000000 1.0
C      1  0.5340710000000  0.4448050000000  0.4329260000000 1.0
C      1  0.4780960000000  0.5613840000000  0.4796800000000 1.0
C      1  0.5494490000000  0.4278930000000  0.5715480000000 1.0
C      1  0.5009640000000  0.5817760000000  0.5831470000000 1.0
C      1  0.4599810000000  0.5881780000000  0.5308450000000 1.0
C      1  0.5042600000000  0.4192150000000  0.5661990000000 1.0
C      1  0.4397350000000  0.5908580000000  0.4511800000000 1.0
C      1  0.4409480000000  0.5106290000000  0.5729830000000 1.0
C      1  0.5827900000000  0.5451130000000  0.5324320000000 1.0
C      1  0.5336680000000  0.4866030000000  0.5037060000000 1.0
C      1  0.4055990000000  0.5450400000000  0.5360140000000 1.0
C      1  0.4493470000000  0.5299710000000  0.4446850000000 1.0
C      1  0.4618400000000  0.4131820000000  0.4334030000000 1.0
C      1  0.4918540000000  0.5321580000000  0.4086050000000 1.0
C      1  0.4668730000000  0.4666310000000  0.3914050000000 1.0
C      1  0.5544310000000  0.4234710000000  0.4178860000000 1.0
C      1  0.5220360000000  0.5325390000000  0.4809490000000 1.0
C      1  0.4170260000000  0.5444020000000  0.4627020000000 1.0
C      1  0.5208340000000  0.5646080000000  0.5127390000000 1.0
C      1  0.4724760000000  0.4718450000000  0.6014370000000 1.0
C      1  0.5485690000000  0.6032560000000  0.5082920000000 1.0
C      1  0.4725150000000  0.4037180000000  0.5098250000000 1.0
C      1  0.4588440000000  0.4751310000000  0.5625910000000 1.0
C      1  0.5624970000000  0.4572420000000  0.5354250000000 1.0
C      1  0.4035290000000  0.4796270000000  0.5393350000000 1.0
C      1  0.5781290000000  0.4728230000000  0.5598660000000 1.0
C      1  0.5783550000000  0.4899460000000  0.4636920000000 1.0
C      1  0.5623230000000  0.4719530000000  0.5078750000000 1.0
C      1  0.5282260000000  0.5258750000000  0.3937450000000 1.0
C      1  0.4464990000000  0.5166060000000  0.4732760000000 1.0
C      1  0.5321470000000  0.5337280000000  0.5908090000000 1.0
C      1  0.4460700000000  0.4116960000000  0.5296860000000 1.0
C      1  0.4367520000000  0.4790080000000  0.3926980000000 1.0
C      1  0.4894260000000  0.6176440000000  0.4907260000000 1.0
C      1  0.4891330000000  0.5069190000000  0.5494580000000 1.0
C      1  0.4766980000000  0.4081590000000  0.5615290000000 1.0
C      1  0.5444680000000  0.4919750000000  0.5416720000000 1.0
C      1  0.4451930000000  0.5878740000000  0.5831820000000 1.0
C      1  0.5614730000000  0.5484060000000  0.4331100000000 1.0
C      1  0.5270510000000  0.5659090000000  0.5822870000000 1.0
C      1  0.4928490000000  0.4846210000000  0.3785800000000 1.0
C      1  0.4513720000000  0.4152350000000  0.4656990000000 1.0
C      1  0.5414780000000  0.4389340000000  0.4821680000000 1.0
C      1  0.4139640000000  0.4668350000000  0.4560320000000 1.0
C      1  0.4862040000000  0.4733210000000  0.4158110000000 1.0
C      1  0.5510380000000  0.5056810000000  0.5947630000000 1.0
C      1  0.5033170000000  0.6050540000000  0.5341660000000 1.0
C      1  0.4570530000000  0.5016810000000  0.5444010000000 1.0
C      1  0.5537480000000  0.4010690000000  0.4797720000000 1.0
C      1  0.4257870000000  0.4939380000000  0.4723100000000 1.0
C      1  0.4645630000000  0.5027990000000  0.5952750000000 1.0
C      1  0.5570730000000  0.4792100000000  0.5858100000000 1.0
C      1  0.5101840000000  0.5987500000000  0.4755160000000 1.0
C      1  0.4436920000000  0.4623590000000  0.4945580000000 1.0
C      1  0.4855440000000  0.5837860000000  0.5528900000000 1.0
C      1  0.4882240000000  0.5289970000000  0.4819600000000 1.0
C      1  0.5140090000000  0.5140340000000  0.6097130000000 1.0
C      1  0.5338400000000  0.4694760000000  0.6176010000000 1.0
C      1  0.4915700000000  0.5801160000000  0.4545520000000 1.0
C      1  0.4766570000000  0.5451470000000  0.4432170000000 1.0
C      1  0.5514680000000  0.4993820000000  0.4811860000000 1.0
C      1  0.4468670000000  0.4514500000000  0.5327580000000 1.0
C      1  0.5313400000000  0.5044840000000  0.4273300000000 1.0
C      1  0.5428530000000  0.6008490000000  0.4799620000000 1.0
C      1  0.4551790000000  0.4455100000000  0.5884910000000 1.0
C      1  0.6099490000000  0.5136010000000  0.4730000000000 1.0
C      1  0.5955170000000  0.4351420000000  0.5345560000000 1.0
C      1  0.4561600000000  0.4806480000000  0.5176990000000 1.0
C      1  0.5133010000000  0.4580030000000  0.4145580000000 1.0
C      1  0.5056600000000  0.5566630000000  0.5487180000000 1.0
C      1  0.4872980000000  0.4801020000000  0.4852850000000 1.0
C      1  0.4945240000000  0.4789530000000  0.5409950000000 1.0
C      1  0.5165670000000  0.4786170000000  0.4687200000000 1.0
C      1  0.5047080000000  0.4652950000000  0.5905640000000 1.0
C      1  0.4158720000000  0.5668290000000  0.5540440000000 1.0
C      1  0.4829940000000  0.5617770000000  0.5996510000000 1.0
C      1  0.5348510000000  0.4057390000000  0.5284530000000 1.0
C      1  0.5110230000000  0.3974140000000  0.4536870000000 1.0
C      1  0.5617960000000  0.5842420000000  0.5331850000000 1.0
C      1  0.4520590000000  0.4296610000000  0.5584890000000 1.0
C      1  0.5698130000000  0.5680100000000  0.5625200000000 1.0
C      1  0.5245350000000  0.5924210000000  0.5228210000000 1.0
C      1  0.5738890000000  0.5001220000000  0.4252710000000 1.0
C      1  0.4819790000000  0.5816320000000  0.5057430000000 1.0
C      1  0.5188080000000  0.4912540000000  0.5763130000000 1.0
C      1  0.4899560000000  0.4388940000000  0.4517350000000 1.0
C      1  0.6006840000000  0.4572770000000  0.4583780000000 1.0
C      1  0.5555020000000  0.5152410000000  0.5205570000000 1.0
C      1  0.4818940000000  0.4537550000000  0.5691060000000 1.0
C      1  0.5176090000000  0.5662390000000  0.4821980000000 1.0
C      1  0.4639890000000  0.4378750000000  0.4096050000000 1.0
C      1  0.4594900000000  0.6043120000000  0.4942890000000 1.0
C      1  0.5271800000000  0.3884710000000  0.4794210000000 1.0
C      1  0.4934730000000  0.5130340000000  0.5826250000000 1.0
C      1  0.5711980000000  0.5044140000000  0.5586090000000 1.0
C      1  0.5112790000000  0.5249490000000  0.5378260000000 1.0
C      1  0.4387940000000  0.4380930000000  0.4313060000000 1.0
C      1  0.5439400000000  0.5471130000000  0.5231570000000 1.0
C      1  0.4461130000000  0.5500330000000  0.4795450000000 1.0
END
