TITL C-2848505-4874-611 0.000210342370714721 125000 -544.486354079214 0 0 101 (C1) n - 1
REM
REM in /home/bkarasulu/work/CARBON/AIRSS/Generating-Clusters/AIREBO/with-SteepDescent/Only-C1/SD-CG-opt/Try1-1.4A-POS3A/HFTN-CG
REM
REM
REM
REM
REM
REM ./C.cell (11c1c37f851c82e70ff6c80c92926a4b)
REM
REM compiler GCC version 9.2.1 20190827 (Red Hat 9.2.1-1)
REM options -cpp -mtune=generic -march=x86-64 -g -O0 -fpre-include=/usr/include/finclude/math-vector-fortran.h
REM seed 1532896312 -814395614 1757009399 -5865825 1801401381 -188892453 -63512264 -1090118120 1139139566 1565589252 3349424 -2132018140 -24477075 -1364718676 1321169048 -1583308477 922703473 1237509431 1209528199 1796219227 177990697 2062149274 1913787831 839572188 1667319971 -882517791 78045449 2003832510 -731294274 -116585882 -1048265932 -1412015883 1428439233
REM
CELL 1.54180   50.00000   50.00000   50.00000   90.00000   90.00000   90.00000
LATT -1
SFAC C  
C      1  0.5302470000000  0.5749450000000  0.5277380000000 1.0
C      1  0.4776040000000  0.5266330000000  0.5587150000000 1.0
C      1  0.5350090000000  0.4196320000000  0.5152710000000 1.0
C      1  0.5196560000000  0.5973180000000  0.4799710000000 1.0
C      1  0.5459610000000  0.5855750000000  0.4804950000000 1.0
C      1  0.4128360000000  0.4806650000000  0.4592110000000 1.0
C      1  0.5051890000000  0.5970850000000  0.4544170000000 1.0
C      1  0.5660300000000  0.4382530000000  0.4806310000000 1.0
C      1  0.5291800000000  0.4310450000000  0.4669370000000 1.0
C      1  0.4449150000000  0.5774110000000  0.4787180000000 1.0
C      1  0.4539980000000  0.4579800000000  0.5535650000000 1.0
C      1  0.4646260000000  0.4348790000000  0.5332880000000 1.0
C      1  0.4778150000000  0.4370390000000  0.4295940000000 1.0
C      1  0.4890800000000  0.5697540000000  0.4584220000000 1.0
C      1  0.4349740000000  0.5160870000000  0.5601050000000 1.0
C      1  0.5625980000000  0.4655730000000  0.4705950000000 1.0
C      1  0.4888440000000  0.4940280000000  0.5037660000000 1.0
C      1  0.4880240000000  0.4819210000000  0.4224500000000 1.0
C      1  0.5360720000000  0.4414080000000  0.5590350000000 1.0
C      1  0.5442880000000  0.5002740000000  0.5040870000000 1.0
C      1  0.5469810000000  0.5636700000000  0.5024720000000 1.0
C      1  0.4534740000000  0.5350690000000  0.4629650000000 1.0
C      1  0.5524630000000  0.5072740000000  0.4386860000000 1.0
C      1  0.4759960000000  0.4158510000000  0.4528430000000 1.0
C      1  0.5431030000000  0.5310770000000  0.4291430000000 1.0
C      1  0.5049130000000  0.5447070000000  0.5673510000000 1.0
C      1  0.5580240000000  0.5631950000000  0.4641280000000 1.0
C      1  0.5591750000000  0.4555970000000  0.5444850000000 1.0
C      1  0.4621160000000  0.5123320000000  0.4206360000000 1.0
C      1  0.5380140000000  0.4515680000000  0.4424530000000 1.0
C      1  0.5369670000000  0.4478090000000  0.4954930000000 1.0
C      1  0.4411960000000  0.4949970000000  0.4220570000000 1.0
C      1  0.4773850000000  0.5831080000000  0.5240790000000 1.0
C      1  0.5211670000000  0.4238560000000  0.5392750000000 1.0
C      1  0.4523610000000  0.4678370000000  0.5031990000000 1.0
C      1  0.5183410000000  0.4997820000000  0.5745110000000 1.0
C      1  0.4040190000000  0.4903710000000  0.5106850000000 1.0
C      1  0.5562780000000  0.5579350000000  0.5407280000000 1.0
C      1  0.4405970000000  0.5388860000000  0.5459590000000 1.0
C      1  0.5265550000000  0.5633900000000  0.5581690000000 1.0
C      1  0.5809710000000  0.4853690000000  0.4765070000000 1.0
C      1  0.4316470000000  0.4843170000000  0.5523970000000 1.0
C      1  0.5060500000000  0.5110030000000  0.5354470000000 1.0
C      1  0.4628190000000  0.4513490000000  0.4656950000000 1.0
C      1  0.5687890000000  0.5387980000000  0.4801040000000 1.0
C      1  0.5010480000000  0.5605690000000  0.5275280000000 1.0
C      1  0.4834520000000  0.4643000000000  0.5105470000000 1.0
C      1  0.4250650000000  0.5416320000000  0.5177930000000 1.0
C      1  0.4590530000000  0.4167950000000  0.5062500000000 1.0
C      1  0.4888770000000  0.4945610000000  0.5597620000000 1.0
C      1  0.4729640000000  0.5122450000000  0.5276880000000 1.0
C      1  0.4581730000000  0.5626030000000  0.4597140000000 1.0
C      1  0.5221840000000  0.4732570000000  0.5358790000000 1.0
C      1  0.4736710000000  0.4855700000000  0.5888170000000 1.0
C      1  0.5030260000000  0.4480570000000  0.4930850000000 1.0
C      1  0.5718580000000  0.5093880000000  0.5552620000000 1.0
C      1  0.4561670000000  0.4839900000000  0.5317710000000 1.0
C      1  0.5025120000000  0.4362180000000  0.4520810000000 1.0
C      1  0.4829910000000  0.5618670000000  0.4909360000000 1.0
C      1  0.4323890000000  0.5272360000000  0.4874830000000 1.0
C      1  0.4749910000000  0.5154890000000  0.4477070000000 1.0
C      1  0.5476610000000  0.5284230000000  0.5480640000000 1.0
C      1  0.5339380000000  0.4815710000000  0.5604940000000 1.0
C      1  0.4758270000000  0.4582820000000  0.5786560000000 1.0
C      1  0.5008430000000  0.5893760000000  0.5002220000000 1.0
C      1  0.4578000000000  0.4232450000000  0.4742770000000 1.0
C      1  0.5181350000000  0.5461580000000  0.5016430000000 1.0
C      1  0.4185390000000  0.4999490000000  0.4851440000000 1.0
C      1  0.4898770000000  0.5301880000000  0.4915020000000 1.0
C      1  0.5866390000000  0.5140750000000  0.5136150000000 1.0
C      1  0.4067650000000  0.4815060000000  0.5337670000000 1.0
C      1  0.4927870000000  0.4652390000000  0.4655260000000 1.0
C      1  0.5715540000000  0.5438410000000  0.5136570000000 1.0
C      1  0.5204430000000  0.5196380000000  0.4644090000000 1.0
C      1  0.5199540000000  0.4119970000000  0.4908700000000 1.0
C      1  0.4686400000000  0.4628020000000  0.4265080000000 1.0
C      1  0.5017010000000  0.4946600000000  0.4508570000000 1.0
C      1  0.4538160000000  0.5673590000000  0.5075100000000 1.0
C      1  0.4705900000000  0.5542110000000  0.5412550000000 1.0
C      1  0.5758200000000  0.5115070000000  0.4608710000000 1.0
C      1  0.4437220000000  0.4727250000000  0.4474170000000 1.0
C      1  0.5310200000000  0.4752430000000  0.4759050000000 1.0
C      1  0.5185050000000  0.4828950000000  0.5066090000000 1.0
C      1  0.5822220000000  0.4884600000000  0.5045940000000 1.0
C      1  0.4904940000000  0.4171750000000  0.4961300000000 1.0
C      1  0.5554150000000  0.4696520000000  0.5139480000000 1.0
C      1  0.4917250000000  0.4652280000000  0.5427520000000 1.0
C      1  0.4477900000000  0.4860240000000  0.4785490000000 1.0
C      1  0.5139610000000  0.5510870000000  0.4682250000000 1.0
C      1  0.4942570000000  0.4319050000000  0.5364030000000 1.0
C      1  0.4734610000000  0.5038450000000  0.4776170000000 1.0
C      1  0.5468720000000  0.5131770000000  0.4777720000000 1.0
C      1  0.4712080000000  0.5261880000000  0.3989630000000 1.0
C      1  0.5640410000000  0.4826120000000  0.5598230000000 1.0
C      1  0.5053240000000  0.4500140000000  0.5699510000000 1.0
C      1  0.4565950000000  0.5335630000000  0.5100650000000 1.0
C      1  0.5378080000000  0.5516840000000  0.4473160000000 1.0
C      1  0.5302010000000  0.5213040000000  0.5216190000000 1.0
C      1  0.5333880000000  0.4843700000000  0.4440200000000 1.0
C      1  0.4389380000000  0.4427090000000  0.5036570000000 1.0
C      1  0.5269510000000  0.5256860000000  0.5710380000000 1.0
END
