TITL C-2847954-6904-34 -0.00234400188536896 125000 -941.967177072315 0 0 174 (C1) n - 1
REM
REM in /home/bkarasulu/work/CARBON/AIRSS/Generating-Clusters/AIREBO/with-SteepDescent/Only-C1/SD-CG-opt/Try1-1.4A-POS3A/HFTN-CG
REM
REM
REM
REM
REM
REM ./C.cell (11c1c37f851c82e70ff6c80c92926a4b)
REM
REM compiler GCC version 9.2.1 20190827 (Red Hat 9.2.1-1)
REM options -cpp -mtune=generic -march=x86-64 -g -O0 -fpre-include=/usr/include/finclude/math-vector-fortran.h
REM seed -2010733679 926701600 -670896913 -146023375 821346537 -1522610993 -149683809 -1011082269 -1690355474 -937152166 1774341130 -562250024 -1652162200 966754059 1889801038 -154519772 -1164849709 -1386300478 1672272175 1113465712 1954383944 2021263161 1080315569 718748393 1281357023 -1286005598 -407710735 748637970 131415180 -2100966497 411040043 -16679598 -1104019095
REM
CELL 1.54180   50.00000   50.00000   50.00000   90.00000   90.00000   90.00000
LATT -1
SFAC C  
C      1  0.4738960000000  0.5064240000000  0.4656190000000 1.0
C      1  0.4385110000000  0.5843210000000  0.5737910000000 1.0
C      1  0.5386900000000  0.5191630000000  0.5176810000000 1.0
C      1  0.4119640000000  0.4700140000000  0.4582200000000 1.0
C      1  0.4300700000000  0.4914410000000  0.4953630000000 1.0
C      1  0.4834800000000  0.5421310000000  0.5969290000000 1.0
C      1  0.5107470000000  0.5142200000000  0.4989530000000 1.0
C      1  0.5064710000000  0.5199990000000  0.5507200000000 1.0
C      1  0.4684030000000  0.4596270000000  0.4184680000000 1.0
C      1  0.4520660000000  0.4478930000000  0.5679340000000 1.0
C      1  0.5726740000000  0.5704250000000  0.5094980000000 1.0
C      1  0.4386390000000  0.4648190000000  0.6017130000000 1.0
C      1  0.5107910000000  0.4638880000000  0.5664500000000 1.0
C      1  0.5105440000000  0.4345370000000  0.4073120000000 1.0
C      1  0.5605140000000  0.5886070000000  0.4857770000000 1.0
C      1  0.5093490000000  0.5341730000000  0.5912180000000 1.0
C      1  0.4925340000000  0.4053770000000  0.4464400000000 1.0
C      1  0.4951390000000  0.4777870000000  0.4290540000000 1.0
C      1  0.5607300000000  0.5359890000000  0.4234190000000 1.0
C      1  0.4642390000000  0.5486520000000  0.4481230000000 1.0
C      1  0.5123650000000  0.4326940000000  0.4501590000000 1.0
C      1  0.4215320000000  0.5302220000000  0.4552840000000 1.0
C      1  0.4698420000000  0.4777870000000  0.4998110000000 1.0
C      1  0.4737880000000  0.4274610000000  0.5690690000000 1.0
C      1  0.5185800000000  0.5133450000000  0.4663330000000 1.0
C      1  0.5420540000000  0.5797490000000  0.5203700000000 1.0
C      1  0.4522690000000  0.4303900000000  0.4895720000000 1.0
C      1  0.5196660000000  0.5060630000000  0.5772290000000 1.0
C      1  0.4536160000000  0.5923710000000  0.5476420000000 1.0
C      1  0.5529560000000  0.5447340000000  0.5872090000000 1.0
C      1  0.4398360000000  0.4629970000000  0.5400270000000 1.0
C      1  0.5464290000000  0.5906910000000  0.5584680000000 1.0
C      1  0.4946130000000  0.3986790000000  0.4856990000000 1.0
C      1  0.4107690000000  0.5435600000000  0.4846720000000 1.0
C      1  0.5039180000000  0.5611930000000  0.4780370000000 1.0
C      1  0.4081050000000  0.4601060000000  0.5456680000000 1.0
C      1  0.5559680000000  0.5188950000000  0.5681160000000 1.0
C      1  0.4945240000000  0.5931970000000  0.5765310000000 1.0
C      1  0.4704640000000  0.4077640000000  0.5505590000000 1.0
C      1  0.5322730000000  0.5489770000000  0.4294640000000 1.0
C      1  0.4997390000000  0.4337320000000  0.5764910000000 1.0
C      1  0.5944210000000  0.5032050000000  0.5039640000000 1.0
C      1  0.4930350000000  0.4166750000000  0.5088490000000 1.0
C      1  0.5761970000000  0.5490860000000  0.4487840000000 1.0
C      1  0.5574310000000  0.5741530000000  0.4548990000000 1.0
C      1  0.5031790000000  0.4646120000000  0.4822850000000 1.0
C      1  0.4853630000000  0.5528980000000  0.5449110000000 1.0
C      1  0.4268830000000  0.5618270000000  0.4439470000000 1.0
C      1  0.4940690000000  0.4707480000000  0.5376330000000 1.0
C      1  0.4649720000000  0.4573580000000  0.4730290000000 1.0
C      1  0.5060560000000  0.5467490000000  0.5076730000000 1.0
C      1  0.5479370000000  0.4903130000000  0.5851040000000 1.0
C      1  0.4729960000000  0.5845450000000  0.5004510000000 1.0
C      1  0.4062650000000  0.5280330000000  0.5080810000000 1.0
C      1  0.5036990000000  0.4623570000000  0.3999820000000 1.0
C      1  0.4484430000000  0.5648660000000  0.5092920000000 1.0
C      1  0.4356270000000  0.4999240000000  0.3946260000000 1.0
C      1  0.5601670000000  0.5380480000000  0.5290740000000 1.0
C      1  0.5846830000000  0.5115030000000  0.5578260000000 1.0
C      1  0.5775680000000  0.4511020000000  0.5008950000000 1.0
C      1  0.4882930000000  0.4226080000000  0.4201170000000 1.0
C      1  0.5989270000000  0.5286360000000  0.4823260000000 1.0
C      1  0.4865070000000  0.4486300000000  0.5052570000000 1.0
C      1  0.5708060000000  0.4260880000000  0.5437810000000 1.0
C      1  0.5077950000000  0.6011760000000  0.4907160000000 1.0
C      1  0.5130810000000  0.5029060000000  0.4386590000000 1.0
C      1  0.4583580000000  0.5172150000000  0.4107010000000 1.0
C      1  0.4581470000000  0.5228050000000  0.5848270000000 1.0
C      1  0.4825870000000  0.5029440000000  0.5915940000000 1.0
C      1  0.6009000000000  0.4749910000000  0.4626150000000 1.0
C      1  0.4626050000000  0.4204870000000  0.5204290000000 1.0
C      1  0.5500160000000  0.5439520000000  0.3939690000000 1.0
C      1  0.4326450000000  0.4641410000000  0.4811020000000 1.0
C      1  0.3940810000000  0.4878780000000  0.5357620000000 1.0
C      1  0.4767880000000  0.5111390000000  0.4992050000000 1.0
C      1  0.5535470000000  0.4545380000000  0.4233120000000 1.0
C      1  0.4474600000000  0.4232650000000  0.4578880000000 1.0
C      1  0.5202760000000  0.3876840000000  0.4846520000000 1.0
C      1  0.5041850000000  0.5234370000000  0.3911150000000 1.0
C      1  0.5297060000000  0.5827010000000  0.4726490000000 1.0
C      1  0.4253110000000  0.5353660000000  0.5312030000000 1.0
C      1  0.4797720000000  0.4430580000000  0.4459160000000 1.0
C      1  0.5786030000000  0.4181280000000  0.4916400000000 1.0
C      1  0.4787070000000  0.5224380000000  0.5312440000000 1.0
C      1  0.4296630000000  0.4915310000000  0.4387170000000 1.0
C      1  0.5477580000000  0.5049310000000  0.4791220000000 1.0
C      1  0.4279010000000  0.4413440000000  0.4487370000000 1.0
C      1  0.5547730000000  0.4231890000000  0.4679040000000 1.0
C      1  0.4395450000000  0.5752590000000  0.4646330000000 1.0
C      1  0.4218620000000  0.4418210000000  0.4996140000000 1.0
C      1  0.4458210000000  0.4870180000000  0.5211790000000 1.0
C      1  0.4863550000000  0.4800040000000  0.4593670000000 1.0
C      1  0.5301870000000  0.4461120000000  0.4758200000000 1.0
C      1  0.5384710000000  0.4635170000000  0.5276870000000 1.0
C      1  0.4730160000000  0.5730000000000  0.4701740000000 1.0
C      1  0.4128290000000  0.5006560000000  0.4130310000000 1.0
C      1  0.4313120000000  0.4142180000000  0.5321720000000 1.0
C      1  0.4739620000000  0.5450280000000  0.4990000000000 1.0
C      1  0.4508360000000  0.5177740000000  0.4432480000000 1.0
C      1  0.5747000000000  0.4830860000000  0.5098610000000 1.0
C      1  0.4227090000000  0.4658870000000  0.5758290000000 1.0
C      1  0.5336320000000  0.4454060000000  0.6112040000000 1.0
C      1  0.5006030000000  0.4764120000000  0.5961000000000 1.0
C      1  0.4864750000000  0.4946070000000  0.5587520000000 1.0
C      1  0.4671210000000  0.4873950000000  0.3988750000000 1.0
C      1  0.5493280000000  0.4282250000000  0.5660410000000 1.0
C      1  0.5339860000000  0.4345130000000  0.4248300000000 1.0
C      1  0.5359130000000  0.4400290000000  0.5089550000000 1.0
C      1  0.5580780000000  0.4158050000000  0.5177890000000 1.0
C      1  0.5280840000000  0.4836660000000  0.3969150000000 1.0
C      1  0.4394270000000  0.5651420000000  0.5388310000000 1.0
C      1  0.5415630000000  0.4898390000000  0.5063200000000 1.0
C      1  0.5263250000000  0.4273730000000  0.5897620000000 1.0
C      1  0.5085330000000  0.4817760000000  0.5088830000000 1.0
C      1  0.5445600000000  0.6064500000000  0.5340980000000 1.0
C      1  0.5910770000000  0.4793200000000  0.5502130000000 1.0
C      1  0.5290880000000  0.4875420000000  0.5502540000000 1.0
C      1  0.4599570000000  0.4376400000000  0.3962370000000 1.0
C      1  0.5195920000000  0.5759220000000  0.5669780000000 1.0
C      1  0.5842980000000  0.4503820000000  0.5342390000000 1.0
C      1  0.4858530000000  0.5549010000000  0.4277110000000 1.0
C      1  0.5438090000000  0.4587710000000  0.5727900000000 1.0
C      1  0.4538330000000  0.5387450000000  0.4771520000000 1.0
C      1  0.5027170000000  0.5963180000000  0.4570670000000 1.0
C      1  0.5889240000000  0.5640230000000  0.5380770000000 1.0
C      1  0.4410210000000  0.4632690000000  0.4323460000000 1.0
C      1  0.4008810000000  0.5185620000000  0.4327780000000 1.0
C      1  0.5688680000000  0.4520050000000  0.4680320000000 1.0
C      1  0.4682090000000  0.4524420000000  0.5317760000000 1.0
C      1  0.5811840000000  0.4625590000000  0.4379820000000 1.0
C      1  0.5890910000000  0.5179350000000  0.4532040000000 1.0
C      1  0.6065100000000  0.4598820000000  0.4853510000000 1.0
C      1  0.4436960000000  0.5035000000000  0.5650280000000 1.0
C      1  0.5400080000000  0.4854700000000  0.4273850000000 1.0
C      1  0.5635940000000  0.5062850000000  0.4247200000000 1.0
C      1  0.4121710000000  0.5274350000000  0.5607230000000 1.0
C      1  0.5494480000000  0.5364170000000  0.4756850000000 1.0
C      1  0.5607470000000  0.4844460000000  0.5408370000000 1.0
C      1  0.5243620000000  0.5452550000000  0.4597710000000 1.0
C      1  0.4671960000000  0.5834050000000  0.5876560000000 1.0
C      1  0.5247980000000  0.5776060000000  0.4207240000000 1.0
C      1  0.5163430000000  0.5633970000000  0.5355050000000 1.0
C      1  0.5454440000000  0.4014410000000  0.4896810000000 1.0
C      1  0.4967590000000  0.4930320000000  0.3870590000000 1.0
C      1  0.3948640000000  0.5015650000000  0.5110700000000 1.0
C      1  0.5885670000000  0.5321980000000  0.5146080000000 1.0
C      1  0.4299670000000  0.5522080000000  0.5679020000000 1.0
C      1  0.4378450000000  0.5145910000000  0.4807110000000 1.0
C      1  0.5442550000000  0.4715140000000  0.4581140000000 1.0
C      1  0.5288410000000  0.4102780000000  0.5476230000000 1.0
C      1  0.5965330000000  0.5335350000000  0.5450980000000 1.0
C      1  0.4148200000000  0.4353660000000  0.5256390000000 1.0
C      1  0.4702050000000  0.4029630000000  0.4666850000000 1.0
C      1  0.5344870000000  0.5392920000000  0.5513390000000 1.0
C      1  0.4489880000000  0.5134430000000  0.5362790000000 1.0
C      1  0.4603830000000  0.4778580000000  0.5708040000000 1.0
C      1  0.5290130000000  0.4723980000000  0.6069650000000 1.0
C      1  0.4994040000000  0.5852590000000  0.5156690000000 1.0
C      1  0.4638950000000  0.5536060000000  0.5716100000000 1.0
C      1  0.5300950000000  0.5369340000000  0.3804650000000 1.0
C      1  0.4673690000000  0.4749340000000  0.6034250000000 1.0
C      1  0.5082120000000  0.5291080000000  0.4231450000000 1.0
C      1  0.4995360000000  0.5832240000000  0.4321060000000 1.0
C      1  0.5711950000000  0.4915380000000  0.4635600000000 1.0
C      1  0.3982430000000  0.4837880000000  0.4861670000000 1.0
C      1  0.5908070000000  0.4936410000000  0.4290650000000 1.0
C      1  0.5186680000000  0.4182400000000  0.5235460000000 1.0
C      1  0.5750300000000  0.5516710000000  0.4827030000000 1.0
C      1  0.4270770000000  0.5667700000000  0.4886890000000 1.0
C      1  0.5591500000000  0.5629100000000  0.5522610000000 1.0
C      1  0.4771490000000  0.5385780000000  0.4013440000000 1.0
C      1  0.4109550000000  0.4955190000000  0.5639020000000 1.0
C      1  0.5276200000000  0.5545380000000  0.5876200000000 1.0
C      1  0.4811710000000  0.5852970000000  0.5503990000000 1.0
END
