TITL C-2847949-8115-605 -0.00301192429510107 125000 -396.240219945029 0 0 73 (C1) n - 1
REM
REM in /home/bkarasulu/work/CARBON/AIRSS/Generating-Clusters/AIREBO/with-SteepDescent/Only-C1/SD-CG-opt/Try1-1.4A-POS3A/HFTN-CG
REM
REM
REM
REM
REM
REM ./C.cell (11c1c37f851c82e70ff6c80c92926a4b)
REM
REM compiler GCC version 9.2.1 20190827 (Red Hat 9.2.1-1)
REM options -cpp -mtune=generic -march=x86-64 -g -O0 -fpre-include=/usr/include/finclude/math-vector-fortran.h
REM seed -870379675 -1274789685 176494927 -796092793 1641240018 1220350413 685324260 -2027445702 829318136 1862209527 -275465650 775334436 -1112301666 1118052888 -1104617412 137536340 -1193727941 -559977177 1412116638 665249149 989837747 -159946710 -12936902 -1497960525 -1007675498 1764236371 378472603 1217875975 -68702349 -756802595 -933362914 -953531125 2099414954
REM
CELL 1.54180   50.00000   50.00000   50.00000   90.00000   90.00000   90.00000
LATT -1
SFAC C  
C      1  0.4787380000000  0.5171870000000  0.5500330000000 1.0
C      1  0.4508760000000  0.4760760000000  0.4591200000000 1.0
C      1  0.4306290000000  0.4661080000000  0.4763140000000 1.0
C      1  0.5083450000000  0.5556660000000  0.5514240000000 1.0
C      1  0.5012760000000  0.5654260000000  0.4848290000000 1.0
C      1  0.4082840000000  0.4820050000000  0.4871930000000 1.0
C      1  0.5447790000000  0.5269230000000  0.5420450000000 1.0
C      1  0.5385240000000  0.4825380000000  0.4531340000000 1.0
C      1  0.4613640000000  0.4264390000000  0.5138770000000 1.0
C      1  0.4362780000000  0.5308420000000  0.4436990000000 1.0
C      1  0.5002390000000  0.4786450000000  0.4423340000000 1.0
C      1  0.4570920000000  0.5061390000000  0.4685180000000 1.0
C      1  0.5219000000000  0.5839650000000  0.4896740000000 1.0
C      1  0.4442670000000  0.5470340000000  0.4683080000000 1.0
C      1  0.4728920000000  0.4627330000000  0.4473250000000 1.0
C      1  0.4726200000000  0.5350450000000  0.4596010000000 1.0
C      1  0.5275790000000  0.4653080000000  0.5029370000000 1.0
C      1  0.4200210000000  0.5173820000000  0.5309370000000 1.0
C      1  0.4479700000000  0.5006220000000  0.5278780000000 1.0
C      1  0.5022000000000  0.5314990000000  0.5637180000000 1.0
C      1  0.5648080000000  0.5397410000000  0.5200650000000 1.0
C      1  0.4783900000000  0.4392420000000  0.4896850000000 1.0
C      1  0.4427220000000  0.4519340000000  0.5020120000000 1.0
C      1  0.5621620000000  0.4851460000000  0.4773520000000 1.0
C      1  0.4938210000000  0.5473830000000  0.5094300000000 1.0
C      1  0.4827410000000  0.5164450000000  0.5162030000000 1.0
C      1  0.5134960000000  0.4329650000000  0.5363400000000 1.0
C      1  0.4984070000000  0.5533700000000  0.4596390000000 1.0
C      1  0.4574810000000  0.5021130000000  0.4985110000000 1.0
C      1  0.5150030000000  0.4759730000000  0.4729490000000 1.0
C      1  0.6193820000000  0.4841300000000  0.4803780000000 1.0
C      1  0.5640760000000  0.4732610000000  0.5451700000000 1.0
C      1  0.5427900000000  0.4944640000000  0.5367980000000 1.0
C      1  0.5578880000000  0.5180840000000  0.4715740000000 1.0
C      1  0.4512570000000  0.4784040000000  0.5496290000000 1.0
C      1  0.4792480000000  0.4997370000000  0.4257860000000 1.0
C      1  0.4867560000000  0.4433230000000  0.5289170000000 1.0
C      1  0.4118850000000  0.4896340000000  0.5151630000000 1.0
C      1  0.4614190000000  0.5504220000000  0.5149200000000 1.0
C      1  0.4734640000000  0.4909600000000  0.5640020000000 1.0
C      1  0.4457170000000  0.5581120000000  0.4938910000000 1.0
C      1  0.4693170000000  0.4716120000000  0.4943330000000 1.0
C      1  0.5250890000000  0.5269450000000  0.4731220000000 1.0
C      1  0.5450700000000  0.4942740000000  0.5052960000000 1.0
C      1  0.4545690000000  0.5080300000000  0.4356000000000 1.0
C      1  0.5553540000000  0.5509320000000  0.4631650000000 1.0
C      1  0.5561090000000  0.4516980000000  0.4784340000000 1.0
C      1  0.5318410000000  0.4615310000000  0.5654710000000 1.0
C      1  0.5325370000000  0.5222210000000  0.5020650000000 1.0
C      1  0.5007250000000  0.4734560000000  0.5722440000000 1.0
C      1  0.4998220000000  0.4702360000000  0.5201410000000 1.0
C      1  0.5276920000000  0.5450080000000  0.4455090000000 1.0
C      1  0.5265230000000  0.5163650000000  0.5659760000000 1.0
C      1  0.4975390000000  0.5145140000000  0.4688880000000 1.0
C      1  0.5677820000000  0.5407410000000  0.4934230000000 1.0
C      1  0.4507910000000  0.5320120000000  0.5366330000000 1.0
C      1  0.5520640000000  0.5757440000000  0.4823670000000 1.0
C      1  0.5350840000000  0.4931070000000  0.5766120000000 1.0
C      1  0.4793630000000  0.4374210000000  0.4574090000000 1.0
C      1  0.5388130000000  0.4540270000000  0.5330040000000 1.0
C      1  0.4998310000000  0.5179750000000  0.4361760000000 1.0
C      1  0.5407120000000  0.5723650000000  0.5125200000000 1.0
C      1  0.5304020000000  0.4383790000000  0.4830710000000 1.0
C      1  0.5271260000000  0.5216000000000  0.4230990000000 1.0
C      1  0.5285980000000  0.4918890000000  0.4273160000000 1.0
C      1  0.4802670000000  0.4836110000000  0.5949700000000 1.0
C      1  0.5138580000000  0.4835050000000  0.5433180000000 1.0
C      1  0.5249230000000  0.5471100000000  0.5232020000000 1.0
C      1  0.5939090000000  0.4845370000000  0.4789670000000 1.0
C      1  0.4551940000000  0.4478580000000  0.5395970000000 1.0
C      1  0.4958890000000  0.4928240000000  0.4950310000000 1.0
C      1  0.5063470000000  0.4300570000000  0.4736030000000 1.0
C      1  0.4280750000000  0.4659880000000  0.5281270000000 1.0
END
