TITL C-2847954-6904-408 -0.00222427310411833 125000 -1080.417312573 0 0 195 (C1) n - 1
REM
REM in /home/bkarasulu/work/CARBON/AIRSS/Generating-Clusters/AIREBO/with-SteepDescent/Only-C1/SD-CG-opt/Try1-1.4A-POS3A/HFTN-CG
REM
REM
REM
REM
REM
REM ./C.cell (11c1c37f851c82e70ff6c80c92926a4b)
REM
REM compiler GCC version 9.2.1 20190827 (Red Hat 9.2.1-1)
REM options -cpp -mtune=generic -march=x86-64 -g -O0 -fpre-include=/usr/include/finclude/math-vector-fortran.h
REM seed 651231006 143294681 593526073 278295083 1545832551 539271992 462626767 -832382193 -892082975 573200464 1538309617 -307472902 -1823915879 1302401911 -310707773 1940795387 -1835009966 2083763880 -470653722 -1559755817 -221050020 2035953793 455082457 1349516511 359256381 1208868800 137154544 391362950 1139309232 -1261854247 1052185186 -192948687 -511418273
REM
CELL 1.54180   50.00000   50.00000   50.00000   90.00000   90.00000   90.00000
LATT -1
SFAC C  
C      1  0.4088510000000  0.4624540000000  0.4765150000000 1.0
C      1  0.4800570000000  0.5767010000000  0.5170200000000 1.0
C      1  0.5424970000000  0.5290410000000  0.3942500000000 1.0
C      1  0.4077200000000  0.4613640000000  0.4422670000000 1.0
C      1  0.5844240000000  0.4519680000000  0.4834980000000 1.0
C      1  0.4592740000000  0.4746400000000  0.3825780000000 1.0
C      1  0.4617260000000  0.5323090000000  0.4502860000000 1.0
C      1  0.5340910000000  0.6089800000000  0.5016880000000 1.0
C      1  0.5085360000000  0.5614230000000  0.5276130000000 1.0
C      1  0.4401140000000  0.4674470000000  0.4004800000000 1.0
C      1  0.5358370000000  0.4687010000000  0.5442090000000 1.0
C      1  0.5649640000000  0.5000300000000  0.4270270000000 1.0
C      1  0.5906150000000  0.4877070000000  0.5466340000000 1.0
C      1  0.5061350000000  0.5662850000000  0.5958470000000 1.0
C      1  0.5547620000000  0.5335040000000  0.5036410000000 1.0
C      1  0.5767810000000  0.5121750000000  0.4722740000000 1.0
C      1  0.5297800000000  0.5098970000000  0.6366480000000 1.0
C      1  0.5042420000000  0.4466010000000  0.4592450000000 1.0
C      1  0.5283510000000  0.5643000000000  0.5716590000000 1.0
C      1  0.6198600000000  0.4951990000000  0.4642330000000 1.0
C      1  0.4683180000000  0.4543370000000  0.4820080000000 1.0
C      1  0.5494170000000  0.5482950000000  0.4669330000000 1.0
C      1  0.4418370000000  0.5908620000000  0.4769870000000 1.0
C      1  0.4784350000000  0.4930220000000  0.4487240000000 1.0
C      1  0.5024950000000  0.5084540000000  0.3826240000000 1.0
C      1  0.4338680000000  0.5189650000000  0.5998950000000 1.0
C      1  0.4848710000000  0.3984070000000  0.4800600000000 1.0
C      1  0.4843040000000  0.4132090000000  0.4311040000000 1.0
C      1  0.5053360000000  0.4246400000000  0.4850600000000 1.0
C      1  0.5761340000000  0.4256600000000  0.5017200000000 1.0
C      1  0.4826430000000  0.4030400000000  0.5332530000000 1.0
C      1  0.4403240000000  0.4543830000000  0.4299460000000 1.0
C      1  0.5394710000000  0.4990660000000  0.5469680000000 1.0
C      1  0.5877120000000  0.5195800000000  0.5422750000000 1.0
C      1  0.5760680000000  0.4232380000000  0.5841600000000 1.0
C      1  0.5916030000000  0.4783290000000  0.5155610000000 1.0
C      1  0.4536140000000  0.5327330000000  0.4893070000000 1.0
C      1  0.4817600000000  0.5912100000000  0.4779760000000 1.0
C      1  0.4946730000000  0.4272890000000  0.6036020000000 1.0
C      1  0.4289690000000  0.4549130000000  0.5648070000000 1.0
C      1  0.5919560000000  0.5471350000000  0.5232940000000 1.0
C      1  0.5119540000000  0.5181120000000  0.5389160000000 1.0
C      1  0.5963250000000  0.5033800000000  0.4953670000000 1.0
C      1  0.5273310000000  0.4810210000000  0.4335300000000 1.0
C      1  0.4568130000000  0.6154040000000  0.5211790000000 1.0
C      1  0.4433120000000  0.4367760000000  0.5323200000000 1.0
C      1  0.4164220000000  0.4840740000000  0.5586030000000 1.0
C      1  0.5815450000000  0.4436240000000  0.4518310000000 1.0
C      1  0.4399270000000  0.5990240000000  0.5028920000000 1.0
C      1  0.5174210000000  0.5730620000000  0.4969230000000 1.0
C      1  0.4844630000000  0.5251710000000  0.5553000000000 1.0
C      1  0.5547050000000  0.5838830000000  0.5062290000000 1.0
C      1  0.4164780000000  0.4357990000000  0.4932540000000 1.0
C      1  0.5689820000000  0.4024220000000  0.5673350000000 1.0
C      1  0.4247770000000  0.5791220000000  0.5210870000000 1.0
C      1  0.5742040000000  0.5607900000000  0.4348490000000 1.0
C      1  0.5281240000000  0.6090130000000  0.4713480000000 1.0
C      1  0.5227970000000  0.5102100000000  0.6106020000000 1.0
C      1  0.4416680000000  0.5443240000000  0.5902010000000 1.0
C      1  0.5382220000000  0.3866180000000  0.4572090000000 1.0
C      1  0.5491560000000  0.5988550000000  0.5346150000000 1.0
C      1  0.3974850000000  0.4843710000000  0.4976270000000 1.0
C      1  0.5952620000000  0.5009340000000  0.4213650000000 1.0
C      1  0.4817150000000  0.4935500000000  0.5937080000000 1.0
C      1  0.5366180000000  0.4774410000000  0.3948480000000 1.0
C      1  0.5464810000000  0.3912280000000  0.4830000000000 1.0
C      1  0.4741520000000  0.4343730000000  0.5262630000000 1.0
C      1  0.4351480000000  0.4704100000000  0.4576270000000 1.0
C      1  0.5543210000000  0.5481800000000  0.4138210000000 1.0
C      1  0.4771070000000  0.4959560000000  0.3968120000000 1.0
C      1  0.5676210000000  0.5729040000000  0.4817600000000 1.0
C      1  0.4997850000000  0.6043750000000  0.4582670000000 1.0
C      1  0.5418410000000  0.4632070000000  0.4658270000000 1.0
C      1  0.4336960000000  0.4984470000000  0.4903810000000 1.0
C      1  0.4945090000000  0.5919970000000  0.4335540000000 1.0
C      1  0.5649480000000  0.4168880000000  0.4586760000000 1.0
C      1  0.4249110000000  0.4569860000000  0.5184710000000 1.0
C      1  0.4720850000000  0.4422480000000  0.4314370000000 1.0
C      1  0.5101770000000  0.4199010000000  0.5812060000000 1.0
C      1  0.4178600000000  0.5094320000000  0.5359540000000 1.0
C      1  0.5214360000000  0.5864970000000  0.5474860000000 1.0
C      1  0.5499190000000  0.4559230000000  0.4091260000000 1.0
C      1  0.4626800000000  0.5105080000000  0.4241710000000 1.0
C      1  0.4988550000000  0.5529710000000  0.5590950000000 1.0
C      1  0.4580070000000  0.4390340000000  0.5726960000000 1.0
C      1  0.3994620000000  0.5580890000000  0.5296490000000 1.0
C      1  0.3947020000000  0.4849020000000  0.5316510000000 1.0
C      1  0.4479570000000  0.5392360000000  0.4134820000000 1.0
C      1  0.4138040000000  0.5165600000000  0.4446730000000 1.0
C      1  0.5056180000000  0.4792740000000  0.4004670000000 1.0
C      1  0.4440580000000  0.4026030000000  0.4533870000000 1.0
C      1  0.4550990000000  0.3964680000000  0.4923510000000 1.0
C      1  0.5183770000000  0.5756790000000  0.4192650000000 1.0
C      1  0.5024760000000  0.4777460000000  0.4645630000000 1.0
C      1  0.4239980000000  0.5503900000000  0.5673790000000 1.0
C      1  0.4585520000000  0.4851240000000  0.4713860000000 1.0
C      1  0.4334780000000  0.4053460000000  0.5335240000000 1.0
C      1  0.4658020000000  0.5054270000000  0.5692500000000 1.0
C      1  0.4637850000000  0.4105140000000  0.5607370000000 1.0
C      1  0.4996170000000  0.4444500000000  0.5462390000000 1.0
C      1  0.5583910000000  0.4666920000000  0.4929240000000 1.0
C      1  0.4549680000000  0.4845310000000  0.5493220000000 1.0
C      1  0.5575630000000  0.4702830000000  0.4387080000000 1.0
C      1  0.4685910000000  0.4383210000000  0.6014510000000 1.0
C      1  0.4903940000000  0.4466020000000  0.5028500000000 1.0
C      1  0.4863100000000  0.6085060000000  0.5203940000000 1.0
C      1  0.4540210000000  0.3916020000000  0.5202760000000 1.0
C      1  0.5823880000000  0.5131360000000  0.6018950000000 1.0
C      1  0.4611930000000  0.4584580000000  0.6192400000000 1.0
C      1  0.5640910000000  0.5432950000000  0.5426570000000 1.0
C      1  0.5251950000000  0.5193820000000  0.5702100000000 1.0
C      1  0.5494840000000  0.4271110000000  0.5200850000000 1.0
C      1  0.6126940000000  0.5175860000000  0.4557240000000 1.0
C      1  0.5278850000000  0.5438270000000  0.4893340000000 1.0
C      1  0.4226670000000  0.5540910000000  0.4552090000000 1.0
C      1  0.5005420000000  0.4606920000000  0.4285020000000 1.0
C      1  0.5462930000000  0.5802250000000  0.4359100000000 1.0
C      1  0.4366890000000  0.5178290000000  0.4642560000000 1.0
C      1  0.4084280000000  0.5429070000000  0.4771230000000 1.0
C      1  0.5080030000000  0.4085010000000  0.4195050000000 1.0
C      1  0.5709370000000  0.5357290000000  0.5922180000000 1.0
C      1  0.5260040000000  0.4876990000000  0.4833120000000 1.0
C      1  0.4968880000000  0.5648380000000  0.4627320000000 1.0
C      1  0.5817630000000  0.5464890000000  0.4917810000000 1.0
C      1  0.5647770000000  0.4520290000000  0.5732210000000 1.0
C      1  0.5007750000000  0.3936720000000  0.5093950000000 1.0
C      1  0.4547520000000  0.5639330000000  0.4607160000000 1.0
C      1  0.6103110000000  0.5243310000000  0.5085370000000 1.0
C      1  0.4684260000000  0.5986260000000  0.5659520000000 1.0
C      1  0.6077270000000  0.4726250000000  0.4862340000000 1.0
C      1  0.4674650000000  0.5595180000000  0.4114140000000 1.0
C      1  0.4931010000000  0.4830090000000  0.5390950000000 1.0
C      1  0.4886350000000  0.5382830000000  0.5105220000000 1.0
C      1  0.4732130000000  0.3980450000000  0.4514560000000 1.0
C      1  0.4783910000000  0.5073190000000  0.5203560000000 1.0
C      1  0.4988230000000  0.5187120000000  0.4450300000000 1.0
C      1  0.4220420000000  0.5415570000000  0.4274470000000 1.0
C      1  0.4717190000000  0.5535310000000  0.5801920000000 1.0
C      1  0.5633590000000  0.4938690000000  0.5280380000000 1.0
C      1  0.5421630000000  0.5577010000000  0.5239410000000 1.0
C      1  0.5803440000000  0.5839570000000  0.4577260000000 1.0
C      1  0.5505660000000  0.5420170000000  0.5696170000000 1.0
C      1  0.4350600000000  0.5004520000000  0.5792570000000 1.0
C      1  0.3919850000000  0.4511170000000  0.5108550000000 1.0
C      1  0.4355250000000  0.4915420000000  0.4160550000000 1.0
C      1  0.4959670000000  0.5486420000000  0.4377510000000 1.0
C      1  0.4063990000000  0.5385570000000  0.5495720000000 1.0
C      1  0.4345000000000  0.4186190000000  0.4800290000000 1.0
C      1  0.3723390000000  0.4624370000000  0.5320820000000 1.0
C      1  0.5863450000000  0.4738470000000  0.5721940000000 1.0
C      1  0.5884310000000  0.5411240000000  0.4587380000000 1.0
C      1  0.5141850000000  0.6112460000000  0.5253060000000 1.0
C      1  0.5400940000000  0.4562610000000  0.5153390000000 1.0
C      1  0.5922360000000  0.4888950000000  0.5939480000000 1.0
C      1  0.4186690000000  0.5520310000000  0.5039040000000 1.0
C      1  0.4822240000000  0.5828740000000  0.5842100000000 1.0
C      1  0.4580470000000  0.4338460000000  0.4608010000000 1.0
C      1  0.5340060000000  0.4099700000000  0.4348880000000 1.0
C      1  0.5294050000000  0.4078610000000  0.5022650000000 1.0
C      1  0.4983870000000  0.5527430000000  0.4040790000000 1.0
C      1  0.4365280000000  0.5292030000000  0.5155340000000 1.0
C      1  0.5273590000000  0.5418390000000  0.4289370000000 1.0
C      1  0.4591580000000  0.5306350000000  0.5359580000000 1.0
C      1  0.5037760000000  0.4929810000000  0.5689030000000 1.0
C      1  0.5596840000000  0.4317680000000  0.4285540000000 1.0
C      1  0.4668940000000  0.4808310000000  0.5040730000000 1.0
C      1  0.4744110000000  0.5596100000000  0.4881640000000 1.0
C      1  0.5148330000000  0.5327100000000  0.3878700000000 1.0
C      1  0.4722730000000  0.4832080000000  0.6159240000000 1.0
C      1  0.4733090000000  0.4609660000000  0.5558230000000 1.0
C      1  0.5269600000000  0.5099550000000  0.4371690000000 1.0
C      1  0.5173630000000  0.5005860000000  0.5128880000000 1.0
C      1  0.4544910000000  0.5857650000000  0.5376930000000 1.0
C      1  0.4038880000000  0.5143910000000  0.4865500000000 1.0
C      1  0.4966290000000  0.4024530000000  0.5642450000000 1.0
C      1  0.5142160000000  0.5365220000000  0.5974510000000 1.0
C      1  0.4828590000000  0.5232000000000  0.4741360000000 1.0
C      1  0.5080220000000  0.5221160000000  0.4919210000000 1.0
C      1  0.5290570000000  0.5756010000000  0.4650750000000 1.0
C      1  0.5350690000000  0.4331000000000  0.4597870000000 1.0
C      1  0.5545270000000  0.5220310000000  0.4505340000000 1.0
C      1  0.5096000000000  0.4675720000000  0.5141680000000 1.0
C      1  0.5552150000000  0.5004230000000  0.4957980000000 1.0
C      1  0.5490720000000  0.5023370000000  0.4008900000000 1.0
C      1  0.5541820000000  0.4282940000000  0.5512660000000 1.0
C      1  0.5739660000000  0.4020440000000  0.4844410000000 1.0
C      1  0.4244770000000  0.4238380000000  0.5575720000000 1.0
C      1  0.4691520000000  0.5778750000000  0.4332040000000 1.0
C      1  0.5231910000000  0.4872350000000  0.5937840000000 1.0
C      1  0.5485190000000  0.6089490000000  0.4462060000000 1.0
C      1  0.4523980000000  0.5557340000000  0.5535320000000 1.0
C      1  0.5267650000000  0.4431900000000  0.5647750000000 1.0
C      1  0.5383090000000  0.4640350000000  0.5891230000000 1.0
C      1  0.4380300000000  0.4860270000000  0.5217120000000 1.0
C      1  0.4135830000000  0.4921040000000  0.4319150000000 1.0
END
