TITL C-2848498-1409-293 0.00391834742796563 125000 -850.817391010332 0 0 160 (C1) n - 1
REM
REM in /home/bkarasulu/work/CARBON/AIRSS/Generating-Clusters/AIREBO/with-SteepDescent/Only-C1/SD-CG-opt/Try1-1.4A-POS3A/HFTN-CG
REM
REM
REM
REM
REM
REM ./C.cell (11c1c37f851c82e70ff6c80c92926a4b)
REM
REM compiler GCC version 9.2.1 20190827 (Red Hat 9.2.1-1)
REM options -cpp -mtune=generic -march=x86-64 -g -O0 -fpre-include=/usr/include/finclude/math-vector-fortran.h
REM seed 1345216424 -1533291537 460278125 -1956127273 -949683503 -753839817 2028100891 -1401291846 -1297658703 -657105331 -1234157862 -1460350308 2134524167 2012543775 222153239 2002484799 1839708596 1722539389 926417303 -925189285 -1948963657 1826476747 532585445 -1163516710 -1666753996 -1372192718 -2030114678 -2136207864 338232680 1880765842 323684058 1754757443 -1231167090
REM
CELL 1.54180   50.00000   50.00000   50.00000   90.00000   90.00000   90.00000
LATT -1
SFAC C  
C      1  0.4214160000000  0.5483750000000  0.4861880000000 1.0
C      1  0.5602140000000  0.5405630000000  0.5874410000000 1.0
C      1  0.5361630000000  0.5041120000000  0.3972740000000 1.0
C      1  0.5504080000000  0.5564710000000  0.4452520000000 1.0
C      1  0.4974880000000  0.4626350000000  0.5916490000000 1.0
C      1  0.5184880000000  0.5010460000000  0.4875480000000 1.0
C      1  0.4757390000000  0.5716780000000  0.4616980000000 1.0
C      1  0.5363950000000  0.4112690000000  0.5423460000000 1.0
C      1  0.4706040000000  0.4321210000000  0.4865190000000 1.0
C      1  0.4644010000000  0.4417990000000  0.4171190000000 1.0
C      1  0.5339290000000  0.5506430000000  0.4187290000000 1.0
C      1  0.5164570000000  0.4947980000000  0.5778390000000 1.0
C      1  0.4836270000000  0.5216480000000  0.4501240000000 1.0
C      1  0.5556530000000  0.4675110000000  0.5891320000000 1.0
C      1  0.4673830000000  0.3986500000000  0.4814250000000 1.0
C      1  0.5322090000000  0.5628960000000  0.5503490000000 1.0
C      1  0.5607350000000  0.5348880000000  0.4644260000000 1.0
C      1  0.4586170000000  0.4652320000000  0.4550660000000 1.0
C      1  0.5026100000000  0.4324900000000  0.4980320000000 1.0
C      1  0.5696430000000  0.4744400000000  0.5209560000000 1.0
C      1  0.5828870000000  0.5075530000000  0.5576550000000 1.0
C      1  0.4835540000000  0.5690260000000  0.5736200000000 1.0
C      1  0.5027920000000  0.5298880000000  0.4740710000000 1.0
C      1  0.4362750000000  0.4887490000000  0.4448740000000 1.0
C      1  0.4405650000000  0.5904520000000  0.4720900000000 1.0
C      1  0.5001760000000  0.5551600000000  0.4203800000000 1.0
C      1  0.4878290000000  0.5481200000000  0.5919320000000 1.0
C      1  0.4922870000000  0.3839640000000  0.4815720000000 1.0
C      1  0.5088790000000  0.3878070000000  0.4589820000000 1.0
C      1  0.5460530000000  0.5181410000000  0.5259430000000 1.0
C      1  0.5267190000000  0.4315120000000  0.4168210000000 1.0
C      1  0.5983780000000  0.4627270000000  0.5187330000000 1.0
C      1  0.4782540000000  0.4211600000000  0.5554120000000 1.0
C      1  0.5052950000000  0.4864820000000  0.4598010000000 1.0
C      1  0.5541410000000  0.4455890000000  0.4737580000000 1.0
C      1  0.5408280000000  0.4809760000000  0.5618140000000 1.0
C      1  0.4997190000000  0.5002190000000  0.4291970000000 1.0
C      1  0.5841590000000  0.5613850000000  0.4825020000000 1.0
C      1  0.5903540000000  0.5217580000000  0.4415800000000 1.0
C      1  0.4317290000000  0.4640200000000  0.5049440000000 1.0
C      1  0.5322830000000  0.4044740000000  0.4652590000000 1.0
C      1  0.5082110000000  0.5809450000000  0.4405030000000 1.0
C      1  0.4082820000000  0.4686210000000  0.4807390000000 1.0
C      1  0.5161890000000  0.4830580000000  0.4045700000000 1.0
C      1  0.6025380000000  0.4453940000000  0.4976970000000 1.0
C      1  0.4835150000000  0.4478100000000  0.5583670000000 1.0
C      1  0.5660340000000  0.5073900000000  0.4927480000000 1.0
C      1  0.4728440000000  0.4097980000000  0.5310130000000 1.0
C      1  0.4361960000000  0.4323580000000  0.4563080000000 1.0
C      1  0.4977010000000  0.5014620000000  0.6207140000000 1.0
C      1  0.4164720000000  0.5318630000000  0.5346630000000 1.0
C      1  0.4885390000000  0.6026850000000  0.4561470000000 1.0
C      1  0.5140360000000  0.4556370000000  0.4363900000000 1.0
C      1  0.5175590000000  0.5122980000000  0.5533520000000 1.0
C      1  0.5291360000000  0.5708350000000  0.5174300000000 1.0
C      1  0.5086220000000  0.4596730000000  0.4785110000000 1.0
C      1  0.5658900000000  0.5363560000000  0.5105850000000 1.0
C      1  0.4484430000000  0.4715480000000  0.5696480000000 1.0
C      1  0.5715200000000  0.5685530000000  0.5132410000000 1.0
C      1  0.5246420000000  0.4544480000000  0.5867140000000 1.0
C      1  0.4620780000000  0.5649370000000  0.5541420000000 1.0
C      1  0.3988270000000  0.4492180000000  0.5221770000000 1.0
C      1  0.4348190000000  0.5001550000000  0.5617780000000 1.0
C      1  0.4386570000000  0.5152350000000  0.4244520000000 1.0
C      1  0.5482680000000  0.4513140000000  0.5197090000000 1.0
C      1  0.4278090000000  0.4377310000000  0.4837010000000 1.0
C      1  0.5190470000000  0.4574400000000  0.3968510000000 1.0
C      1  0.4106540000000  0.5003720000000  0.5435450000000 1.0
C      1  0.4882410000000  0.4809340000000  0.5648190000000 1.0
C      1  0.5231670000000  0.5293290000000  0.4005200000000 1.0
C      1  0.4698150000000  0.5057890000000  0.4139710000000 1.0
C      1  0.5807960000000  0.4303020000000  0.4883680000000 1.0
C      1  0.5757130000000  0.5376890000000  0.5640980000000 1.0
C      1  0.5105330000000  0.4228420000000  0.5296720000000 1.0
C      1  0.5773670000000  0.5435060000000  0.4290870000000 1.0
C      1  0.4333530000000  0.4383970000000  0.5392210000000 1.0
C      1  0.5023460000000  0.5877010000000  0.5268490000000 1.0
C      1  0.4921790000000  0.5283230000000  0.4017920000000 1.0
C      1  0.5087780000000  0.4568230000000  0.5289290000000 1.0
C      1  0.3982820000000  0.5117310000000  0.5133030000000 1.0
C      1  0.4949790000000  0.3996130000000  0.5103040000000 1.0
C      1  0.5507860000000  0.4551780000000  0.4210560000000 1.0
C      1  0.5120000000000  0.5387150000000  0.5484280000000 1.0
C      1  0.5260710000000  0.4718700000000  0.5038060000000 1.0
C      1  0.4894880000000  0.5389220000000  0.5268470000000 1.0
C      1  0.4229160000000  0.5775080000000  0.4896330000000 1.0
C      1  0.4733520000000  0.4997780000000  0.6074730000000 1.0
C      1  0.5273400000000  0.5685610000000  0.4610820000000 1.0
C      1  0.4561860000000  0.5952480000000  0.5121380000000 1.0
C      1  0.5505100000000  0.4890510000000  0.4241810000000 1.0
C      1  0.5701590000000  0.4100600000000  0.5063500000000 1.0
C      1  0.5235380000000  0.5514280000000  0.4902860000000 1.0
C      1  0.5281340000000  0.4521430000000  0.5542300000000 1.0
C      1  0.5544610000000  0.5154760000000  0.5994790000000 1.0
C      1  0.4653740000000  0.4728620000000  0.5961610000000 1.0
C      1  0.4685570000000  0.5048100000000  0.5611820000000 1.0
C      1  0.4446130000000  0.4701200000000  0.5358590000000 1.0
C      1  0.5513010000000  0.5936100000000  0.5083570000000 1.0
C      1  0.4119720000000  0.5203480000000  0.4468730000000 1.0
C      1  0.5363130000000  0.5550360000000  0.5831800000000 1.0
C      1  0.4114440000000  0.4920700000000  0.4652140000000 1.0
C      1  0.5690180000000  0.4949760000000  0.5863340000000 1.0
C      1  0.5242660000000  0.4356290000000  0.4608380000000 1.0
C      1  0.4453830000000  0.5735320000000  0.4465150000000 1.0
C      1  0.4180950000000  0.4272580000000  0.5122740000000 1.0
C      1  0.5901310000000  0.4699090000000  0.4435500000000 1.0
C      1  0.4621930000000  0.4270450000000  0.4439950000000 1.0
C      1  0.4660170000000  0.4969760000000  0.4949400000000 1.0
C      1  0.5073350000000  0.4108600000000  0.4346850000000 1.0
C      1  0.4172380000000  0.5867250000000  0.5144500000000 1.0
C      1  0.5221980000000  0.5119080000000  0.6031070000000 1.0
C      1  0.5631560000000  0.5520300000000  0.5411690000000 1.0
C      1  0.4725770000000  0.5687350000000  0.4277000000000 1.0
C      1  0.4733220000000  0.5301600000000  0.4895850000000 1.0
C      1  0.4976180000000  0.5923670000000  0.4933620000000 1.0
C      1  0.4913660000000  0.4269080000000  0.4600680000000 1.0
C      1  0.4465830000000  0.5326930000000  0.4719690000000 1.0
C      1  0.4685290000000  0.5246130000000  0.5887130000000 1.0
C      1  0.4296140000000  0.4561800000000  0.4377090000000 1.0
C      1  0.4845470000000  0.5610550000000  0.4910980000000 1.0
C      1  0.4068030000000  0.5189810000000  0.4815650000000 1.0
C      1  0.5116680000000  0.4982750000000  0.5297170000000 1.0
C      1  0.5446400000000  0.5058440000000  0.4663520000000 1.0
C      1  0.4337930000000  0.5291220000000  0.5090990000000 1.0
C      1  0.4694410000000  0.4744160000000  0.4117330000000 1.0
C      1  0.4302290000000  0.5466640000000  0.4472300000000 1.0
C      1  0.4856880000000  0.4880610000000  0.5195640000000 1.0
C      1  0.4847820000000  0.4594170000000  0.4377130000000 1.0
C      1  0.5164710000000  0.5254840000000  0.5111030000000 1.0
C      1  0.5365050000000  0.4298050000000  0.4982020000000 1.0
C      1  0.5605970000000  0.5828950000000  0.4777710000000 1.0
C      1  0.5566940000000  0.4757500000000  0.4895400000000 1.0
C      1  0.5280760000000  0.5919570000000  0.4835810000000 1.0
C      1  0.4672660000000  0.6041340000000  0.4829940000000 1.0
C      1  0.5069560000000  0.5835400000000  0.5602850000000 1.0
C      1  0.4388400000000  0.5799670000000  0.5367220000000 1.0
C      1  0.5146190000000  0.5421540000000  0.5961470000000 1.0
C      1  0.4601200000000  0.4646260000000  0.4862220000000 1.0
C      1  0.5685570000000  0.4511110000000  0.4444660000000 1.0
C      1  0.5473480000000  0.3987070000000  0.4897370000000 1.0
C      1  0.4519720000000  0.4249280000000  0.5140840000000 1.0
C      1  0.5970430000000  0.5130120000000  0.5025320000000 1.0
C      1  0.4590840000000  0.5044700000000  0.4626150000000 1.0
C      1  0.6018390000000  0.5079280000000  0.5294230000000 1.0
C      1  0.4759460000000  0.4624080000000  0.5317010000000 1.0
C      1  0.4443770000000  0.5004910000000  0.5205490000000 1.0
C      1  0.5070070000000  0.6151110000000  0.5464250000000 1.0
C      1  0.5302060000000  0.5134000000000  0.4365010000000 1.0
C      1  0.4745350000000  0.5685840000000  0.5227150000000 1.0
C      1  0.4400690000000  0.5291020000000  0.5748190000000 1.0
C      1  0.4219620000000  0.4298050000000  0.5655200000000 1.0
C      1  0.4046310000000  0.4788470000000  0.5191870000000 1.0
C      1  0.4305060000000  0.5518670000000  0.5539670000000 1.0
C      1  0.5818050000000  0.4962160000000  0.4344510000000 1.0
C      1  0.5365270000000  0.4757130000000  0.4521700000000 1.0
C      1  0.4609950000000  0.5385070000000  0.4352080000000 1.0
C      1  0.5587880000000  0.4222710000000  0.5303850000000 1.0
C      1  0.5587250000000  0.4946310000000  0.5410710000000 1.0
C      1  0.5923450000000  0.5310620000000  0.4742870000000 1.0
C      1  0.4714270000000  0.5158440000000  0.5320880000000 1.0
END
