TITL C-2848497-6229-203 6.8048450696629e-06 125000 -234.189387802322 0 0 42 (C1) n - 1
REM
REM in /home/bkarasulu/work/CARBON/AIRSS/Generating-Clusters/AIREBO/with-SteepDescent/Only-C1/SD-CG-opt/Try1-1.4A-POS3A/HFTN-CG
REM
REM
REM
REM
REM
REM ./C.cell (11c1c37f851c82e70ff6c80c92926a4b)
REM
REM compiler GCC version 9.2.1 20190827 (Red Hat 9.2.1-1)
REM options -cpp -mtune=generic -march=x86-64 -g -O0 -fpre-include=/usr/include/finclude/math-vector-fortran.h
REM seed -1902875505 1929085090 376665334 -114518070 491241544 -1494290670 1670297732 -563739471 -220330080 -9323044 1623744331 1378478082 -703739874 1641267689 -1055996455 1014423290 1850023687 -169382371 820169193 -85088251 -683859025 -2010620995 80666407 -1236008593 -356865712 1452446290 981556917 -1054245733 2035224242 698344176 -1657845192 -397820519 -501749908
REM
CELL 1.54180   50.00000   50.00000   50.00000   90.00000   90.00000   90.00000
LATT -1
SFAC C  
C      1  0.4637370000000  0.5341200000000  0.4838860000000 1.0
C      1  0.4691550000000  0.4464090000000  0.4851990000000 1.0
C      1  0.4732470000000  0.4485740000000  0.5136040000000 1.0
C      1  0.4375140000000  0.4882580000000  0.5095790000000 1.0
C      1  0.5176810000000  0.4210300000000  0.5121670000000 1.0
C      1  0.5482550000000  0.4863280000000  0.4825780000000 1.0
C      1  0.4696010000000  0.5392940000000  0.5448790000000 1.0
C      1  0.5338370000000  0.4610000000000  0.4836440000000 1.0
C      1  0.4849320000000  0.4850030000000  0.4605190000000 1.0
C      1  0.5523880000000  0.4787590000000  0.5559110000000 1.0
C      1  0.5162250000000  0.5117950000000  0.4327620000000 1.0
C      1  0.4403460000000  0.4874040000000  0.4813260000000 1.0
C      1  0.4578050000000  0.5430580000000  0.5140600000000 1.0
C      1  0.4820160000000  0.5152330000000  0.5526800000000 1.0
C      1  0.5947720000000  0.4956220000000  0.4929280000000 1.0
C      1  0.5617880000000  0.4872050000000  0.5271160000000 1.0
C      1  0.5098090000000  0.5102890000000  0.5337080000000 1.0
C      1  0.5090240000000  0.5529150000000  0.5065450000000 1.0
C      1  0.5188750000000  0.5270680000000  0.5062570000000 1.0
C      1  0.4677230000000  0.4915070000000  0.5540980000000 1.0
C      1  0.5179980000000  0.4348680000000  0.4844780000000 1.0
C      1  0.5287160000000  0.5120070000000  0.4801830000000 1.0
C      1  0.5230410000000  0.5360320000000  0.5513020000000 1.0
C      1  0.5065820000000  0.4897990000000  0.4858700000000 1.0
C      1  0.4603970000000  0.4698660000000  0.4721310000000 1.0
C      1  0.5698020000000  0.4896220000000  0.5008790000000 1.0
C      1  0.5137260000000  0.5595030000000  0.5457170000000 1.0
C      1  0.5088750000000  0.5527950000000  0.4586620000000 1.0
C      1  0.4870810000000  0.5606640000000  0.5283880000000 1.0
C      1  0.4538240000000  0.5120640000000  0.5203710000000 1.0
C      1  0.5287340000000  0.4856830000000  0.5324490000000 1.0
C      1  0.4830150000000  0.4978190000000  0.5168830000000 1.0
C      1  0.4772250000000  0.5059050000000  0.4857760000000 1.0
C      1  0.5006100000000  0.4452880000000  0.5189310000000 1.0
C      1  0.4411810000000  0.5139950000000  0.4704940000000 1.0
C      1  0.4915570000000  0.4329520000000  0.4724920000000 1.0
C      1  0.4814660000000  0.5515310000000  0.4655510000000 1.0
C      1  0.4619200000000  0.4735450000000  0.5267600000000 1.0
C      1  0.5222240000000  0.5277210000000  0.4552080000000 1.0
C      1  0.5204660000000  0.5756330000000  0.4501360000000 1.0
C      1  0.5159820000000  0.4695080000000  0.5103080000000 1.0
C      1  0.4968490000000  0.4923300000000  0.4335870000000 1.0
END
