TITL C-2847949-8115-501 1.23487545037093e-05 125000 -788.951583390443 0 0 146 (C1) n - 1
REM
REM in /home/bkarasulu/work/CARBON/AIRSS/Generating-Clusters/AIREBO/with-SteepDescent/Only-C1/SD-CG-opt/Try1-1.4A-POS3A/HFTN-CG
REM
REM
REM
REM
REM
REM ./C.cell (11c1c37f851c82e70ff6c80c92926a4b)
REM
REM compiler GCC version 9.2.1 20190827 (Red Hat 9.2.1-1)
REM options -cpp -mtune=generic -march=x86-64 -g -O0 -fpre-include=/usr/include/finclude/math-vector-fortran.h
REM seed -1662926840 -1218237760 -520534793 -1089806912 -588549115 -1174029346 -1440378735 -80286337 675025049 -1669767383 -714718972 -1991155250 -1728966079 2053893846 1820327680 1808728739 87505084 -1199509038 -332661218 -1463512733 1907841148 126385393 -659177377 1115268725 -411475255 -1507690244 1322834998 -1179899468 -2143680733 -1031665930 614504623 2025158561 -1323038928
REM
CELL 1.54180   50.00000   50.00000   50.00000   90.00000   90.00000   90.00000
LATT -1
SFAC C  
C      1  0.4320660000000  0.5092150000000  0.5674740000000 1.0
C      1  0.5350890000000  0.4800320000000  0.5606970000000 1.0
C      1  0.5063160000000  0.4299540000000  0.4250280000000 1.0
C      1  0.5292030000000  0.4637130000000  0.4823540000000 1.0
C      1  0.5376730000000  0.5723900000000  0.4807160000000 1.0
C      1  0.5128420000000  0.5198880000000  0.4987930000000 1.0
C      1  0.5199220000000  0.4962370000000  0.4786550000000 1.0
C      1  0.5026440000000  0.5764350000000  0.5267060000000 1.0
C      1  0.4056620000000  0.5416900000000  0.5154370000000 1.0
C      1  0.4908830000000  0.5444910000000  0.5268770000000 1.0
C      1  0.4813940000000  0.4267440000000  0.4768820000000 1.0
C      1  0.5841510000000  0.5394130000000  0.5097580000000 1.0
C      1  0.4482360000000  0.4521090000000  0.5552810000000 1.0
C      1  0.4848700000000  0.4880090000000  0.5450180000000 1.0
C      1  0.5068850000000  0.5247630000000  0.5498800000000 1.0
C      1  0.6011840000000  0.5105100000000  0.5039930000000 1.0
C      1  0.5213660000000  0.5934700000000  0.5716260000000 1.0
C      1  0.5789980000000  0.4376730000000  0.4846740000000 1.0
C      1  0.5108800000000  0.5326380000000  0.4520730000000 1.0
C      1  0.4698070000000  0.4409290000000  0.5123930000000 1.0
C      1  0.5027040000000  0.5781780000000  0.4205580000000 1.0
C      1  0.5345180000000  0.4157120000000  0.5165020000000 1.0
C      1  0.5463070000000  0.4526120000000  0.4545590000000 1.0
C      1  0.4756530000000  0.4063950000000  0.5503740000000 1.0
C      1  0.5727210000000  0.4965200000000  0.5282620000000 1.0
C      1  0.4343200000000  0.5717690000000  0.5522210000000 1.0
C      1  0.5317540000000  0.5901020000000  0.5156310000000 1.0
C      1  0.5195220000000  0.5515400000000  0.4322220000000 1.0
C      1  0.4169090000000  0.4702600000000  0.4733090000000 1.0
C      1  0.4882420000000  0.3984410000000  0.5251500000000 1.0
C      1  0.5208160000000  0.4798900000000  0.5298300000000 1.0
C      1  0.4799250000000  0.5284510000000  0.4989300000000 1.0
C      1  0.4603860000000  0.4928150000000  0.5904300000000 1.0
C      1  0.4646900000000  0.5435590000000  0.4407810000000 1.0
C      1  0.4617320000000  0.4601100000000  0.4409450000000 1.0
C      1  0.4262240000000  0.4725930000000  0.5119530000000 1.0
C      1  0.4272700000000  0.5803430000000  0.4963270000000 1.0
C      1  0.4188510000000  0.4326170000000  0.5125510000000 1.0
C      1  0.5757750000000  0.4701240000000  0.4748890000000 1.0
C      1  0.4640390000000  0.4604010000000  0.5825390000000 1.0
C      1  0.5576240000000  0.4742590000000  0.5854990000000 1.0
C      1  0.5071640000000  0.4436450000000  0.5584590000000 1.0
C      1  0.4786190000000  0.4132930000000  0.5043870000000 1.0
C      1  0.5186580000000  0.4402470000000  0.5280450000000 1.0
C      1  0.5525540000000  0.5015290000000  0.4828600000000 1.0
C      1  0.4865610000000  0.4070940000000  0.4327800000000 1.0
C      1  0.5165360000000  0.5609150000000  0.5801730000000 1.0
C      1  0.5205260000000  0.5078120000000  0.5735630000000 1.0
C      1  0.4349390000000  0.5580270000000  0.5211170000000 1.0
C      1  0.5839970000000  0.5670530000000  0.4956080000000 1.0
C      1  0.5495410000000  0.5583260000000  0.5694760000000 1.0
C      1  0.5259990000000  0.4841790000000  0.4410040000000 1.0
C      1  0.4355310000000  0.4767790000000  0.4292030000000 1.0
C      1  0.4497950000000  0.4211950000000  0.5492850000000 1.0
C      1  0.5824890000000  0.5549570000000  0.5620350000000 1.0
C      1  0.4759800000000  0.4805410000000  0.4000850000000 1.0
C      1  0.5633070000000  0.4816140000000  0.5043620000000 1.0
C      1  0.5971140000000  0.5114790000000  0.5351300000000 1.0
C      1  0.4756470000000  0.5087550000000  0.5701960000000 1.0
C      1  0.5190770000000  0.5510060000000  0.4959120000000 1.0
C      1  0.4862620000000  0.4560470000000  0.4177460000000 1.0
C      1  0.5689790000000  0.5248700000000  0.4852300000000 1.0
C      1  0.4387880000000  0.5395620000000  0.4709520000000 1.0
C      1  0.5980690000000  0.5310310000000  0.5552170000000 1.0
C      1  0.4549130000000  0.5144080000000  0.5438420000000 1.0
C      1  0.4601120000000  0.5439120000000  0.5391220000000 1.0
C      1  0.5744980000000  0.4619430000000  0.4439940000000 1.0
C      1  0.4737330000000  0.4585840000000  0.4721600000000 1.0
C      1  0.3734950000000  0.4544190000000  0.4969980000000 1.0
C      1  0.5504590000000  0.4210290000000  0.4929650000000 1.0
C      1  0.4626270000000  0.5575640000000  0.5020020000000 1.0
C      1  0.4419910000000  0.4473250000000  0.4939340000000 1.0
C      1  0.4927570000000  0.4611350000000  0.5257070000000 1.0
C      1  0.5852460000000  0.4372450000000  0.5394860000000 1.0
C      1  0.5051340000000  0.5269540000000  0.4042800000000 1.0
C      1  0.4993990000000  0.5021290000000  0.4521840000000 1.0
C      1  0.5408490000000  0.5565250000000  0.5214760000000 1.0
C      1  0.4521210000000  0.5127460000000  0.4871430000000 1.0
C      1  0.4691890000000  0.4124380000000  0.4529300000000 1.0
C      1  0.5357660000000  0.4232430000000  0.4404020000000 1.0
C      1  0.4345590000000  0.4762720000000  0.5757560000000 1.0
C      1  0.5547480000000  0.5268180000000  0.5635140000000 1.0
C      1  0.5573910000000  0.5395450000000  0.4283580000000 1.0
C      1  0.4831040000000  0.5366990000000  0.4655880000000 1.0
C      1  0.4916680000000  0.5378980000000  0.5773110000000 1.0
C      1  0.5527920000000  0.4919010000000  0.4534630000000 1.0
C      1  0.4678820000000  0.5783470000000  0.4619890000000 1.0
C      1  0.5062140000000  0.4836860000000  0.5879670000000 1.0
C      1  0.4804440000000  0.4996130000000  0.5169460000000 1.0
C      1  0.6008700000000  0.4857790000000  0.4918740000000 1.0
C      1  0.4421250000000  0.5719830000000  0.4709800000000 1.0
C      1  0.5146180000000  0.4962590000000  0.3930960000000 1.0
C      1  0.5270420000000  0.5818730000000  0.4434850000000 1.0
C      1  0.5090410000000  0.4386130000000  0.4733560000000 1.0
C      1  0.4581920000000  0.5860370000000  0.5368810000000 1.0
C      1  0.5426470000000  0.4595580000000  0.5135150000000 1.0
C      1  0.4353200000000  0.5430780000000  0.5704450000000 1.0
C      1  0.5134190000000  0.4552020000000  0.4466640000000 1.0
C      1  0.4903070000000  0.5646430000000  0.4835700000000 1.0
C      1  0.5692330000000  0.5656420000000  0.4690790000000 1.0
C      1  0.5557160000000  0.5635800000000  0.4438190000000 1.0
C      1  0.5936730000000  0.4629550000000  0.4158920000000 1.0
C      1  0.4122480000000  0.5139060000000  0.4561770000000 1.0
C      1  0.5336410000000  0.4186390000000  0.4709940000000 1.0
C      1  0.5602000000000  0.5855840000000  0.5020740000000 1.0
C      1  0.4376990000000  0.5031240000000  0.4216080000000 1.0
C      1  0.4934240000000  0.5966660000000  0.4937190000000 1.0
C      1  0.4951500000000  0.4155730000000  0.5685700000000 1.0
C      1  0.4431830000000  0.4199300000000  0.4493920000000 1.0
C      1  0.5161360000000  0.5943390000000  0.4724580000000 1.0
C      1  0.5133330000000  0.4760080000000  0.4126220000000 1.0
C      1  0.3699670000000  0.5177720000000  0.5370820000000 1.0
C      1  0.5102260000000  0.5301440000000  0.6047360000000 1.0
C      1  0.5252330000000  0.5682770000000  0.5481340000000 1.0
C      1  0.4587620000000  0.5060250000000  0.4044250000000 1.0
C      1  0.4127760000000  0.5521080000000  0.4884730000000 1.0
C      1  0.5654430000000  0.5427440000000  0.5352650000000 1.0
C      1  0.5168160000000  0.3932560000000  0.5230300000000 1.0
C      1  0.5674790000000  0.5140840000000  0.4350160000000 1.0
C      1  0.5261480000000  0.4252530000000  0.5784310000000 1.0
C      1  0.4368540000000  0.4487270000000  0.4611640000000 1.0
C      1  0.4723430000000  0.5754540000000  0.4318300000000 1.0
C      1  0.5215640000000  0.5111060000000  0.5254700000000 1.0
C      1  0.4165150000000  0.5055550000000  0.5394540000000 1.0
C      1  0.5939760000000  0.4201220000000  0.4673690000000 1.0
C      1  0.5496640000000  0.5049120000000  0.5435820000000 1.0
C      1  0.4800170000000  0.5975030000000  0.5224900000000 1.0
C      1  0.4873820000000  0.5053920000000  0.4205430000000 1.0
C      1  0.3958000000000  0.5215900000000  0.5309770000000 1.0
C      1  0.4676180000000  0.4780770000000  0.4995140000000 1.0
C      1  0.5800270000000  0.4896070000000  0.4257110000000 1.0
C      1  0.4655380000000  0.5542430000000  0.5695400000000 1.0
C      1  0.4405310000000  0.5015490000000  0.5170820000000 1.0
C      1  0.4275790000000  0.4160090000000  0.5318500000000 1.0
C      1  0.4918480000000  0.4669250000000  0.5694100000000 1.0
C      1  0.5357970000000  0.5382110000000  0.4074480000000 1.0
C      1  0.5388600000000  0.5258390000000  0.5935660000000 1.0
C      1  0.4844270000000  0.5495810000000  0.4133760000000 1.0
C      1  0.4733450000000  0.4925130000000  0.4699040000000 1.0
C      1  0.4007320000000  0.4569540000000  0.4975020000000 1.0
C      1  0.4532580000000  0.4652350000000  0.5275870000000 1.0
C      1  0.4241300000000  0.4976290000000  0.4750910000000 1.0
C      1  0.6026680000000  0.4563960000000  0.5003880000000 1.0
C      1  0.4356570000000  0.5286280000000  0.4389300000000 1.0
C      1  0.5605370000000  0.4460100000000  0.5391510000000 1.0
C      1  0.5459940000000  0.4482740000000  0.5660870000000 1.0
END
