TITL C-2847945-6269-102 -0.000239659753820496 125000 -141.863281232269 0 0 26 (C1) n - 1
REM
REM in /home/bkarasulu/work/CARBON/AIRSS/Generating-Clusters/AIREBO/with-SteepDescent/Only-C1/SD-CG-opt/Try1-1.4A-POS3A/HFTN-CG
REM
REM
REM
REM
REM
REM ./C.cell (11c1c37f851c82e70ff6c80c92926a4b)
REM
REM compiler GCC version 9.2.1 20190827 (Red Hat 9.2.1-1)
REM options -cpp -mtune=generic -march=x86-64 -g -O0 -fpre-include=/usr/include/finclude/math-vector-fortran.h
REM seed -156724021 -1953764832 -466058852 -70234537 476034352 1360344157 -502462433 -575197488 -558609968 1933334593 -467211238 1217650483 661522523 759841930 -1729649791 1289068583 1389994676 1543827349 -540696159 1022958372 -923623511 -640333580 -230016218 -446540197 -1416326830 1791134687 -9077614 1995782893 -811147608 964329319 -102113669 -1219591656 -1420221043
REM
CELL 1.54180   50.00000   50.00000   50.00000   90.00000   90.00000   90.00000
LATT -1
SFAC C  
C      1  0.4687460000000  0.4941890000000  0.5671010000000 1.0
C      1  0.4684760000000  0.4920040000000  0.5156540000000 1.0
C      1  0.5458180000000  0.5065400000000  0.4780870000000 1.0
C      1  0.5179400000000  0.4352340000000  0.5000520000000 1.0
C      1  0.5225590000000  0.4902390000000  0.4382020000000 1.0
C      1  0.5228870000000  0.5023950000000  0.4631450000000 1.0
C      1  0.5200290000000  0.4577910000000  0.5230610000000 1.0
C      1  0.4980600000000  0.5372570000000  0.4949030000000 1.0
C      1  0.4729350000000  0.5190870000000  0.4543810000000 1.0
C      1  0.4679090000000  0.5400380000000  0.5067450000000 1.0
C      1  0.4872740000000  0.4864820000000  0.4954620000000 1.0
C      1  0.5043420000000  0.4980840000000  0.4198340000000 1.0
C      1  0.4710840000000  0.5394480000000  0.4750750000000 1.0
C      1  0.5187390000000  0.5421060000000  0.5161080000000 1.0
C      1  0.5404140000000  0.4707010000000  0.4327020000000 1.0
C      1  0.5198280000000  0.4757150000000  0.5439750000000 1.0
C      1  0.5103480000000  0.5023490000000  0.5428070000000 1.0
C      1  0.5546390000000  0.5127010000000  0.5261570000000 1.0
C      1  0.4965680000000  0.5087400000000  0.4767690000000 1.0
C      1  0.5606380000000  0.5039420000000  0.5007200000000 1.0
C      1  0.5015340000000  0.4632560000000  0.4974640000000 1.0
C      1  0.4798020000000  0.5039740000000  0.5432000000000 1.0
C      1  0.4635100000000  0.5288810000000  0.5302820000000 1.0
C      1  0.4414580000000  0.4872890000000  0.5134340000000 1.0
C      1  0.4161890000000  0.4804280000000  0.5122490000000 1.0
C      1  0.5282730000000  0.5211310000000  0.5324320000000 1.0
END
