TITL C-2847952-8118-345 -0.000265751543888869 125000 -689.474523619914 0 0 134 (C1) n - 1
REM
REM in /home/bkarasulu/work/CARBON/AIRSS/Generating-Clusters/AIREBO/with-SteepDescent/Only-C1/SD-CG-opt/Try1-1.4A-POS3A/HFTN-CG
REM
REM
REM
REM
REM
REM ./C.cell (11c1c37f851c82e70ff6c80c92926a4b)
REM
REM compiler GCC version 9.2.1 20190827 (Red Hat 9.2.1-1)
REM options -cpp -mtune=generic -march=x86-64 -g -O0 -fpre-include=/usr/include/finclude/math-vector-fortran.h
REM seed 7249453 1220365853 -341169647 1630021150 -1451339620 1796021121 -1538870100 612779454 -966782693 -624094672 2088488153 114425211 -647243212 -1529573393 -2089144650 113304180 1266206242 -195527662 1476388407 -807058215 -1897700509 1424847215 855157558 -748407836 -410952694 1094437424 1723655294 -1519235228 1467747854 1050283129 -1018346662 -1108482302 1721703781
REM
CELL 1.54180   50.00000   50.00000   50.00000   90.00000   90.00000   90.00000
LATT -1
SFAC C  
C      1  0.4756750000000  0.4515520000000  0.5786670000000 1.0
C      1  0.5287870000000  0.4711420000000  0.5320200000000 1.0
C      1  0.4530740000000  0.4986430000000  0.5062460000000 1.0
C      1  0.4963270000000  0.5087380000000  0.4008210000000 1.0
C      1  0.4484860000000  0.5120290000000  0.4099730000000 1.0
C      1  0.4658580000000  0.4568380000000  0.5291490000000 1.0
C      1  0.5350640000000  0.5684160000000  0.4414630000000 1.0
C      1  0.4993220000000  0.4701950000000  0.4440280000000 1.0
C      1  0.4859850000000  0.5589760000000  0.5697160000000 1.0
C      1  0.5311870000000  0.4357840000000  0.4988710000000 1.0
C      1  0.5191560000000  0.5097870000000  0.4238890000000 1.0
C      1  0.6020720000000  0.5353890000000  0.5357960000000 1.0
C      1  0.4564470000000  0.4804070000000  0.4328260000000 1.0
C      1  0.4913580000000  0.4018380000000  0.4874910000000 1.0
C      1  0.4290950000000  0.4803870000000  0.5509530000000 1.0
C      1  0.5272510000000  0.4398260000000  0.4489690000000 1.0
C      1  0.5159610000000  0.5434760000000  0.4273450000000 1.0
C      1  0.4736700000000  0.4618510000000  0.4735050000000 1.0
C      1  0.5558530000000  0.5327220000000  0.5661820000000 1.0
C      1  0.5470220000000  0.5438590000000  0.5366710000000 1.0
C      1  0.5373570000000  0.4302280000000  0.5497110000000 1.0
C      1  0.5765970000000  0.4388230000000  0.5107300000000 1.0
C      1  0.4962030000000  0.4943230000000  0.5303930000000 1.0
C      1  0.4394300000000  0.4175450000000  0.5165890000000 1.0
C      1  0.4410010000000  0.5496360000000  0.4605250000000 1.0
C      1  0.4657950000000  0.4108570000000  0.5369950000000 1.0
C      1  0.5250900000000  0.4179810000000  0.5220230000000 1.0
C      1  0.4680550000000  0.5121460000000  0.5345280000000 1.0
C      1  0.5300440000000  0.4638610000000  0.4704730000000 1.0
C      1  0.4870060000000  0.5268160000000  0.5586820000000 1.0
C      1  0.4741970000000  0.5730430000000  0.5279490000000 1.0
C      1  0.5172380000000  0.5265530000000  0.5738340000000 1.0
C      1  0.4548750000000  0.5301860000000  0.5991200000000 1.0
C      1  0.5028020000000  0.5822730000000  0.5542630000000 1.0
C      1  0.4699960000000  0.5065680000000  0.4489920000000 1.0
C      1  0.4913130000000  0.5379370000000  0.4615470000000 1.0
C      1  0.5072200000000  0.5771130000000  0.5209280000000 1.0
C      1  0.4029700000000  0.5002750000000  0.5455540000000 1.0
C      1  0.5047610000000  0.5293290000000  0.5049230000000 1.0
C      1  0.5250860000000  0.5417390000000  0.4600590000000 1.0
C      1  0.5732720000000  0.4232250000000  0.4810970000000 1.0
C      1  0.5032990000000  0.4515870000000  0.4875120000000 1.0
C      1  0.4579350000000  0.4880210000000  0.4743130000000 1.0
C      1  0.5078650000000  0.4591670000000  0.5865430000000 1.0
C      1  0.5132720000000  0.4920170000000  0.5934660000000 1.0
C      1  0.5452070000000  0.5225740000000  0.4061580000000 1.0
C      1  0.5792100000000  0.5322450000000  0.4903030000000 1.0
C      1  0.5461230000000  0.4916180000000  0.4723280000000 1.0
C      1  0.5688960000000  0.5223020000000  0.4147970000000 1.0
C      1  0.4267580000000  0.5250040000000  0.4738930000000 1.0
C      1  0.4641060000000  0.4168030000000  0.4971090000000 1.0
C      1  0.4861010000000  0.4707990000000  0.5526420000000 1.0
C      1  0.6001540000000  0.4830500000000  0.5034750000000 1.0
C      1  0.5281560000000  0.5866140000000  0.4693420000000 1.0
C      1  0.5639130000000  0.4214260000000  0.5337010000000 1.0
C      1  0.5211510000000  0.5140260000000  0.5424560000000 1.0
C      1  0.4953160000000  0.4079260000000  0.5203840000000 1.0
C      1  0.4976340000000  0.5754080000000  0.4759980000000 1.0
C      1  0.4532460000000  0.5851670000000  0.5512760000000 1.0
C      1  0.5420150000000  0.5090650000000  0.5868410000000 1.0
C      1  0.5933400000000  0.4658320000000  0.4783660000000 1.0
C      1  0.4513150000000  0.5297910000000  0.4969260000000 1.0
C      1  0.4343930000000  0.5717500000000  0.5269600000000 1.0
C      1  0.5220350000000  0.4860460000000  0.5613280000000 1.0
C      1  0.5639040000000  0.4997860000000  0.5636150000000 1.0
C      1  0.4643400000000  0.4405440000000  0.4193990000000 1.0
C      1  0.6015580000000  0.5159360000000  0.4616180000000 1.0
C      1  0.5065620000000  0.4222970000000  0.4705360000000 1.0
C      1  0.5187380000000  0.4541590000000  0.4211830000000 1.0
C      1  0.4637260000000  0.5441420000000  0.5238730000000 1.0
C      1  0.5198040000000  0.5538610000000  0.4902700000000 1.0
C      1  0.5463470000000  0.4240810000000  0.4724130000000 1.0
C      1  0.4223860000000  0.4559060000000  0.4851060000000 1.0
C      1  0.5813080000000  0.5268100000000  0.5224450000000 1.0
C      1  0.4559180000000  0.5512700000000  0.5558090000000 1.0
C      1  0.5238520000000  0.5959270000000  0.4979940000000 1.0
C      1  0.4270000000000  0.5423280000000  0.5424270000000 1.0
C      1  0.4859840000000  0.4610500000000  0.4141520000000 1.0
C      1  0.4716020000000  0.4879510000000  0.4033400000000 1.0
C      1  0.5371690000000  0.4565880000000  0.5690470000000 1.0
C      1  0.5389750000000  0.5115320000000  0.4958310000000 1.0
C      1  0.5119580000000  0.5514910000000  0.5907500000000 1.0
C      1  0.5013160000000  0.5005930000000  0.4516360000000 1.0
C      1  0.4747230000000  0.4166140000000  0.4312030000000 1.0
C      1  0.4555880000000  0.4360440000000  0.4756360000000 1.0
C      1  0.4269350000000  0.4843230000000  0.5178230000000 1.0
C      1  0.5096050000000  0.5037760000000  0.4829950000000 1.0
C      1  0.4816750000000  0.5322140000000  0.4855080000000 1.0
C      1  0.4573280000000  0.5110070000000  0.5802130000000 1.0
C      1  0.5577420000000  0.5326680000000  0.4639180000000 1.0
C      1  0.5772820000000  0.4941280000000  0.4726550000000 1.0
C      1  0.4081010000000  0.5211150000000  0.5283650000000 1.0
C      1  0.5733600000000  0.5105050000000  0.4433890000000 1.0
C      1  0.5576500000000  0.5748130000000  0.5014260000000 1.0
C      1  0.5504880000000  0.4849580000000  0.5109850000000 1.0
C      1  0.4346820000000  0.4512280000000  0.5167690000000 1.0
C      1  0.5142580000000  0.5453970000000  0.5309810000000 1.0
C      1  0.4658080000000  0.5553680000000  0.5968480000000 1.0
C      1  0.5838320000000  0.4676450000000  0.5245970000000 1.0
C      1  0.4846610000000  0.5751520000000  0.4488370000000 1.0
C      1  0.4328560000000  0.4440570000000  0.4590210000000 1.0
C      1  0.5368460000000  0.4806640000000  0.4219610000000 1.0
C      1  0.4874900000000  0.4394370000000  0.4519950000000 1.0
C      1  0.6053310000000  0.5109080000000  0.4949960000000 1.0
C      1  0.5613960000000  0.4791600000000  0.4377630000000 1.0
C      1  0.4255280000000  0.5508490000000  0.5038670000000 1.0
C      1  0.4736830000000  0.5276110000000  0.4074560000000 1.0
C      1  0.4836150000000  0.4387740000000  0.5121030000000 1.0
C      1  0.5679860000000  0.4582150000000  0.4592390000000 1.0
C      1  0.5088460000000  0.4795420000000  0.5057620000000 1.0
C      1  0.4082830000000  0.5152780000000  0.5007620000000 1.0
C      1  0.5085120000000  0.4468870000000  0.5433360000000 1.0
C      1  0.4401530000000  0.5124470000000  0.5536430000000 1.0
C      1  0.5339380000000  0.5846760000000  0.5405630000000 1.0
C      1  0.4859460000000  0.4970180000000  0.5743030000000 1.0
C      1  0.4648280000000  0.5389460000000  0.4447340000000 1.0
C      1  0.4434890000000  0.4541760000000  0.4342250000000 1.0
C      1  0.5566310000000  0.5889630000000  0.5244440000000 1.0
C      1  0.4313530000000  0.4999220000000  0.4567160000000 1.0
C      1  0.4492620000000  0.5821910000000  0.4981670000000 1.0
C      1  0.4801420000000  0.5880340000000  0.4986520000000 1.0
C      1  0.4397710000000  0.5732080000000  0.4739790000000 1.0
C      1  0.4193550000000  0.4873550000000  0.4848170000000 1.0
C      1  0.4392480000000  0.4282950000000  0.5491330000000 1.0
C      1  0.5536420000000  0.5107120000000  0.5329640000000 1.0
C      1  0.5590570000000  0.4721470000000  0.5475100000000 1.0
C      1  0.5553810000000  0.5662460000000  0.4690550000000 1.0
C      1  0.4488010000000  0.4579990000000  0.5585420000000 1.0
C      1  0.4857890000000  0.5526340000000  0.4235130000000 1.0
C      1  0.4110480000000  0.4423790000000  0.5395750000000 1.0
C      1  0.5563310000000  0.4579190000000  0.4912050000000 1.0
C      1  0.4834900000000  0.4309330000000  0.5538920000000 1.0
C      1  0.5490950000000  0.5419340000000  0.5027790000000 1.0
C      1  0.4273190000000  0.5067280000000  0.4261210000000 1.0
END
