TITL C-2848501-3133-519 0.00150652016139221 125000 -680.544815823375 0 0 132 (C1) n - 1
REM
REM in /home/bkarasulu/work/CARBON/AIRSS/Generating-Clusters/AIREBO/with-SteepDescent/Only-C1/SD-CG-opt/Try1-1.4A-POS3A/HFTN-CG
REM
REM
REM
REM
REM
REM ./C.cell (11c1c37f851c82e70ff6c80c92926a4b)
REM
REM compiler GCC version 9.2.1 20190827 (Red Hat 9.2.1-1)
REM options -cpp -mtune=generic -march=x86-64 -g -O0 -fpre-include=/usr/include/finclude/math-vector-fortran.h
REM seed -1464633671 -1557806074 -381584872 -1959710620 -746108817 1752757113 1660721037 1851287907 1208292151 -1229273226 1395061730 2097745845 165598851 670425250 1625105466 958675296 1856587624 624232966 2077397486 -80031360 -1188451842 2124654760 -1715879429 -1829347526 1265690126 743400978 1395215783 -1965552985 -1996312480 -1386761529 1987422614 1942103484 -1308825352
REM
CELL 1.54180   50.00000   50.00000   50.00000   90.00000   90.00000   90.00000
LATT -1
SFAC C  
C      1  0.4716450000000  0.5319970000000  0.4663180000000 1.0
C      1  0.4081140000000  0.4716430000000  0.4906650000000 1.0
C      1  0.5695420000000  0.5325890000000  0.5533960000000 1.0
C      1  0.4689740000000  0.5041810000000  0.4129760000000 1.0
C      1  0.4948360000000  0.5170660000000  0.5023560000000 1.0
C      1  0.4507390000000  0.5182270000000  0.4865440000000 1.0
C      1  0.4275920000000  0.4913150000000  0.5104080000000 1.0
C      1  0.5663350000000  0.5682440000000  0.5300210000000 1.0
C      1  0.4161110000000  0.4898390000000  0.5518700000000 1.0
C      1  0.5371660000000  0.5828400000000  0.4800160000000 1.0
C      1  0.4706570000000  0.5130310000000  0.5554460000000 1.0
C      1  0.5832390000000  0.5353500000000  0.4892680000000 1.0
C      1  0.5607110000000  0.4522430000000  0.5405310000000 1.0
C      1  0.4633540000000  0.5649480000000  0.4646350000000 1.0
C      1  0.4566850000000  0.4646810000000  0.5038500000000 1.0
C      1  0.5409960000000  0.4619580000000  0.4932940000000 1.0
C      1  0.4969700000000  0.5094670000000  0.4692780000000 1.0
C      1  0.5527470000000  0.5415870000000  0.4753800000000 1.0
C      1  0.5686340000000  0.4647850000000  0.4155770000000 1.0
C      1  0.4639940000000  0.4545130000000  0.4360140000000 1.0
C      1  0.5175070000000  0.4789010000000  0.5770110000000 1.0
C      1  0.4423760000000  0.5716570000000  0.5120970000000 1.0
C      1  0.5326910000000  0.5267180000000  0.5854280000000 1.0
C      1  0.4901910000000  0.4681980000000  0.5952200000000 1.0
C      1  0.4150580000000  0.5254240000000  0.4286010000000 1.0
C      1  0.5832480000000  0.5395480000000  0.5230660000000 1.0
C      1  0.4442260000000  0.4859100000000  0.4812400000000 1.0
C      1  0.4861080000000  0.5530240000000  0.4873360000000 1.0
C      1  0.5325840000000  0.4306760000000  0.4423310000000 1.0
C      1  0.4987490000000  0.4678040000000  0.4085760000000 1.0
C      1  0.5581370000000  0.5881900000000  0.5037290000000 1.0
C      1  0.5449640000000  0.5273860000000  0.5174250000000 1.0
C      1  0.4811580000000  0.4201980000000  0.5519720000000 1.0
C      1  0.4639410000000  0.5657940000000  0.5701180000000 1.0
C      1  0.4703420000000  0.4454110000000  0.5809130000000 1.0
C      1  0.4413750000000  0.4288010000000  0.5294490000000 1.0
C      1  0.4609150000000  0.5829830000000  0.4934930000000 1.0
C      1  0.4220490000000  0.5502920000000  0.4997340000000 1.0
C      1  0.4936960000000  0.4582400000000  0.5288540000000 1.0
C      1  0.4281530000000  0.5490190000000  0.5415050000000 1.0
C      1  0.4039570000000  0.5323500000000  0.4882110000000 1.0
C      1  0.5295000000000  0.5557490000000  0.5800630000000 1.0
C      1  0.4993830000000  0.4250230000000  0.4376520000000 1.0
C      1  0.5717100000000  0.4956720000000  0.4297210000000 1.0
C      1  0.4042150000000  0.5007870000000  0.4730430000000 1.0
C      1  0.5383000000000  0.5312200000000  0.4199420000000 1.0
C      1  0.5124400000000  0.4890970000000  0.5082010000000 1.0
C      1  0.4348980000000  0.4509410000000  0.4362740000000 1.0
C      1  0.4869830000000  0.5894440000000  0.5037590000000 1.0
C      1  0.4019950000000  0.4986460000000  0.5736890000000 1.0
C      1  0.6001730000000  0.5102530000000  0.5193850000000 1.0
C      1  0.5137530000000  0.5410450000000  0.4084090000000 1.0
C      1  0.5442550000000  0.4602530000000  0.5673790000000 1.0
C      1  0.5543050000000  0.4755090000000  0.5192830000000 1.0
C      1  0.5005910000000  0.4446560000000  0.5654040000000 1.0
C      1  0.4555790000000  0.4105490000000  0.5068140000000 1.0
C      1  0.4454760000000  0.4336830000000  0.5636980000000 1.0
C      1  0.4866300000000  0.5568420000000  0.4163800000000 1.0
C      1  0.4435920000000  0.5073120000000  0.5430160000000 1.0
C      1  0.5098370000000  0.5846670000000  0.5469160000000 1.0
C      1  0.5174140000000  0.5788320000000  0.4533600000000 1.0
C      1  0.5099680000000  0.5512750000000  0.4481100000000 1.0
C      1  0.5584340000000  0.5064230000000  0.5556270000000 1.0
C      1  0.5344850000000  0.4988690000000  0.5326890000000 1.0
C      1  0.4999190000000  0.4001810000000  0.4971470000000 1.0
C      1  0.5186840000000  0.4477440000000  0.5146560000000 1.0
C      1  0.6000560000000  0.5198390000000  0.4665720000000 1.0
C      1  0.5307310000000  0.4314160000000  0.5565020000000 1.0
C      1  0.5557130000000  0.5516580000000  0.4269990000000 1.0
C      1  0.5895840000000  0.4606680000000  0.5303340000000 1.0
C      1  0.5917780000000  0.4482800000000  0.4661650000000 1.0
C      1  0.5482080000000  0.4498540000000  0.4225770000000 1.0
C      1  0.4436190000000  0.4319340000000  0.4616450000000 1.0
C      1  0.4976960000000  0.5617980000000  0.5689560000000 1.0
C      1  0.5412990000000  0.5044100000000  0.4407270000000 1.0
C      1  0.5174340000000  0.5382760000000  0.5436930000000 1.0
C      1  0.5078590000000  0.4064940000000  0.5581700000000 1.0
C      1  0.4994630000000  0.5048560000000  0.4236100000000 1.0
C      1  0.5222030000000  0.4140900000000  0.5111600000000 1.0
C      1  0.5850890000000  0.4864980000000  0.3998390000000 1.0
C      1  0.5155190000000  0.5409930000000  0.5109330000000 1.0
C      1  0.4265000000000  0.4610900000000  0.4660750000000 1.0
C      1  0.5615660000000  0.5516160000000  0.5740170000000 1.0
C      1  0.4886710000000  0.5089870000000  0.5333340000000 1.0
C      1  0.4691460000000  0.4927310000000  0.4591280000000 1.0
C      1  0.4756370000000  0.4610860000000  0.4662380000000 1.0
C      1  0.4526050000000  0.5465290000000  0.5885230000000 1.0
C      1  0.4908930000000  0.5204020000000  0.6064360000000 1.0
C      1  0.5519040000000  0.5546450000000  0.5037990000000 1.0
C      1  0.5115640000000  0.5702330000000  0.4940390000000 1.0
C      1  0.5061560000000  0.4403080000000  0.4856010000000 1.0
C      1  0.5255440000000  0.5262540000000  0.4614940000000 1.0
C      1  0.4486560000000  0.4768310000000  0.5329180000000 1.0
C      1  0.4169590000000  0.5022920000000  0.4463070000000 1.0
C      1  0.5469650000000  0.4289750000000  0.4939190000000 1.0
C      1  0.5226570000000  0.4800970000000  0.4259660000000 1.0
C      1  0.4103660000000  0.4669270000000  0.5374770000000 1.0
C      1  0.5787890000000  0.4749290000000  0.4729520000000 1.0
C      1  0.4495290000000  0.5073370000000  0.4369790000000 1.0
C      1  0.4936220000000  0.5284410000000  0.5742310000000 1.0
C      1  0.4909410000000  0.4760940000000  0.5567260000000 1.0
C      1  0.5573240000000  0.4881650000000  0.5762850000000 1.0
C      1  0.4862910000000  0.5482730000000  0.5399050000000 1.0
C      1  0.4661530000000  0.4488270000000  0.5413460000000 1.0
C      1  0.4615860000000  0.5209810000000  0.5966540000000 1.0
C      1  0.4877480000000  0.5304260000000  0.4365620000000 1.0
C      1  0.5842310000000  0.4836880000000  0.5053610000000 1.0
C      1  0.4600930000000  0.5589230000000  0.4335650000000 1.0
C      1  0.5888630000000  0.4977510000000  0.4543440000000 1.0
C      1  0.4950970000000  0.6005550000000  0.5287810000000 1.0
C      1  0.4261900000000  0.4517110000000  0.5115030000000 1.0
C      1  0.5463830000000  0.4841870000000  0.4681150000000 1.0
C      1  0.4762180000000  0.4272620000000  0.4625630000000 1.0
C      1  0.4414230000000  0.5393810000000  0.4288280000000 1.0
C      1  0.5488410000000  0.4256330000000  0.5282350000000 1.0
C      1  0.5679540000000  0.5084160000000  0.4914660000000 1.0
C      1  0.4734650000000  0.5406480000000  0.5143560000000 1.0
C      1  0.5137790000000  0.4817960000000  0.4587450000000 1.0
C      1  0.5175410000000  0.4508470000000  0.4617890000000 1.0
C      1  0.4751220000000  0.4938120000000  0.5811310000000 1.0
C      1  0.5481110000000  0.5642180000000  0.4536970000000 1.0
C      1  0.3984690000000  0.5070760000000  0.5058210000000 1.0
C      1  0.4888400000000  0.4673180000000  0.4969540000000 1.0
C      1  0.4814880000000  0.4848200000000  0.3942740000000 1.0
C      1  0.4482440000000  0.5712710000000  0.5461750000000 1.0
C      1  0.5367310000000  0.5048570000000  0.4933260000000 1.0
C      1  0.4761210000000  0.4094390000000  0.4886350000000 1.0
C      1  0.4425920000000  0.5297970000000  0.5174590000000 1.0
C      1  0.5178340000000  0.5087940000000  0.5606460000000 1.0
C      1  0.5329290000000  0.5676630000000  0.5364280000000 1.0
C      1  0.4864400000000  0.4459500000000  0.4211900000000 1.0
C      1  0.5499960000000  0.4189480000000  0.4670490000000 1.0
END
