TITL C-2848509-3138-541 0.000719630354464617 125000 -858.806759564317 0 0 160 (C1) n - 1
REM
REM in /home/bkarasulu/work/CARBON/AIRSS/Generating-Clusters/AIREBO/with-SteepDescent/Only-C1/SD-CG-opt/Try1-1.4A-POS3A/HFTN-CG
REM
REM
REM
REM
REM
REM ./C.cell (11c1c37f851c82e70ff6c80c92926a4b)
REM
REM compiler GCC version 9.2.1 20190827 (Red Hat 9.2.1-1)
REM options -cpp -mtune=generic -march=x86-64 -g -O0 -fpre-include=/usr/include/finclude/math-vector-fortran.h
REM seed -1613421818 936509216 -1838910056 638743180 -940682288 739873290 -339080530 1232373820 563486921 -475789146 2020848157 163237569 -494623658 -930867814 1178175472 638420818 -743294290 -607267819 -585902793 -534892524 -771458873 -1941353639 -742996629 1794911925 972272085 -1772981058 462789574 -454669066 1151715909 173800160 -1882400722 1951303620 896852208
REM
CELL 1.54180   50.00000   50.00000   50.00000   90.00000   90.00000   90.00000
LATT -1
SFAC C  
C      1  0.5271700000000  0.5500700000000  0.5563950000000 1.0
C      1  0.5405940000000  0.5619000000000  0.5274810000000 1.0
C      1  0.5292120000000  0.5921700000000  0.4676870000000 1.0
C      1  0.4793120000000  0.5304470000000  0.5205360000000 1.0
C      1  0.5600210000000  0.4772860000000  0.5630040000000 1.0
C      1  0.5691670000000  0.4285820000000  0.4689930000000 1.0
C      1  0.5582640000000  0.5390570000000  0.5163010000000 1.0
C      1  0.5037440000000  0.5487940000000  0.5317810000000 1.0
C      1  0.5544660000000  0.4467070000000  0.5136690000000 1.0
C      1  0.5374350000000  0.4689210000000  0.4979760000000 1.0
C      1  0.4763690000000  0.5641480000000  0.4263180000000 1.0
C      1  0.5202540000000  0.4112460000000  0.4457700000000 1.0
C      1  0.4790390000000  0.5048940000000  0.5927230000000 1.0
C      1  0.3937490000000  0.4902450000000  0.5252310000000 1.0
C      1  0.5017200000000  0.4519920000000  0.5952880000000 1.0
C      1  0.5045540000000  0.5723330000000  0.5680180000000 1.0
C      1  0.4553340000000  0.4761520000000  0.4148510000000 1.0
C      1  0.4426220000000  0.4219580000000  0.4771600000000 1.0
C      1  0.5927430000000  0.5458950000000  0.4976170000000 1.0
C      1  0.4407340000000  0.5698100000000  0.4579670000000 1.0
C      1  0.4901480000000  0.5412720000000  0.5685080000000 1.0
C      1  0.4683310000000  0.5580900000000  0.4684880000000 1.0
C      1  0.5797940000000  0.4544270000000  0.4706800000000 1.0
C      1  0.4225100000000  0.5019410000000  0.4291780000000 1.0
C      1  0.5784040000000  0.5290580000000  0.5564530000000 1.0
C      1  0.4983380000000  0.4634480000000  0.5534450000000 1.0
C      1  0.4135410000000  0.4343040000000  0.4776620000000 1.0
C      1  0.5291330000000  0.4093640000000  0.4940480000000 1.0
C      1  0.4803540000000  0.5047760000000  0.4264850000000 1.0
C      1  0.5665240000000  0.5076140000000  0.4719020000000 1.0
C      1  0.5165610000000  0.5830880000000  0.5159460000000 1.0
C      1  0.4584560000000  0.5272380000000  0.5919760000000 1.0
C      1  0.4176640000000  0.5444890000000  0.5395500000000 1.0
C      1  0.4458380000000  0.4295620000000  0.5102630000000 1.0
C      1  0.5051680000000  0.4479220000000  0.4524690000000 1.0
C      1  0.5018880000000  0.4825960000000  0.4123200000000 1.0
C      1  0.5651000000000  0.4742560000000  0.4178380000000 1.0
C      1  0.4840980000000  0.5831810000000  0.4518120000000 1.0
C      1  0.5785780000000  0.5154070000000  0.5027240000000 1.0
C      1  0.4621830000000  0.4157030000000  0.4499760000000 1.0
C      1  0.5458860000000  0.5227010000000  0.5546920000000 1.0
C      1  0.5169500000000  0.4940610000000  0.4977680000000 1.0
C      1  0.4434150000000  0.5257300000000  0.5645200000000 1.0
C      1  0.5728690000000  0.5223980000000  0.4272730000000 1.0
C      1  0.4008190000000  0.4956750000000  0.4956850000000 1.0
C      1  0.4216520000000  0.5037440000000  0.5715320000000 1.0
C      1  0.6050180000000  0.4656910000000  0.4781890000000 1.0
C      1  0.5159210000000  0.3974000000000  0.4699970000000 1.0
C      1  0.5105100000000  0.5359720000000  0.4481610000000 1.0
C      1  0.4512840000000  0.5174280000000  0.5325900000000 1.0
C      1  0.4031280000000  0.5038410000000  0.4637780000000 1.0
C      1  0.5291360000000  0.4991710000000  0.4460390000000 1.0
C      1  0.5334270000000  0.4601420000000  0.5723240000000 1.0
C      1  0.4223040000000  0.4566630000000  0.5505150000000 1.0
C      1  0.4684620000000  0.5960250000000  0.4970530000000 1.0
C      1  0.4194260000000  0.5544040000000  0.4643830000000 1.0
C      1  0.5055240000000  0.5948890000000  0.5445920000000 1.0
C      1  0.4751010000000  0.5957800000000  0.5293170000000 1.0
C      1  0.4574190000000  0.5022100000000  0.5028090000000 1.0
C      1  0.4215740000000  0.5284740000000  0.4511030000000 1.0
C      1  0.5647900000000  0.5463130000000  0.4433100000000 1.0
C      1  0.5523120000000  0.5011540000000  0.4214700000000 1.0
C      1  0.5298260000000  0.5009370000000  0.5955780000000 1.0
C      1  0.4351370000000  0.4810880000000  0.5306420000000 1.0
C      1  0.4538070000000  0.4634700000000  0.5613600000000 1.0
C      1  0.4862490000000  0.4763720000000  0.5810030000000 1.0
C      1  0.4642440000000  0.5071420000000  0.4698650000000 1.0
C      1  0.4784970000000  0.5659810000000  0.5388800000000 1.0
C      1  0.5101220000000  0.5977360000000  0.4369190000000 1.0
C      1  0.5205390000000  0.5038750000000  0.5440060000000 1.0
C      1  0.4784010000000  0.4809340000000  0.4862920000000 1.0
C      1  0.4474810000000  0.5782930000000  0.5171020000000 1.0
C      1  0.4051620000000  0.4473990000000  0.5038830000000 1.0
C      1  0.5563590000000  0.4760320000000  0.4731660000000 1.0
C      1  0.5899130000000  0.4427910000000  0.5473440000000 1.0
C      1  0.3972200000000  0.4610780000000  0.5295240000000 1.0
C      1  0.4935900000000  0.4104270000000  0.5325640000000 1.0
C      1  0.5212480000000  0.4407460000000  0.4922290000000 1.0
C      1  0.4901140000000  0.4079260000000  0.4079980000000 1.0
C      1  0.5698250000000  0.4457510000000  0.5666820000000 1.0
C      1  0.4505380000000  0.4893730000000  0.5823030000000 1.0
C      1  0.4591110000000  0.4351860000000  0.5672410000000 1.0
C      1  0.4779090000000  0.4527760000000  0.4236340000000 1.0
C      1  0.5270750000000  0.6027530000000  0.4957920000000 1.0
C      1  0.5200580000000  0.4698560000000  0.4326580000000 1.0
C      1  0.5644460000000  0.5401800000000  0.5854200000000 1.0
C      1  0.4185180000000  0.5099190000000  0.5377130000000 1.0
C      1  0.4194640000000  0.4710540000000  0.4920840000000 1.0
C      1  0.5190560000000  0.4158420000000  0.5233770000000 1.0
C      1  0.5877730000000  0.5457710000000  0.5317970000000 1.0
C      1  0.4480120000000  0.4669230000000  0.4802380000000 1.0
C      1  0.5383340000000  0.5251050000000  0.4644130000000 1.0
C      1  0.4927960000000  0.5726190000000  0.5008510000000 1.0
C      1  0.6045930000000  0.4728760000000  0.5051760000000 1.0
C      1  0.4200360000000  0.5630740000000  0.5175580000000 1.0
C      1  0.5065940000000  0.5688560000000  0.4729100000000 1.0
C      1  0.4542720000000  0.5479730000000  0.4273300000000 1.0
C      1  0.5458850000000  0.4546670000000  0.4247710000000 1.0
C      1  0.4723390000000  0.4108580000000  0.5155330000000 1.0
C      1  0.5407200000000  0.5099180000000  0.5173130000000 1.0
C      1  0.4136610000000  0.4761730000000  0.4485880000000 1.0
C      1  0.5906470000000  0.5052070000000  0.4480570000000 1.0
C      1  0.5074460000000  0.5225330000000  0.5890740000000 1.0
C      1  0.4931070000000  0.4796290000000  0.5172610000000 1.0
C      1  0.4426180000000  0.5292780000000  0.4951900000000 1.0
C      1  0.4873260000000  0.4253830000000  0.5579770000000 1.0
C      1  0.5549170000000  0.5913070000000  0.5224710000000 1.0
C      1  0.4916190000000  0.5142270000000  0.5477780000000 1.0
C      1  0.5764590000000  0.5403040000000  0.4717140000000 1.0
C      1  0.4889840000000  0.4636500000000  0.3933820000000 1.0
C      1  0.4893480000000  0.3937120000000  0.4743600000000 1.0
C      1  0.4336830000000  0.5558770000000  0.5626500000000 1.0
C      1  0.6124610000000  0.4796850000000  0.4538050000000 1.0
C      1  0.4461790000000  0.4765440000000  0.4476790000000 1.0
C      1  0.5044750000000  0.4899230000000  0.4663850000000 1.0
C      1  0.4688010000000  0.6054030000000  0.4703560000000 1.0
C      1  0.4749710000000  0.4849020000000  0.5455620000000 1.0
C      1  0.5205870000000  0.5769510000000  0.4187930000000 1.0
C      1  0.4850040000000  0.4496920000000  0.4745830000000 1.0
C      1  0.4771960000000  0.4468180000000  0.5335670000000 1.0
C      1  0.5574710000000  0.4221560000000  0.4939650000000 1.0
C      1  0.5267850000000  0.4715080000000  0.5416560000000 1.0
C      1  0.4753370000000  0.4195360000000  0.4856800000000 1.0
C      1  0.4933840000000  0.4491940000000  0.5054720000000 1.0
C      1  0.5977690000000  0.4982010000000  0.5177330000000 1.0
C      1  0.4910640000000  0.4235610000000  0.4333820000000 1.0
C      1  0.4643380000000  0.5544440000000  0.5016540000000 1.0
C      1  0.4099870000000  0.5551310000000  0.4928240000000 1.0
C      1  0.5817850000000  0.4598240000000  0.5223530000000 1.0
C      1  0.4283570000000  0.4272160000000  0.5366630000000 1.0
C      1  0.5363180000000  0.6083850000000  0.5392750000000 1.0
C      1  0.5619210000000  0.4863110000000  0.5302700000000 1.0
C      1  0.4796120000000  0.4778320000000  0.4465540000000 1.0
C      1  0.5081000000000  0.4300440000000  0.5787610000000 1.0
C      1  0.4197920000000  0.4726190000000  0.5801500000000 1.0
C      1  0.5193880000000  0.5337410000000  0.5057560000000 1.0
C      1  0.4045750000000  0.4478580000000  0.4555780000000 1.0
C      1  0.5323350000000  0.5521300000000  0.4832720000000 1.0
C      1  0.4513490000000  0.5165440000000  0.4397780000000 1.0
C      1  0.4892840000000  0.5253280000000  0.4009080000000 1.0
C      1  0.5347800000000  0.5570450000000  0.4389130000000 1.0
C      1  0.4544390000000  0.4620300000000  0.5132970000000 1.0
C      1  0.5355670000000  0.5416830000000  0.5882650000000 1.0
C      1  0.5021720000000  0.5484470000000  0.4175740000000 1.0
C      1  0.5550860000000  0.5745320000000  0.4925500000000 1.0
C      1  0.5879620000000  0.5007310000000  0.5467090000000 1.0
C      1  0.5349850000000  0.4385450000000  0.5387540000000 1.0
C      1  0.4632630000000  0.5601620000000  0.5634400000000 1.0
C      1  0.5519950000000  0.5030620000000  0.5781890000000 1.0
C      1  0.5557480000000  0.5751940000000  0.4588070000000 1.0
C      1  0.5483680000000  0.4269920000000  0.4423880000000 1.0
C      1  0.5409050000000  0.4280170000000  0.5700370000000 1.0
C      1  0.4939810000000  0.5188100000000  0.4937560000000 1.0
C      1  0.5815590000000  0.5732020000000  0.5130850000000 1.0
C      1  0.5362630000000  0.4501840000000  0.4632130000000 1.0
C      1  0.4647580000000  0.5016590000000  0.3964260000000 1.0
C      1  0.5223920000000  0.4745450000000  0.5975650000000 1.0
C      1  0.4126800000000  0.5241790000000  0.4896580000000 1.0
C      1  0.5875790000000  0.4765120000000  0.4341020000000 1.0
C      1  0.4857730000000  0.5319390000000  0.4656180000000 1.0
END
