TITL C-2847957-7266-213 0.0145940080487011 125000 -137.925313599339 0 0 25 (C1) n - 1
REM
REM in /home/bkarasulu/work/CARBON/AIRSS/Generating-Clusters/AIREBO/with-SteepDescent/Only-C1/SD-CG-opt/Try1-1.4A-POS3A/HFTN-CG
REM
REM
REM
REM
REM
REM ./C.cell (11c1c37f851c82e70ff6c80c92926a4b)
REM
REM compiler GCC version 9.2.1 20190827 (Red Hat 9.2.1-1)
REM options -cpp -mtune=generic -march=x86-64 -g -O0 -fpre-include=/usr/include/finclude/math-vector-fortran.h
REM seed 1225810228 -1336432265 50483251 672370386 1700314613 374030512 -761066540 -1441671864 326241975 -1324636024 1990094565 -556169760 -1257440223 1816553754 72415873 -1703504538 545967023 276170070 -812491412 -1021201307 166131925 -1488255337 511467272 450155617 2100844442 69404735 1258091071 -1954998041 -1820258801 1010737593 -1766695507 115322732 -1899371632
REM
CELL 1.54180   50.00000   50.00000   50.00000   90.00000   90.00000   90.00000
LATT -1
SFAC C  
C      1  0.4686000000000  0.4680510000000  0.4929770000000 1.0
C      1  0.4992460000000  0.4748140000000  0.5051330000000 1.0
C      1  0.5431450000000  0.5556420000000  0.4897010000000 1.0
C      1  0.5088840000000  0.5121910000000  0.4946690000000 1.0
C      1  0.5356390000000  0.5431230000000  0.5185270000000 1.0
C      1  0.4948200000000  0.4436120000000  0.4621010000000 1.0
C      1  0.4710260000000  0.4478260000000  0.4709810000000 1.0
C      1  0.4765160000000  0.5039510000000  0.5434830000000 1.0
C      1  0.5018270000000  0.5153720000000  0.5424990000000 1.0
C      1  0.5051900000000  0.5321910000000  0.4740750000000 1.0
C      1  0.5215250000000  0.4852380000000  0.4821060000000 1.0
C      1  0.5585680000000  0.5660790000000  0.5162400000000 1.0
C      1  0.4820560000000  0.5397540000000  0.4629610000000 1.0
C      1  0.4282980000000  0.5132930000000  0.5419620000000 1.0
C      1  0.5317830000000  0.5421250000000  0.4677790000000 1.0
C      1  0.5163700000000  0.5234550000000  0.5199800000000 1.0
C      1  0.4440250000000  0.4855370000000  0.5070540000000 1.0
C      1  0.5180070000000  0.4530720000000  0.4775830000000 1.0
C      1  0.5471420000000  0.5219220000000  0.4548730000000 1.0
C      1  0.5453550000000  0.4963740000000  0.4650790000000 1.0
C      1  0.4525780000000  0.5124810000000  0.5554170000000 1.0
C      1  0.4238470000000  0.4973230000000  0.5197000000000 1.0
C      1  0.5171340000000  0.4498290000000  0.5145240000000 1.0
C      1  0.4727780000000  0.4829030000000  0.5233570000000 1.0
C      1  0.5356400000000  0.4338420000000  0.4972380000000 1.0
END
