TITL C-2848498-1409-302 755.786972937223 125000 -1013.84872561649 0 0 184 (C1) n - 1
REM
REM in /home/bkarasulu/work/CARBON/AIRSS/Generating-Clusters/AIREBO/with-SteepDescent/Only-C1/SD-CG-opt/Try1-1.4A-POS3A/HFTN-CG
REM
REM
REM
REM
REM
REM ./C.cell (11c1c37f851c82e70ff6c80c92926a4b)
REM
REM compiler GCC version 9.2.1 20190827 (Red Hat 9.2.1-1)
REM options -cpp -mtune=generic -march=x86-64 -g -O0 -fpre-include=/usr/include/finclude/math-vector-fortran.h
REM seed -1232486855 -1125765524 -1614749812 698797713 -1774821855 -1846199015 -1446129246 1658427158 -1994238745 305611196 394864946 9208182 -1130465108 -1184949018 -1636830995 -1544495203 1419352098 -1012772394 914391538 -1228756992 701322190 -1348257873 1960056053 707103660 -1428360751 -171965011 1495021433 -1004466517 1775195348 1945336370 -1941024214 11570497 469605158
REM
CELL 1.54180   50.00000   50.00000   50.00000   90.00000   90.00000   90.00000
LATT -1
SFAC C  
C      1  0.5219720000000  0.4571970000000  0.4454040000000 1.0
C      1  0.4596680000000  0.4363130000000  0.4896930000000 1.0
C      1  0.4725730000000  0.5854460000000  0.4322340000000 1.0
C      1  0.5521040000000  0.4600110000000  0.5073080000000 1.0
C      1  0.5040530000000  0.4495910000000  0.4941320000000 1.0
C      1  0.5245920000000  0.6066090000000  0.4824840000000 1.0
C      1  0.5098740000000  0.4830750000000  0.4547670000000 1.0
C      1  0.5999870000000  0.4419490000000  0.5058770000000 1.0
C      1  0.5442590000000  0.5915950000000  0.4628080000000 1.0
C      1  0.4234030000000  0.5883780000000  0.4676840000000 1.0
C      1  0.5040830000000  0.5201430000000  0.5731550000000 1.0
C      1  0.5634280000000  0.4796410000000  0.5393540000000 1.0
C      1  0.4332240000000  0.5531890000000  0.5212130000000 1.0
C      1  0.6024570000000  0.5184200000000  0.4875000000000 1.0
C      1  0.5059730000000  0.4752900000000  0.6199390000000 1.0
C      1  0.4480420000000  0.4581850000000  0.4184700000000 1.0
C      1  0.5657280000000  0.5569180000000  0.5674190000000 1.0
C      1  0.5406690000000  0.5573130000000  0.4253710000000 1.0
C      1  0.4912860000000  0.4776560000000  0.5459090000000 1.0
C      1  0.4604330000000  0.5532290000000  0.4521920000000 1.0
C      1  0.4817610000000  0.5062580000000  0.4701670000000 1.0
C      1  0.4639330000000  0.5768480000000  0.5316160000000 1.0
C      1  0.5615480000000  0.5097650000000  0.4376200000000 1.0
C      1  0.4079840000000  0.5487320000000  0.4988310000000 1.0
C      1  0.5583880000000  0.5573430000000  0.5190140000000 1.0
C      1  0.4623450000000  0.5050240000000  0.5195630000000 1.0
C      1  0.4662630000000  0.4090100000000  0.5443820000000 1.0
C      1  0.5018470000000  0.4482300000000  0.5837510000000 1.0
C      1  0.5134630000000  0.5522670000000  0.5768930000000 1.0
C      1  0.4285280000000  0.4297540000000  0.5016830000000 1.0
C      1  0.5781490000000  0.5826770000000  0.5278340000000 1.0
C      1  0.5265250000000  0.4376860000000  0.4715380000000 1.0
C      1  0.5674380000000  0.4032030000000  0.4449730000000 1.0
C      1  0.5272120000000  0.5083250000000  0.5951210000000 1.0
C      1  0.5729940000000  0.4779950000000  0.4334740000000 1.0
C      1  0.4144400000000  0.5398210000000  0.4666110000000 1.0
C      1  0.5676810000000  0.5286690000000  0.5776230000000 1.0
C      1  0.5458250000000  0.4286680000000  0.5762570000000 1.0
C      1  0.5536010000000  0.5395210000000  0.5421410000000 1.0
C      1  0.4181990000000  0.5318680000000  0.4337460000000 1.0
C      1  0.5279580000000  0.4120610000000  0.5630200000000 1.0
C      1  0.4337870000000  0.5192200000000  0.5225920000000 1.0
C      1  0.4154730000000  0.4833230000000  0.4607750000000 1.0
C      1  0.5887590000000  0.4879460000000  0.5600040000000 1.0
C      1  0.5846230000000  0.5678270000000  0.4995010000000 1.0
C      1  0.4665840000000  0.4893740000000  0.4931200000000 1.0
C      1  0.4719210000000  0.5316970000000  0.5702140000000 1.0
C      1  0.4325220000000  0.4429590000000  0.4702890000000 1.0
C      1  0.6141880000000  0.5065420000000  0.5097880000000 1.0
C      1  0.5790360000000  0.4167360000000  0.5401590000000 1.0
C      1  0.4632480000000  0.4940970000000  0.3918820000000 1.0
C      1  0.4678660000000  0.4678070000000  0.4003830000000 1.0
C      1  0.4884250000000  0.5462940000000  0.4994140000000 1.0
C      1  0.4416550000000  0.5387650000000  0.4172520000000 1.0
C      1  0.5705850000000  0.4442190000000  0.4697250000000 1.0
C      1  0.4483560000000  0.4406720000000  0.4402870000000 1.0
C      1  0.5300980000000  0.5167820000000  0.5515220000000 1.0
C      1  0.4090140000000  0.5014000000000  0.4327070000000 1.0
C      1  0.4863340000000  0.3888690000000  0.4650450000000 1.0
C      1  0.4926820000000  0.5372830000000  0.4156940000000 1.0
C      1  0.5210350000000  0.5809620000000  0.5358610000000 1.0
C      1  0.5293980000000  0.3848170000000  0.4857610000000 1.0
C      1  0.5580450000000  0.5882480000000  0.4937530000000 1.0
C      1  0.4737950000000  0.3858180000000  0.4895660000000 1.0
C      1  0.5579150000000  0.4535660000000  0.4290380000000 1.0
C      1  0.4817980000000  0.5056260000000  0.4373880000000 1.0
C      1  0.5579600000000  0.5615490000000  0.4709180000000 1.0
C      1  0.4265180000000  0.4428850000000  0.5291290000000 1.0
C      1  0.5677140000000  0.5564220000000  0.4280670000000 1.0
C      1  0.5457170000000  0.4298460000000  0.4984860000000 1.0
C      1  0.3901290000000  0.5219190000000  0.4919270000000 1.0
C      1  0.5404180000000  0.4826870000000  0.4893120000000 1.0
C      1  0.5726080000000  0.4316160000000  0.5630430000000 1.0
C      1  0.5342490000000  0.4593100000000  0.5822580000000 1.0
C      1  0.5594940000000  0.5028990000000  0.4057700000000 1.0
C      1  0.4665890000000  0.3871370000000  0.5228100000000 1.0
C      1  0.5661350000000  0.4721750000000  0.4723050000000 1.0
C      1  0.5977600000000  0.4388860000000  0.4778270000000 1.0
C      1  0.3918490000000  0.5151460000000  0.4586520000000 1.0
C      1  0.4908350000000  0.5502600000000  0.4468560000000 1.0
C      1  0.4599790000000  0.5457160000000  0.5415730000000 1.0
C      1  0.5833760000000  0.4649190000000  0.5160860000000 1.0
C      1  0.5285910000000  0.4823900000000  0.6056510000000 1.0
C      1  0.5497150000000  0.4272260000000  0.4489400000000 1.0
C      1  0.5347900000000  0.5992530000000  0.5133710000000 1.0
C      1  0.4512010000000  0.5855580000000  0.4830310000000 1.0
C      1  0.5659520000000  0.5122880000000  0.5143630000000 1.0
C      1  0.5022740000000  0.4943560000000  0.4150520000000 1.0
C      1  0.5373770000000  0.5198690000000  0.3922810000000 1.0
C      1  0.4747190000000  0.4362480000000  0.4608250000000 1.0
C      1  0.4986600000000  0.4194710000000  0.4645740000000 1.0
C      1  0.5148690000000  0.4582900000000  0.5472990000000 1.0
C      1  0.5272440000000  0.4851600000000  0.5613070000000 1.0
C      1  0.5050290000000  0.4229200000000  0.5152180000000 1.0
C      1  0.4916480000000  0.5053700000000  0.5313760000000 1.0
C      1  0.5874580000000  0.4977130000000  0.4696130000000 1.0
C      1  0.3864380000000  0.4856640000000  0.4756890000000 1.0
C      1  0.5979310000000  0.4761660000000  0.4484160000000 1.0
C      1  0.4963900000000  0.5715280000000  0.4837420000000 1.0
C      1  0.4989160000000  0.6103370000000  0.4744230000000 1.0
C      1  0.5362140000000  0.5548310000000  0.4961780000000 1.0
C      1  0.5014600000000  0.5747790000000  0.4258260000000 1.0
C      1  0.4819950000000  0.5399940000000  0.6016300000000 1.0
C      1  0.5045780000000  0.5622640000000  0.3977550000000 1.0
C      1  0.4756750000000  0.5904130000000  0.4644980000000 1.0
C      1  0.5264450000000  0.3969940000000  0.5097140000000 1.0
C      1  0.4994410000000  0.4390690000000  0.4296350000000 1.0
C      1  0.5191010000000  0.5490090000000  0.5243860000000 1.0
C      1  0.5473870000000  0.5731760000000  0.5803310000000 1.0
C      1  0.5157110000000  0.5470010000000  0.4702050000000 1.0
C      1  0.4526410000000  0.4452190000000  0.5768590000000 1.0
C      1  0.6126620000000  0.4542580000000  0.4584900000000 1.0
C      1  0.4325440000000  0.5865930000000  0.5275490000000 1.0
C      1  0.4872480000000  0.5378020000000  0.5284890000000 1.0
C      1  0.4734290000000  0.4617520000000  0.5025410000000 1.0
C      1  0.4252630000000  0.4632960000000  0.5858900000000 1.0
C      1  0.4822300000000  0.5912860000000  0.5075360000000 1.0
C      1  0.4871160000000  0.4907710000000  0.5740870000000 1.0
C      1  0.5362090000000  0.5919270000000  0.5642580000000 1.0
C      1  0.4256920000000  0.4730230000000  0.5134000000000 1.0
C      1  0.5324180000000  0.5559540000000  0.6035230000000 1.0
C      1  0.5006510000000  0.5509560000000  0.6145730000000 1.0
C      1  0.5040860000000  0.6114230000000  0.5164050000000 1.0
C      1  0.4757210000000  0.4139100000000  0.5058840000000 1.0
C      1  0.4422930000000  0.5428870000000  0.5825830000000 1.0
C      1  0.4566270000000  0.5691190000000  0.5801600000000 1.0
C      1  0.5168270000000  0.4979780000000  0.3854010000000 1.0
C      1  0.6022690000000  0.4217310000000  0.5251510000000 1.0
C      1  0.4492330000000  0.5664610000000  0.4163680000000 1.0
C      1  0.4576930000000  0.5010890000000  0.5660760000000 1.0
C      1  0.4425960000000  0.4984990000000  0.4719340000000 1.0
C      1  0.5475240000000  0.5274180000000  0.5977530000000 1.0
C      1  0.4753190000000  0.5773980000000  0.5603390000000 1.0
C      1  0.4415560000000  0.5795630000000  0.4449370000000 1.0
C      1  0.4523280000000  0.4386640000000  0.5452120000000 1.0
C      1  0.4247140000000  0.5206200000000  0.5813950000000 1.0
C      1  0.4840780000000  0.4709700000000  0.5979500000000 1.0
C      1  0.5112900000000  0.5147830000000  0.4801750000000 1.0
C      1  0.4431930000000  0.5302790000000  0.4646500000000 1.0
C      1  0.3830310000000  0.4713990000000  0.5264460000000 1.0
C      1  0.5775210000000  0.5371360000000  0.4447630000000 1.0
C      1  0.5250810000000  0.5333800000000  0.4163040000000 1.0
C      1  0.4578210000000  0.4857680000000  0.4456080000000 1.0
C      1  0.5871300000000  0.5446240000000  0.4753090000000 1.0
C      1  0.4509010000000  0.6050590000000  0.5076420000000 1.0
C      1  0.5172690000000  0.5165850000000  0.5136330000000 1.0
C      1  0.4506550000000  0.5567710000000  0.4934980000000 1.0
C      1  0.5259960000000  0.5708910000000  0.4482980000000 1.0
C      1  0.4096190000000  0.4624090000000  0.4863150000000 1.0
C      1  0.4027170000000  0.5761290000000  0.4811300000000 1.0
C      1  0.5305390000000  0.4571920000000  0.4124980000000 1.0
C      1  0.5408610000000  0.4804510000000  0.3950200000000 1.0
C      1  0.4543450000000  0.4667840000000  0.6030900000000 1.0
C      1  0.5047460000000  0.4268340000000  0.5502620000000 1.0
C      1  0.3912130000000  0.4930010000000  0.5069720000000 1.0
C      1  0.4439170000000  0.4846840000000  0.5396520000000 1.0
C      1  0.5020590000000  0.5718830000000  0.5607290000000 1.0
C      1  0.4233760000000  0.5013230000000  0.4996770000000 1.0
C      1  0.6001310000000  0.4908200000000  0.5280500000000 1.0
C      1  0.4828380000000  0.4643960000000  0.4451410000000 1.0
C      1  0.5653740000000  0.4641640000000  0.5682810000000 1.0
C      1  0.4049950000000  0.5416400000000  0.5362690000000 1.0
C      1  0.5549670000000  0.4080450000000  0.5228920000000 1.0
C      1  0.5216320000000  0.5084580000000  0.4391870000000 1.0
C      1  0.4020390000000  0.4598940000000  0.5425820000000 1.0
C      1  0.5223980000000  0.4141400000000  0.4334540000000 1.0
C      1  0.4688400000000  0.5307120000000  0.4836820000000 1.0
C      1  0.5410520000000  0.5278900000000  0.4579000000000 1.0
C      1  0.5582060000000  0.5100680000000  0.4813140000000 1.0
C      1  0.4978240000000  0.3906540000000  0.4368620000000 1.0
C      1  0.4798500000000  0.4257360000000  0.5707980000000 1.0
C      1  0.4971740000000  0.4634830000000  0.4078360000000 1.0
C      1  0.5762950000000  0.5164170000000  0.5466450000000 1.0
C      1  0.4162920000000  0.5131940000000  0.5512370000000 1.0
C      1  0.4684260000000  0.4623560000000  0.5330100000000 1.0
C      1  0.5255190000000  0.3986450000000  0.4635720000000 1.0
C      1  0.5082070000000  0.4822340000000  0.4887260000000 1.0
C      1  0.4655970000000  0.5199340000000  0.4112740000000 1.0
C      1  0.5414290000000  0.4991880000000  0.5270780000000 1.0
C      1  0.4389220000000  0.4941160000000  0.5903920000000 1.0
C      1  0.5296110000000  0.4445210000000  0.5244580000000 1.0
C      1  0.4324300000000  0.4824070000000  0.4251320000000 1.0
C      1  0.4169920000000  0.4802980000000  0.5599550000000 1.0
C      1  0.5391430000000  0.3932270000000  0.5470260000000 1.0
END
