TITL C-2847951-7423-612 -0.000383632705769405 125000 -862.485406189695 0 0 161 (C1) n - 1
REM
REM in /home/bkarasulu/work/CARBON/AIRSS/Generating-Clusters/AIREBO/with-SteepDescent/Only-C1/SD-CG-opt/Try1-1.4A-POS3A/HFTN-CG
REM
REM
REM
REM
REM
REM ./C.cell (11c1c37f851c82e70ff6c80c92926a4b)
REM
REM compiler GCC version 9.2.1 20190827 (Red Hat 9.2.1-1)
REM options -cpp -mtune=generic -march=x86-64 -g -O0 -fpre-include=/usr/include/finclude/math-vector-fortran.h
REM seed -532297006 -600406478 -1695551520 2033282185 1001595646 -801446885 -759116692 1452368171 534207058 286699780 -614659651 1450490380 -867483350 1496920684 1031542017 -1862887563 2109506075 1111677328 1569991898 -1053985811 -1542766482 1622804794 190361243 392369065 -1233998405 -1008179718 2004837506 -770612 1652286122 -1639695759 662707139 1353188521 -782946154
REM
CELL 1.54180   50.00000   50.00000   50.00000   90.00000   90.00000   90.00000
LATT -1
SFAC C  
C      1  0.4271700000000  0.5250860000000  0.4889480000000 1.0
C      1  0.5871060000000  0.4392530000000  0.4753030000000 1.0
C      1  0.5724030000000  0.4441990000000  0.5465390000000 1.0
C      1  0.5123910000000  0.5184790000000  0.5505730000000 1.0
C      1  0.5609400000000  0.4721680000000  0.4887150000000 1.0
C      1  0.5013320000000  0.5412120000000  0.4457560000000 1.0
C      1  0.4072250000000  0.5064590000000  0.5525720000000 1.0
C      1  0.5766620000000  0.5219670000000  0.4709210000000 1.0
C      1  0.6272650000000  0.5389180000000  0.5230310000000 1.0
C      1  0.4851040000000  0.5581570000000  0.5788430000000 1.0
C      1  0.5406950000000  0.4346810000000  0.5506520000000 1.0
C      1  0.4879060000000  0.5208310000000  0.4081920000000 1.0
C      1  0.5153310000000  0.6083130000000  0.5216480000000 1.0
C      1  0.5191640000000  0.5037810000000  0.5230630000000 1.0
C      1  0.5770210000000  0.5571720000000  0.5152810000000 1.0
C      1  0.5394680000000  0.4913330000000  0.4518590000000 1.0
C      1  0.4368890000000  0.4454870000000  0.4459220000000 1.0
C      1  0.5236480000000  0.4169920000000  0.4158000000000 1.0
C      1  0.5376700000000  0.5285280000000  0.5625180000000 1.0
C      1  0.4840960000000  0.5785260000000  0.4882920000000 1.0
C      1  0.4791910000000  0.4731410000000  0.4698320000000 1.0
C      1  0.4637870000000  0.4350820000000  0.5392020000000 1.0
C      1  0.6026380000000  0.5348250000000  0.5160150000000 1.0
C      1  0.4383470000000  0.4142300000000  0.4490670000000 1.0
C      1  0.4296780000000  0.4962300000000  0.4404800000000 1.0
C      1  0.4977300000000  0.4973690000000  0.5708180000000 1.0
C      1  0.4365730000000  0.5719000000000  0.5696570000000 1.0
C      1  0.4635390000000  0.5335070000000  0.4758610000000 1.0
C      1  0.5518960000000  0.5039610000000  0.5783460000000 1.0
C      1  0.5162310000000  0.5048300000000  0.4713180000000 1.0
C      1  0.4545470000000  0.5049940000000  0.4908360000000 1.0
C      1  0.5064840000000  0.4332700000000  0.4773750000000 1.0
C      1  0.4937540000000  0.5305510000000  0.5012160000000 1.0
C      1  0.5337480000000  0.4929760000000  0.5965660000000 1.0
C      1  0.4519370000000  0.4140870000000  0.5211450000000 1.0
C      1  0.4617190000000  0.5843610000000  0.4631690000000 1.0
C      1  0.4272770000000  0.5253680000000  0.5577710000000 1.0
C      1  0.4382480000000  0.4688670000000  0.5805960000000 1.0
C      1  0.4130220000000  0.5419070000000  0.4630040000000 1.0
C      1  0.5221890000000  0.4661790000000  0.5890920000000 1.0
C      1  0.5810910000000  0.5127600000000  0.5869360000000 1.0
C      1  0.4198930000000  0.5584920000000  0.4912740000000 1.0
C      1  0.5872510000000  0.4725400000000  0.4676260000000 1.0
C      1  0.5798200000000  0.4683010000000  0.4346980000000 1.0
C      1  0.5321440000000  0.5690780000000  0.4823940000000 1.0
C      1  0.4641930000000  0.5066430000000  0.4086510000000 1.0
C      1  0.4475170000000  0.4846500000000  0.4653170000000 1.0
C      1  0.5174760000000  0.4510970000000  0.4515660000000 1.0
C      1  0.5731160000000  0.5103410000000  0.5358530000000 1.0
C      1  0.5967310000000  0.5622350000000  0.4880420000000 1.0
C      1  0.4930260000000  0.4449910000000  0.5726600000000 1.0
C      1  0.4557490000000  0.6008210000000  0.5112520000000 1.0
C      1  0.5093460000000  0.5652710000000  0.5558850000000 1.0
C      1  0.5611560000000  0.5790650000000  0.4946430000000 1.0
C      1  0.5195400000000  0.4633780000000  0.5049200000000 1.0
C      1  0.5352960000000  0.6009580000000  0.4971640000000 1.0
C      1  0.4687540000000  0.5373870000000  0.4473660000000 1.0
C      1  0.4520230000000  0.4742230000000  0.5051050000000 1.0
C      1  0.4479940000000  0.5623770000000  0.5191010000000 1.0
C      1  0.5233910000000  0.5380820000000  0.4714620000000 1.0
C      1  0.4809970000000  0.5686540000000  0.5406930000000 1.0
C      1  0.4939970000000  0.4835290000000  0.4409960000000 1.0
C      1  0.4429880000000  0.4700780000000  0.4279400000000 1.0
C      1  0.5243490000000  0.5542160000000  0.4157600000000 1.0
C      1  0.4287210000000  0.5539190000000  0.5451750000000 1.0
C      1  0.5256880000000  0.4661730000000  0.4240150000000 1.0
C      1  0.3945090000000  0.5110440000000  0.5213600000000 1.0
C      1  0.5705050000000  0.4285070000000  0.4986650000000 1.0
C      1  0.5413990000000  0.5432770000000  0.4430750000000 1.0
C      1  0.5108300000000  0.5939400000000  0.4765840000000 1.0
C      1  0.4077160000000  0.4498680000000  0.5003040000000 1.0
C      1  0.5241590000000  0.4344770000000  0.5777330000000 1.0
C      1  0.5494840000000  0.4596600000000  0.4592410000000 1.0
C      1  0.4444260000000  0.4411880000000  0.5832800000000 1.0
C      1  0.5394790000000  0.5130260000000  0.3922670000000 1.0
C      1  0.5513340000000  0.5745490000000  0.5442520000000 1.0
C      1  0.5929990000000  0.4732930000000  0.5132730000000 1.0
C      1  0.4646070000000  0.5393850000000  0.5351360000000 1.0
C      1  0.5439740000000  0.4659090000000  0.5636940000000 1.0
C      1  0.5335460000000  0.4989140000000  0.4192400000000 1.0
C      1  0.5864730000000  0.4959830000000  0.5609440000000 1.0
C      1  0.5386370000000  0.4379280000000  0.5001720000000 1.0
C      1  0.4730220000000  0.5655090000000  0.4111370000000 1.0
C      1  0.5342830000000  0.4751640000000  0.5335000000000 1.0
C      1  0.5834470000000  0.4451900000000  0.5212670000000 1.0
C      1  0.5768360000000  0.4694450000000  0.5631730000000 1.0
C      1  0.5377200000000  0.5379880000000  0.3906640000000 1.0
C      1  0.5568530000000  0.5169640000000  0.4486090000000 1.0
C      1  0.4880930000000  0.4995280000000  0.4896750000000 1.0
C      1  0.5584110000000  0.4757280000000  0.4200340000000 1.0
C      1  0.4604730000000  0.4070550000000  0.4634580000000 1.0
C      1  0.4164670000000  0.4544640000000  0.4690340000000 1.0
C      1  0.4828140000000  0.4012460000000  0.4485120000000 1.0
C      1  0.4897810000000  0.4867750000000  0.5211840000000 1.0
C      1  0.5505290000000  0.4017890000000  0.4900820000000 1.0
C      1  0.4737410000000  0.4010200000000  0.5047820000000 1.0
C      1  0.4592670000000  0.5732190000000  0.5806980000000 1.0
C      1  0.5077530000000  0.5769780000000  0.5126690000000 1.0
C      1  0.5100040000000  0.5138250000000  0.5979470000000 1.0
C      1  0.5142300000000  0.3989540000000  0.5271050000000 1.0
C      1  0.4442590000000  0.5807960000000  0.4907620000000 1.0
C      1  0.4658400000000  0.4315090000000  0.5691720000000 1.0
C      1  0.4918660000000  0.5914110000000  0.4517450000000 1.0
C      1  0.4307670000000  0.5465040000000  0.4394940000000 1.0
C      1  0.4652430000000  0.4858080000000  0.5808720000000 1.0
C      1  0.4696230000000  0.4465090000000  0.4509840000000 1.0
C      1  0.4672900000000  0.4276800000000  0.4869740000000 1.0
C      1  0.4453690000000  0.5201390000000  0.4292760000000 1.0
C      1  0.5871800000000  0.5496020000000  0.4655840000000 1.0
C      1  0.5575150000000  0.5405890000000  0.5376800000000 1.0
C      1  0.4886590000000  0.4527760000000  0.4953840000000 1.0
C      1  0.4187670000000  0.4591840000000  0.5470370000000 1.0
C      1  0.4126930000000  0.4811200000000  0.5662460000000 1.0
C      1  0.4945060000000  0.4297500000000  0.4398370000000 1.0
C      1  0.4814310000000  0.4999580000000  0.6072440000000 1.0
C      1  0.5628000000000  0.5321510000000  0.6044300000000 1.0
C      1  0.4525550000000  0.5120710000000  0.5634000000000 1.0
C      1  0.4548500000000  0.5145080000000  0.5235740000000 1.0
C      1  0.4929480000000  0.5478020000000  0.4048910000000 1.0
C      1  0.5679660000000  0.5643720000000  0.4451430000000 1.0
C      1  0.5221780000000  0.4292710000000  0.5274910000000 1.0
C      1  0.4137740000000  0.4865690000000  0.4690370000000 1.0
C      1  0.5573960000000  0.5171600000000  0.4967420000000 1.0
C      1  0.5264930000000  0.5314820000000  0.5047260000000 1.0
C      1  0.4731610000000  0.5243700000000  0.5869880000000 1.0
C      1  0.5219630000000  0.4115700000000  0.4483350000000 1.0
C      1  0.5055710000000  0.5109610000000  0.4310600000000 1.0
C      1  0.4859440000000  0.5330060000000  0.5573820000000 1.0
C      1  0.4004100000000  0.4461460000000  0.5314020000000 1.0
C      1  0.4718620000000  0.5529170000000  0.4983460000000 1.0
C      1  0.4294450000000  0.4923990000000  0.5188890000000 1.0
C      1  0.4961330000000  0.4704990000000  0.5503700000000 1.0
C      1  0.3865120000000  0.5242980000000  0.4691190000000 1.0
C      1  0.4157210000000  0.5376020000000  0.5183060000000 1.0
C      1  0.4920030000000  0.4449290000000  0.5283090000000 1.0
C      1  0.5618870000000  0.4816860000000  0.5213910000000 1.0
C      1  0.4028070000000  0.4799840000000  0.5102750000000 1.0
C      1  0.5446260000000  0.4272820000000  0.4684160000000 1.0
C      1  0.5983260000000  0.4998800000000  0.4739550000000 1.0
C      1  0.4451650000000  0.4511600000000  0.4870110000000 1.0
C      1  0.5725030000000  0.5866710000000  0.4678590000000 1.0
C      1  0.4933190000000  0.4624510000000  0.4143000000000 1.0
C      1  0.4622410000000  0.4883330000000  0.5410640000000 1.0
C      1  0.5063350000000  0.5740900000000  0.4354080000000 1.0
C      1  0.5278700000000  0.5550240000000  0.5292490000000 1.0
C      1  0.5522100000000  0.5739720000000  0.4181550000000 1.0
C      1  0.4655170000000  0.4785690000000  0.4133630000000 1.0
C      1  0.5108220000000  0.4352600000000  0.4037980000000 1.0
C      1  0.4317640000000  0.4263380000000  0.5052810000000 1.0
C      1  0.4999980000000  0.3923860000000  0.5045860000000 1.0
C      1  0.5886920000000  0.5066560000000  0.5058510000000 1.0
C      1  0.4897150000000  0.4680990000000  0.5965220000000 1.0
C      1  0.5359820000000  0.5357950000000  0.5957490000000 1.0
C      1  0.4556990000000  0.5666520000000  0.4383640000000 1.0
C      1  0.4811990000000  0.5944790000000  0.5247080000000 1.0
C      1  0.5342420000000  0.4923300000000  0.4948120000000 1.0
C      1  0.5751060000000  0.4409900000000  0.4469030000000 1.0
C      1  0.5177270000000  0.4013480000000  0.4809180000000 1.0
C      1  0.5225890000000  0.5885890000000  0.5668930000000 1.0
C      1  0.3937880000000  0.5032730000000  0.4877580000000 1.0
C      1  0.4471160000000  0.4610590000000  0.5361440000000 1.0
END
