TITL C-2848503-6230-189 0.000316275523545564 125000 -455.492580259771 0 0 87 (C1) n - 1
REM
REM in /home/bkarasulu/work/CARBON/AIRSS/Generating-Clusters/AIREBO/with-SteepDescent/Only-C1/SD-CG-opt/Try1-1.4A-POS3A/HFTN-CG
REM
REM
REM
REM
REM
REM ./C.cell (11c1c37f851c82e70ff6c80c92926a4b)
REM
REM compiler GCC version 9.2.1 20190827 (Red Hat 9.2.1-1)
REM options -cpp -mtune=generic -march=x86-64 -g -O0 -fpre-include=/usr/include/finclude/math-vector-fortran.h
REM seed 2101378769 1799904691 1618854197 64721203 -1681269321 2123428902 -1212155554 469320034 569321301 2020837868 375696655 848418151 1154019498 1431925576 401820160 1245521501 1810394440 -1981234510 913266147 1967058592 -1583175416 -1379611124 -1355488432 -335051639 -604754639 -1081984067 -2095569962 944057134 -869870702 1410022372 1813982329 -1872204544 -1338939357
REM
CELL 1.54180   50.00000   50.00000   50.00000   90.00000   90.00000   90.00000
LATT -1
SFAC C  
C      1  0.4668160000000  0.5495100000000  0.4487540000000 1.0
C      1  0.4305160000000  0.5593730000000  0.5236090000000 1.0
C      1  0.4370080000000  0.5545080000000  0.4940070000000 1.0
C      1  0.4320290000000  0.4580120000000  0.4764280000000 1.0
C      1  0.4824840000000  0.5743910000000  0.5042730000000 1.0
C      1  0.5029590000000  0.5302380000000  0.5948910000000 1.0
C      1  0.5119340000000  0.5216350000000  0.5700090000000 1.0
C      1  0.5079700000000  0.4349060000000  0.4819990000000 1.0
C      1  0.4284330000000  0.5073780000000  0.4784130000000 1.0
C      1  0.5344450000000  0.5724270000000  0.4884000000000 1.0
C      1  0.4645300000000  0.5233110000000  0.5156320000000 1.0
C      1  0.5054440000000  0.4743170000000  0.4349440000000 1.0
C      1  0.4565440000000  0.4895430000000  0.4783790000000 1.0
C      1  0.4504960000000  0.5316920000000  0.4726940000000 1.0
C      1  0.5280040000000  0.5676430000000  0.5405950000000 1.0
C      1  0.5665840000000  0.5178280000000  0.4440220000000 1.0
C      1  0.4792500000000  0.4210570000000  0.5207330000000 1.0
C      1  0.5621030000000  0.5436270000000  0.5189560000000 1.0
C      1  0.5436790000000  0.5449080000000  0.4972050000000 1.0
C      1  0.4595220000000  0.4675950000000  0.4324720000000 1.0
C      1  0.5484190000000  0.4409120000000  0.5131900000000 1.0
C      1  0.4359780000000  0.4616860000000  0.5309170000000 1.0
C      1  0.4371430000000  0.4778670000000  0.4530080000000 1.0
C      1  0.5016840000000  0.4142590000000  0.5041290000000 1.0
C      1  0.4795120000000  0.4500120000000  0.4718000000000 1.0
C      1  0.5291360000000  0.5210990000000  0.4842220000000 1.0
C      1  0.5502950000000  0.4659100000000  0.4672190000000 1.0
C      1  0.5767740000000  0.4412030000000  0.4998910000000 1.0
C      1  0.4750260000000  0.5724970000000  0.5364550000000 1.0
C      1  0.5172500000000  0.5409060000000  0.4181320000000 1.0
C      1  0.4849010000000  0.4918910000000  0.5931440000000 1.0
C      1  0.5449010000000  0.4387040000000  0.5660030000000 1.0
C      1  0.5154750000000  0.4874410000000  0.5379970000000 1.0
C      1  0.5758610000000  0.5192600000000  0.5113520000000 1.0
C      1  0.4803860000000  0.5857680000000  0.4767110000000 1.0
C      1  0.5449260000000  0.4684610000000  0.4334600000000 1.0
C      1  0.5506960000000  0.4998900000000  0.4686800000000 1.0
C      1  0.4584580000000  0.5310100000000  0.5540460000000 1.0
C      1  0.4486580000000  0.4310020000000  0.5319040000000 1.0
C      1  0.4742570000000  0.5171830000000  0.4412210000000 1.0
C      1  0.4792600000000  0.4857990000000  0.4533550000000 1.0
C      1  0.5196660000000  0.5550640000000  0.4466100000000 1.0
C      1  0.4940190000000  0.4863440000000  0.5645790000000 1.0
C      1  0.5148640000000  0.4352070000000  0.5682120000000 1.0
C      1  0.5119900000000  0.5226220000000  0.4532930000000 1.0
C      1  0.4755370000000  0.4932680000000  0.5237130000000 1.0
C      1  0.5129840000000  0.4595820000000  0.5229150000000 1.0
C      1  0.4646110000000  0.5483450000000  0.5059840000000 1.0
C      1  0.5051410000000  0.4462370000000  0.4499860000000 1.0
C      1  0.4945420000000  0.4557110000000  0.5586360000000 1.0
C      1  0.4418550000000  0.5099560000000  0.5371790000000 1.0
C      1  0.4089800000000  0.4658600000000  0.4908940000000 1.0
C      1  0.4836560000000  0.5230780000000  0.4728640000000 1.0
C      1  0.4131870000000  0.4919820000000  0.5028660000000 1.0
C      1  0.5636710000000  0.4967680000000  0.5222850000000 1.0
C      1  0.5398940000000  0.4880780000000  0.5063330000000 1.0
C      1  0.5493320000000  0.4331650000000  0.4639390000000 1.0
C      1  0.4991280000000  0.5180760000000  0.4221110000000 1.0
C      1  0.5286870000000  0.4596420000000  0.4927470000000 1.0
C      1  0.4562930000000  0.4511530000000  0.4890990000000 1.0
C      1  0.5296510000000  0.4125100000000  0.5166570000000 1.0
C      1  0.4521820000000  0.5573380000000  0.5428920000000 1.0
C      1  0.5795500000000  0.4582310000000  0.4810450000000 1.0
C      1  0.4564340000000  0.5808850000000  0.4569200000000 1.0
C      1  0.5652770000000  0.5434880000000  0.4629250000000 1.0
C      1  0.5128940000000  0.5081740000000  0.5111550000000 1.0
C      1  0.4625100000000  0.4650220000000  0.5161660000000 1.0
C      1  0.5120460000000  0.5650620000000  0.5108090000000 1.0
C      1  0.5069250000000  0.5359500000000  0.5284170000000 1.0
C      1  0.5439660000000  0.5627210000000  0.4616200000000 1.0
C      1  0.5366730000000  0.4990400000000  0.5698690000000 1.0
C      1  0.4984370000000  0.5623390000000  0.5481080000000 1.0
C      1  0.5284060000000  0.4944730000000  0.4435810000000 1.0
C      1  0.5519400000000  0.4521940000000  0.5431900000000 1.0
C      1  0.4131460000000  0.5003460000000  0.4490700000000 1.0
C      1  0.5758190000000  0.5179700000000  0.4827700000000 1.0
C      1  0.4860330000000  0.4989240000000  0.4924660000000 1.0
C      1  0.4836170000000  0.4499520000000  0.5300870000000 1.0
C      1  0.5181630000000  0.4315730000000  0.5373660000000 1.0
C      1  0.5427720000000  0.5263830000000  0.5562360000000 1.0
C      1  0.5474340000000  0.4814930000000  0.5449480000000 1.0
C      1  0.5489830000000  0.5493660000000  0.5436710000000 1.0
C      1  0.4878380000000  0.5147990000000  0.5469970000000 1.0
C      1  0.4251390000000  0.4885800000000  0.5287470000000 1.0
C      1  0.5009110000000  0.4731460000000  0.4049270000000 1.0
C      1  0.4936380000000  0.5683840000000  0.4543970000000 1.0
C      1  0.5018320000000  0.4748580000000  0.4774620000000 1.0
END
