TITL C-2847948-6138-20 -0.000122044345609753 125000 -144.138193378352 0 0 26 (C1) n - 1
REM
REM in /home/bkarasulu/work/CARBON/AIRSS/Generating-Clusters/AIREBO/with-SteepDescent/Only-C1/SD-CG-opt/Try1-1.4A-POS3A/HFTN-CG
REM
REM
REM
REM
REM
REM ./C.cell (11c1c37f851c82e70ff6c80c92926a4b)
REM
REM compiler GCC version 9.2.1 20190827 (Red Hat 9.2.1-1)
REM options -cpp -mtune=generic -march=x86-64 -g -O0 -fpre-include=/usr/include/finclude/math-vector-fortran.h
REM seed -1860976826 1871574619 -1324349833 -339954881 1232151421 -1503377090 1027172112 -882461884 -1242163135 1072145574 -120368239 -1189848679 -1288402933 614557508 -920504509 703792120 -1891487802 -633626426 1753708574 -1726490563 1109767870 -589916480 453239054 216805477 663418264 774086957 -204704880 -1535662773 -856411463 -332830399 168452015 -1922672082 1837937683
REM
CELL 1.54180   50.00000   50.00000   50.00000   90.00000   90.00000   90.00000
LATT -1
SFAC C  
C      1  0.4767350000000  0.5200390000000  0.4732420000000 1.0
C      1  0.4963710000000  0.5387360000000  0.5140020000000 1.0
C      1  0.5380600000000  0.5213250000000  0.5044430000000 1.0
C      1  0.5249270000000  0.5392770000000  0.4824680000000 1.0
C      1  0.4818090000000  0.4680600000000  0.4512410000000 1.0
C      1  0.4871680000000  0.4915030000000  0.4600390000000 1.0
C      1  0.5029680000000  0.5857240000000  0.4913880000000 1.0
C      1  0.5440650000000  0.4754000000000  0.4819470000000 1.0
C      1  0.5334750000000  0.5006130000000  0.4821460000000 1.0
C      1  0.4497940000000  0.4868850000000  0.5568410000000 1.0
C      1  0.4759340000000  0.4451560000000  0.4399370000000 1.0
C      1  0.4561130000000  0.4889090000000  0.5306400000000 1.0
C      1  0.5076440000000  0.5599340000000  0.4952250000000 1.0
C      1  0.4652340000000  0.4677340000000  0.5165370000000 1.0
C      1  0.4294920000000  0.5272320000000  0.5191280000000 1.0
C      1  0.5092010000000  0.5156570000000  0.4655990000000 1.0
C      1  0.5443400000000  0.4471230000000  0.5196990000000 1.0
C      1  0.5210070000000  0.5069240000000  0.5482560000000 1.0
C      1  0.4601430000000  0.5357590000000  0.4573110000000 1.0
C      1  0.4745380000000  0.5244020000000  0.5030250000000 1.0
C      1  0.5436900000000  0.4276500000000  0.4756070000000 1.0
C      1  0.5440570000000  0.4491960000000  0.4917600000000 1.0
C      1  0.4529520000000  0.5139210000000  0.5175770000000 1.0
C      1  0.5291260000000  0.4816880000000  0.5539600000000 1.0
C      1  0.5181410000000  0.5233870000000  0.5261060000000 1.0
C      1  0.5330170000000  0.4577670000000  0.5418740000000 1.0
END
