TITL C-2848502-4955-133 -8.95360553507573e-05 125000 -772.278659687983 0 0 144 (C1) n - 1
REM
REM in /home/bkarasulu/work/CARBON/AIRSS/Generating-Clusters/AIREBO/with-SteepDescent/Only-C1/SD-CG-opt/Try1-1.4A-POS3A/HFTN-CG
REM
REM
REM
REM
REM
REM ./C.cell (11c1c37f851c82e70ff6c80c92926a4b)
REM
REM compiler GCC version 9.2.1 20190827 (Red Hat 9.2.1-1)
REM options -cpp -mtune=generic -march=x86-64 -g -O0 -fpre-include=/usr/include/finclude/math-vector-fortran.h
REM seed -1323803117 -190699344 583085428 1209051640 584416423 311325323 263821807 -1741622336 1332075801 -270716827 309071207 -1169215548 1042025304 1758627690 1861032279 62224443 1813402223 1329873762 -1553529112 -1147674153 -751428867 902921402 1729372591 2021040935 -2138131901 -116612080 503634429 -412309743 -55623037 -1868957828 1152976161 -1587716086 355988333
REM
CELL 1.54180   50.00000   50.00000   50.00000   90.00000   90.00000   90.00000
LATT -1
SFAC C  
C      1  0.5739130000000  0.4828760000000  0.5071620000000 1.0
C      1  0.5890630000000  0.4725820000000  0.4785060000000 1.0
C      1  0.5702700000000  0.5207830000000  0.4488080000000 1.0
C      1  0.5484910000000  0.5605870000000  0.4716380000000 1.0
C      1  0.4536530000000  0.4290100000000  0.5373480000000 1.0
C      1  0.5678410000000  0.4610200000000  0.4433560000000 1.0
C      1  0.4387210000000  0.4539550000000  0.5426380000000 1.0
C      1  0.4837990000000  0.4744700000000  0.4563520000000 1.0
C      1  0.4274250000000  0.5729820000000  0.4607280000000 1.0
C      1  0.4471280000000  0.5875040000000  0.4829310000000 1.0
C      1  0.4470800000000  0.4182980000000  0.5103140000000 1.0
C      1  0.5330880000000  0.4934580000000  0.4775110000000 1.0
C      1  0.4425830000000  0.4469420000000  0.5035340000000 1.0
C      1  0.5450850000000  0.4554190000000  0.5057030000000 1.0
C      1  0.4761380000000  0.5518150000000  0.5729970000000 1.0
C      1  0.4599250000000  0.5306590000000  0.5433270000000 1.0
C      1  0.5140880000000  0.5043610000000  0.5236340000000 1.0
C      1  0.5404180000000  0.4076080000000  0.4797100000000 1.0
C      1  0.4689330000000  0.4552180000000  0.4747970000000 1.0
C      1  0.4977970000000  0.4330380000000  0.5646260000000 1.0
C      1  0.5750420000000  0.4454310000000  0.4934270000000 1.0
C      1  0.4868630000000  0.4908870000000  0.5667600000000 1.0
C      1  0.4984540000000  0.4100070000000  0.5179570000000 1.0
C      1  0.4371830000000  0.5392200000000  0.5195420000000 1.0
C      1  0.4962750000000  0.5505110000000  0.4117140000000 1.0
C      1  0.4367970000000  0.4894520000000  0.4506440000000 1.0
C      1  0.4364970000000  0.4350900000000  0.4382990000000 1.0
C      1  0.5205670000000  0.5876840000000  0.5249350000000 1.0
C      1  0.5474750000000  0.5375100000000  0.4950980000000 1.0
C      1  0.5471660000000  0.5001780000000  0.5456320000000 1.0
C      1  0.4390680000000  0.4847970000000  0.5849120000000 1.0
C      1  0.5526590000000  0.5256250000000  0.5325330000000 1.0
C      1  0.5137340000000  0.4526640000000  0.4220310000000 1.0
C      1  0.4632780000000  0.4739970000000  0.5392840000000 1.0
C      1  0.4984300000000  0.4502650000000  0.5122790000000 1.0
C      1  0.4810630000000  0.5980980000000  0.5007810000000 1.0
C      1  0.5988390000000  0.4513650000000  0.4537920000000 1.0
C      1  0.5370870000000  0.4999760000000  0.4172950000000 1.0
C      1  0.4481620000000  0.5320460000000  0.5728400000000 1.0
C      1  0.5029640000000  0.5172950000000  0.5530470000000 1.0
C      1  0.4827250000000  0.5676160000000  0.5163500000000 1.0
C      1  0.4898490000000  0.5467710000000  0.5422840000000 1.0
C      1  0.4884080000000  0.4313220000000  0.4255140000000 1.0
C      1  0.4420560000000  0.4605200000000  0.4603190000000 1.0
C      1  0.5175200000000  0.4677860000000  0.5778360000000 1.0
C      1  0.5122340000000  0.4681660000000  0.4867760000000 1.0
C      1  0.5331730000000  0.4253750000000  0.4291140000000 1.0
C      1  0.4998450000000  0.4803660000000  0.6028700000000 1.0
C      1  0.4157050000000  0.4405070000000  0.4636980000000 1.0
C      1  0.4718790000000  0.6034770000000  0.4684880000000 1.0
C      1  0.4269580000000  0.5011310000000  0.5131520000000 1.0
C      1  0.5300510000000  0.5492050000000  0.4484980000000 1.0
C      1  0.5792880000000  0.4553210000000  0.5263600000000 1.0
C      1  0.4552530000000  0.5589650000000  0.4989480000000 1.0
C      1  0.4060230000000  0.5256490000000  0.5182400000000 1.0
C      1  0.5348930000000  0.5861530000000  0.4815000000000 1.0
C      1  0.5477420000000  0.4773470000000  0.5782100000000 1.0
C      1  0.5428700000000  0.5040980000000  0.4492100000000 1.0
C      1  0.4147380000000  0.4703430000000  0.5355450000000 1.0
C      1  0.5651690000000  0.4854650000000  0.4216520000000 1.0
C      1  0.4573860000000  0.4053250000000  0.4876340000000 1.0
C      1  0.4330490000000  0.5040120000000  0.4813500000000 1.0
C      1  0.5226290000000  0.4064800000000  0.4504450000000 1.0
C      1  0.4847050000000  0.4968480000000  0.4086180000000 1.0
C      1  0.4305530000000  0.5076320000000  0.5700410000000 1.0
C      1  0.5424930000000  0.4483800000000  0.4494080000000 1.0
C      1  0.4870930000000  0.4548870000000  0.5841450000000 1.0
C      1  0.5195940000000  0.4501720000000  0.5360030000000 1.0
C      1  0.4972710000000  0.5058860000000  0.4356970000000 1.0
C      1  0.4277960000000  0.5654610000000  0.5393640000000 1.0
C      1  0.5558230000000  0.5456540000000  0.5673550000000 1.0
C      1  0.5548970000000  0.5638850000000  0.5430690000000 1.0
C      1  0.5200770000000  0.5831720000000  0.5691490000000 1.0
C      1  0.4856830000000  0.4971840000000  0.5062240000000 1.0
C      1  0.4665050000000  0.4714860000000  0.4308540000000 1.0
C      1  0.5823330000000  0.5523910000000  0.4522680000000 1.0
C      1  0.4177350000000  0.4996760000000  0.5458610000000 1.0
C      1  0.4920770000000  0.5870740000000  0.4505160000000 1.0
C      1  0.5308000000000  0.5351240000000  0.5789640000000 1.0
C      1  0.5616940000000  0.5639600000000  0.5110490000000 1.0
C      1  0.5802370000000  0.5567030000000  0.4834730000000 1.0
C      1  0.4845620000000  0.4312570000000  0.5369980000000 1.0
C      1  0.5834000000000  0.5282640000000  0.5296280000000 1.0
C      1  0.4587150000000  0.5350680000000  0.4373220000000 1.0
C      1  0.5211480000000  0.5599420000000  0.5443450000000 1.0
C      1  0.4940480000000  0.5891860000000  0.5400910000000 1.0
C      1  0.4546810000000  0.5011260000000  0.5311040000000 1.0
C      1  0.4172450000000  0.4508820000000  0.4919420000000 1.0
C      1  0.5292380000000  0.5049710000000  0.5707850000000 1.0
C      1  0.5073440000000  0.5371970000000  0.4707300000000 1.0
C      1  0.5746410000000  0.5416210000000  0.4228950000000 1.0
C      1  0.6054110000000  0.5004210000000  0.4899030000000 1.0
C      1  0.3805940000000  0.5122180000000  0.5096900000000 1.0
C      1  0.5131250000000  0.4645190000000  0.4531870000000 1.0
C      1  0.5038330000000  0.5839780000000  0.4810870000000 1.0
C      1  0.4033600000000  0.5507560000000  0.5374440000000 1.0
C      1  0.4770890000000  0.4244070000000  0.4724020000000 1.0
C      1  0.4943170000000  0.4149070000000  0.4479350000000 1.0
C      1  0.4470260000000  0.5847980000000  0.5397680000000 1.0
C      1  0.5541180000000  0.4044680000000  0.5106810000000 1.0
C      1  0.4941010000000  0.5091160000000  0.5939720000000 1.0
C      1  0.4611970000000  0.5198610000000  0.5049320000000 1.0
C      1  0.4035910000000  0.4962950000000  0.4716280000000 1.0
C      1  0.4923400000000  0.5361270000000  0.4422780000000 1.0
C      1  0.5648860000000  0.4651950000000  0.5514740000000 1.0
C      1  0.5016920000000  0.5356260000000  0.5885510000000 1.0
C      1  0.5980300000000  0.5012000000000  0.5220160000000 1.0
C      1  0.5169160000000  0.5762260000000  0.4340820000000 1.0
C      1  0.4510810000000  0.5971520000000  0.5153090000000 1.0
C      1  0.5425250000000  0.5895430000000  0.5088730000000 1.0
C      1  0.3886580000000  0.4891590000000  0.4949330000000 1.0
C      1  0.5072630000000  0.5083060000000  0.4843860000000 1.0
C      1  0.5592920000000  0.5085890000000  0.4903830000000 1.0
C      1  0.5718960000000  0.4204400000000  0.4786350000000 1.0
C      1  0.4502120000000  0.5515190000000  0.4658540000000 1.0
C      1  0.5135960000000  0.4819770000000  0.4085530000000 1.0
C      1  0.5064520000000  0.5541680000000  0.4962940000000 1.0
C      1  0.5532840000000  0.4389700000000  0.5689330000000 1.0
C      1  0.4040220000000  0.4934730000000  0.4425330000000 1.0
C      1  0.5782760000000  0.5274790000000  0.5629630000000 1.0
C      1  0.4588050000000  0.5206100000000  0.4743150000000 1.0
C      1  0.4580630000000  0.5042650000000  0.4285830000000 1.0
C      1  0.4016850000000  0.4675220000000  0.5090660000000 1.0
C      1  0.5864010000000  0.5284220000000  0.4956960000000 1.0
C      1  0.5251930000000  0.5563880000000  0.4096270000000 1.0
C      1  0.4626870000000  0.4440670000000  0.4258140000000 1.0
C      1  0.5435180000000  0.5330790000000  0.4217430000000 1.0
C      1  0.5299210000000  0.4399560000000  0.4798550000000 1.0
C      1  0.4701960000000  0.4665360000000  0.5068390000000 1.0
C      1  0.3554930000000  0.5217600000000  0.5139280000000 1.0
C      1  0.5464090000000  0.4327570000000  0.5270620000000 1.0
C      1  0.5239580000000  0.5367020000000  0.5196450000000 1.0
C      1  0.5784460000000  0.4214330000000  0.5258690000000 1.0
C      1  0.5416210000000  0.4852970000000  0.5175890000000 1.0
C      1  0.5278290000000  0.4324240000000  0.5623100000000 1.0
C      1  0.5805120000000  0.4914640000000  0.4515530000000 1.0
C      1  0.4626210000000  0.4704610000000  0.5717290000000 1.0
C      1  0.4825090000000  0.5046580000000  0.4648890000000 1.0
C      1  0.5112860000000  0.4789780000000  0.5463210000000 1.0
C      1  0.5158830000000  0.3913760000000  0.4970950000000 1.0
C      1  0.5032170000000  0.4204260000000  0.4865160000000 1.0
C      1  0.4701530000000  0.5793370000000  0.5545140000000 1.0
C      1  0.4761100000000  0.5651860000000  0.4353150000000 1.0
C      1  0.5744320000000  0.4948320000000  0.5651370000000 1.0
END
