TITL C-2847956-8218-403 -0.00142306776589898 125000 -566.878605574791 0 0 107 (C1) n - 1
REM
REM in /home/bkarasulu/work/CARBON/AIRSS/Generating-Clusters/AIREBO/with-SteepDescent/Only-C1/SD-CG-opt/Try1-1.4A-POS3A/HFTN-CG
REM
REM
REM
REM
REM
REM ./C.cell (11c1c37f851c82e70ff6c80c92926a4b)
REM
REM compiler GCC version 9.2.1 20190827 (Red Hat 9.2.1-1)
REM options -cpp -mtune=generic -march=x86-64 -g -O0 -fpre-include=/usr/include/finclude/math-vector-fortran.h
REM seed -2105271269 -328805277 835525710 -106315847 622121161 -360654753 -633201967 -2049576509 -1189921682 983963512 312525646 -2052030951 -668053078 397716602 1281527721 1803528259 -1081365787 -855499716 -1916209811 393756899 887905179 -1392870000 1167571994 3203007 290552732 -2062335346 -1972030368 1254623510 680580850 195812610 -1715697582 -538638520 -2139415509
REM
CELL 1.54180   50.00000   50.00000   50.00000   90.00000   90.00000   90.00000
LATT -1
SFAC C  
C      1  0.4487860000000  0.5739470000000  0.5348960000000 1.0
C      1  0.4688590000000  0.4449040000000  0.5497310000000 1.0
C      1  0.4739880000000  0.3981960000000  0.5320770000000 1.0
C      1  0.4704400000000  0.4961350000000  0.5331840000000 1.0
C      1  0.4267220000000  0.5114410000000  0.5554470000000 1.0
C      1  0.4619090000000  0.4767090000000  0.5595900000000 1.0
C      1  0.4390400000000  0.5488750000000  0.5159730000000 1.0
C      1  0.5014120000000  0.4770410000000  0.5766420000000 1.0
C      1  0.5023590000000  0.5528320000000  0.5767300000000 1.0
C      1  0.4666750000000  0.5382900000000  0.5331800000000 1.0
C      1  0.4447420000000  0.5762610000000  0.4434220000000 1.0
C      1  0.4864870000000  0.5257770000000  0.4508540000000 1.0
C      1  0.4368650000000  0.5012430000000  0.4325020000000 1.0
C      1  0.4582400000000  0.5540700000000  0.4653670000000 1.0
C      1  0.5975210000000  0.4909650000000  0.4895440000000 1.0
C      1  0.4367800000000  0.5187690000000  0.5084050000000 1.0
C      1  0.5184840000000  0.4303500000000  0.5466960000000 1.0
C      1  0.5682250000000  0.5378340000000  0.4762460000000 1.0
C      1  0.4984650000000  0.4781980000000  0.5438590000000 1.0
C      1  0.4789840000000  0.5695640000000  0.5280210000000 1.0
C      1  0.5459610000000  0.5907980000000  0.4776930000000 1.0
C      1  0.5208680000000  0.4624910000000  0.4258140000000 1.0
C      1  0.4422570000000  0.4698610000000  0.4358780000000 1.0
C      1  0.4365950000000  0.4971260000000  0.5299060000000 1.0
C      1  0.4615180000000  0.5862810000000  0.4762190000000 1.0
C      1  0.4240900000000  0.5081600000000  0.4592850000000 1.0
C      1  0.5245360000000  0.5478370000000  0.5910610000000 1.0
C      1  0.5127520000000  0.4364820000000  0.4340200000000 1.0
C      1  0.5415890000000  0.5244650000000  0.5224350000000 1.0
C      1  0.4850320000000  0.4798860000000  0.4868380000000 1.0
C      1  0.5160420000000  0.5547090000000  0.4219700000000 1.0
C      1  0.5287500000000  0.4269010000000  0.4557970000000 1.0
C      1  0.4919250000000  0.5533030000000  0.4348590000000 1.0
C      1  0.4709970000000  0.5265530000000  0.4807890000000 1.0
C      1  0.4836750000000  0.4438510000000  0.4603520000000 1.0
C      1  0.4489210000000  0.5329360000000  0.4403760000000 1.0
C      1  0.4727370000000  0.4231110000000  0.4850520000000 1.0
C      1  0.4462210000000  0.5318850000000  0.5596190000000 1.0
C      1  0.4802790000000  0.4313580000000  0.4294140000000 1.0
C      1  0.5039560000000  0.4910330000000  0.5128430000000 1.0
C      1  0.5183460000000  0.5864640000000  0.4879390000000 1.0
C      1  0.5688260000000  0.4643970000000  0.4588040000000 1.0
C      1  0.4431210000000  0.4444190000000  0.5288230000000 1.0
C      1  0.4913160000000  0.5616950000000  0.4675600000000 1.0
C      1  0.5451820000000  0.4500100000000  0.4645180000000 1.0
C      1  0.4876550000000  0.4483310000000  0.5778600000000 1.0
C      1  0.4924760000000  0.5992110000000  0.4808770000000 1.0
C      1  0.5730020000000  0.4517770000000  0.5048320000000 1.0
C      1  0.5765130000000  0.4668720000000  0.5278890000000 1.0
C      1  0.5107360000000  0.5464280000000  0.5347630000000 1.0
C      1  0.5322530000000  0.4188020000000  0.4857370000000 1.0
C      1  0.4826600000000  0.5721060000000  0.4987610000000 1.0
C      1  0.5143660000000  0.4020050000000  0.4976220000000 1.0
C      1  0.5196590000000  0.5582990000000  0.5041440000000 1.0
C      1  0.4311800000000  0.5510410000000  0.4857410000000 1.0
C      1  0.5591850000000  0.5522810000000  0.5451620000000 1.0
C      1  0.4808140000000  0.5014810000000  0.5732510000000 1.0
C      1  0.5715470000000  0.5042490000000  0.4748710000000 1.0
C      1  0.5588840000000  0.4934650000000  0.4460880000000 1.0
C      1  0.4951500000000  0.4725520000000  0.4578380000000 1.0
C      1  0.5507310000000  0.4928690000000  0.5639510000000 1.0
C      1  0.4461890000000  0.5077230000000  0.4826000000000 1.0
C      1  0.5148570000000  0.5273550000000  0.5001200000000 1.0
C      1  0.4410680000000  0.4618640000000  0.4624320000000 1.0
C      1  0.4855220000000  0.4824130000000  0.4273530000000 1.0
C      1  0.5439910000000  0.5569540000000  0.4803030000000 1.0
C      1  0.5087870000000  0.4780640000000  0.4043560000000 1.0
C      1  0.4326880000000  0.4855260000000  0.5679390000000 1.0
C      1  0.5398480000000  0.4461880000000  0.5376220000000 1.0
C      1  0.4205700000000  0.4825600000000  0.5058220000000 1.0
C      1  0.5268500000000  0.4830220000000  0.4513360000000 1.0
C      1  0.5487790000000  0.5396710000000  0.5814080000000 1.0
C      1  0.5300780000000  0.4827610000000  0.5860560000000 1.0
C      1  0.4668770000000  0.4113200000000  0.5527570000000 1.0
C      1  0.5351010000000  0.5662350000000  0.5478060000000 1.0
C      1  0.5017530000000  0.5748830000000  0.5510720000000 1.0
C      1  0.5394680000000  0.5419260000000  0.4355890000000 1.0
C      1  0.4840060000000  0.5185800000000  0.5114940000000 1.0
C      1  0.5825520000000  0.5351030000000  0.5046760000000 1.0
C      1  0.4609470000000  0.5258150000000  0.5825800000000 1.0
C      1  0.5149320000000  0.4590060000000  0.5094900000000 1.0
C      1  0.5290730000000  0.4701210000000  0.4827150000000 1.0
C      1  0.5535340000000  0.5210300000000  0.5540980000000 1.0
C      1  0.5432510000000  0.4406000000000  0.5050980000000 1.0
C      1  0.5626480000000  0.5272250000000  0.4441770000000 1.0
C      1  0.4875980000000  0.4141900000000  0.5079630000000 1.0
C      1  0.5324700000000  0.4765340000000  0.5408770000000 1.0
C      1  0.5485850000000  0.4926380000000  0.4919150000000 1.0
C      1  0.5844800000000  0.4649370000000  0.4823520000000 1.0
C      1  0.4903360000000  0.5290920000000  0.5558210000000 1.0
C      1  0.4653320000000  0.4594110000000  0.4222410000000 1.0
C      1  0.4616250000000  0.4172190000000  0.4536280000000 1.0
C      1  0.4366020000000  0.4555490000000  0.5011960000000 1.0
C      1  0.5851090000000  0.5079490000000  0.5122050000000 1.0
C      1  0.5565960000000  0.4940190000000  0.5244470000000 1.0
C      1  0.5151990000000  0.5127420000000  0.5365300000000 1.0
C      1  0.4940480000000  0.4391100000000  0.5275210000000 1.0
C      1  0.5792790000000  0.5539080000000  0.5254390000000 1.0
C      1  0.4416530000000  0.4335090000000  0.4760130000000 1.0
C      1  0.5155440000000  0.5143740000000  0.4518020000000 1.0
C      1  0.4548910000000  0.4795960000000  0.4855120000000 1.0
C      1  0.4118380000000  0.5317640000000  0.4785160000000 1.0
C      1  0.5750040000000  0.4735250000000  0.5557410000000 1.0
C      1  0.5194690000000  0.5463300000000  0.4627340000000 1.0
C      1  0.5264630000000  0.5104630000000  0.4803420000000 1.0
C      1  0.4698540000000  0.5079190000000  0.4307730000000 1.0
C      1  0.4073710000000  0.5000970000000  0.4879140000000 1.0
END
