TITL C-2847956-8218-361 -0.00269146209448069 125000 -963.158474360708 0 0 179 (C1) n - 1
REM
REM in /home/bkarasulu/work/CARBON/AIRSS/Generating-Clusters/AIREBO/with-SteepDescent/Only-C1/SD-CG-opt/Try1-1.4A-POS3A/HFTN-CG
REM
REM
REM
REM
REM
REM ./C.cell (11c1c37f851c82e70ff6c80c92926a4b)
REM
REM compiler GCC version 9.2.1 20190827 (Red Hat 9.2.1-1)
REM options -cpp -mtune=generic -march=x86-64 -g -O0 -fpre-include=/usr/include/finclude/math-vector-fortran.h
REM seed 20271953 1265298706 593681172 1738625103 886502557 -1327794457 493369008 -119240572 142452177 298666208 1757973563 330311522 185371768 -1965487335 836747891 894354030 -610045729 -620780093 -962206856 -701209678 -1894253320 -1927959705 -150918768 435523588 641072976 1267034390 -1675894075 -1517613273 1204109560 19935758 456408494 -1311413482 84608707
REM
CELL 1.54180   50.00000   50.00000   50.00000   90.00000   90.00000   90.00000
LATT -1
SFAC C  
C      1  0.5501070000000  0.5045900000000  0.4455160000000 1.0
C      1  0.5229740000000  0.6263740000000  0.5308160000000 1.0
C      1  0.4942290000000  0.5526380000000  0.5376970000000 1.0
C      1  0.5465380000000  0.4629180000000  0.5869200000000 1.0
C      1  0.4805210000000  0.4700140000000  0.4907000000000 1.0
C      1  0.4634840000000  0.5326950000000  0.4768880000000 1.0
C      1  0.4743210000000  0.4192440000000  0.5393360000000 1.0
C      1  0.5305430000000  0.5150110000000  0.4197870000000 1.0
C      1  0.5789850000000  0.5441360000000  0.5333550000000 1.0
C      1  0.4754500000000  0.4046520000000  0.4510420000000 1.0
C      1  0.5250530000000  0.4697480000000  0.4070780000000 1.0
C      1  0.5620080000000  0.4148400000000  0.5642750000000 1.0
C      1  0.4983010000000  0.4676940000000  0.4262160000000 1.0
C      1  0.5524490000000  0.4168710000000  0.5163320000000 1.0
C      1  0.5170260000000  0.4565470000000  0.4814960000000 1.0
C      1  0.3967210000000  0.4691200000000  0.4650330000000 1.0
C      1  0.4582280000000  0.5149390000000  0.5630280000000 1.0
C      1  0.4555640000000  0.4840990000000  0.4542500000000 1.0
C      1  0.4162970000000  0.5507230000000  0.4674900000000 1.0
C      1  0.4250900000000  0.5580500000000  0.5644370000000 1.0
C      1  0.5306610000000  0.5030050000000  0.4858320000000 1.0
C      1  0.4727960000000  0.5018540000000  0.4678000000000 1.0
C      1  0.5652750000000  0.5837980000000  0.4301160000000 1.0
C      1  0.4437450000000  0.4761300000000  0.5817480000000 1.0
C      1  0.4790160000000  0.4852640000000  0.4082130000000 1.0
C      1  0.4179310000000  0.4411180000000  0.5484440000000 1.0
C      1  0.5369440000000  0.5522470000000  0.5050030000000 1.0
C      1  0.4097550000000  0.4449040000000  0.4675830000000 1.0
C      1  0.4219640000000  0.5099740000000  0.6034690000000 1.0
C      1  0.5564300000000  0.4069260000000  0.4869540000000 1.0
C      1  0.5861480000000  0.5453520000000  0.4611610000000 1.0
C      1  0.4203770000000  0.5573800000000  0.4384530000000 1.0
C      1  0.4059250000000  0.4932720000000  0.5884810000000 1.0
C      1  0.4357530000000  0.4581430000000  0.4197460000000 1.0
C      1  0.4664020000000  0.5521560000000  0.4200350000000 1.0
C      1  0.5840370000000  0.5765460000000  0.4611870000000 1.0
C      1  0.4270760000000  0.4351680000000  0.4432620000000 1.0
C      1  0.4987350000000  0.5065020000000  0.6081380000000 1.0
C      1  0.5021330000000  0.4884500000000  0.5508720000000 1.0
C      1  0.5692760000000  0.5684340000000  0.5220280000000 1.0
C      1  0.5577300000000  0.5962270000000  0.4591110000000 1.0
C      1  0.5092690000000  0.5276130000000  0.4629580000000 1.0
C      1  0.5205770000000  0.5475200000000  0.4192110000000 1.0
C      1  0.5097770000000  0.5060610000000  0.4428220000000 1.0
C      1  0.5306250000000  0.5117060000000  0.6051980000000 1.0
C      1  0.4940950000000  0.5004270000000  0.3881350000000 1.0
C      1  0.5609840000000  0.5029110000000  0.5555300000000 1.0
C      1  0.4875840000000  0.5606130000000  0.5850980000000 1.0
C      1  0.5809750000000  0.4174980000000  0.4782590000000 1.0
C      1  0.4684100000000  0.4841990000000  0.5518420000000 1.0
C      1  0.4434120000000  0.5235760000000  0.4519060000000 1.0
C      1  0.5977250000000  0.4736500000000  0.5284310000000 1.0
C      1  0.4953960000000  0.5329350000000  0.4886330000000 1.0
C      1  0.4859630000000  0.5317590000000  0.5943430000000 1.0
C      1  0.5551880000000  0.5830130000000  0.5652370000000 1.0
C      1  0.4908560000000  0.5636360000000  0.4228380000000 1.0
C      1  0.6044980000000  0.4998580000000  0.5195210000000 1.0
C      1  0.4601980000000  0.4115700000000  0.4870160000000 1.0
C      1  0.4993830000000  0.4922150000000  0.4786960000000 1.0
C      1  0.5448300000000  0.4062790000000  0.5441280000000 1.0
C      1  0.5067100000000  0.4030600000000  0.4967830000000 1.0
C      1  0.4605560000000  0.5211290000000  0.4243250000000 1.0
C      1  0.5227150000000  0.4965290000000  0.3968760000000 1.0
C      1  0.4351270000000  0.5533440000000  0.5317720000000 1.0
C      1  0.5329190000000  0.3967970000000  0.4766610000000 1.0
C      1  0.4910540000000  0.5207770000000  0.4220720000000 1.0
C      1  0.4893230000000  0.5285940000000  0.5612510000000 1.0
C      1  0.4139990000000  0.5169330000000  0.4632750000000 1.0
C      1  0.4105790000000  0.5376220000000  0.4219200000000 1.0
C      1  0.5572950000000  0.5057430000000  0.5068000000000 1.0
C      1  0.5030520000000  0.4208400000000  0.4279170000000 1.0
C      1  0.5963750000000  0.4610670000000  0.5531450000000 1.0
C      1  0.5145290000000  0.4759390000000  0.4540810000000 1.0
C      1  0.5144220000000  0.4190830000000  0.5796470000000 1.0
C      1  0.5863540000000  0.5104460000000  0.4975820000000 1.0
C      1  0.4293620000000  0.5104170000000  0.5456140000000 1.0
C      1  0.5190100000000  0.5982560000000  0.5319240000000 1.0
C      1  0.4546030000000  0.5486150000000  0.5661220000000 1.0
C      1  0.4439670000000  0.4289950000000  0.5641330000000 1.0
C      1  0.5391650000000  0.5747040000000  0.4123900000000 1.0
C      1  0.5772290000000  0.4767560000000  0.4531380000000 1.0
C      1  0.4944920000000  0.4515040000000  0.5689060000000 1.0
C      1  0.4905870000000  0.4967040000000  0.5213090000000 1.0
C      1  0.4459030000000  0.5665330000000  0.4347990000000 1.0
C      1  0.4736200000000  0.5722320000000  0.5563490000000 1.0
C      1  0.5676510000000  0.4847380000000  0.4241910000000 1.0
C      1  0.4860850000000  0.5980260000000  0.4632850000000 1.0
C      1  0.5203600000000  0.4832130000000  0.5791050000000 1.0
C      1  0.4820350000000  0.4198700000000  0.5693240000000 1.0
C      1  0.4214390000000  0.5746920000000  0.5119170000000 1.0
C      1  0.5108180000000  0.5625900000000  0.5663090000000 1.0
C      1  0.4479940000000  0.4894300000000  0.4215140000000 1.0
C      1  0.4722160000000  0.4151740000000  0.4206670000000 1.0
C      1  0.4097750000000  0.5359050000000  0.5462610000000 1.0
C      1  0.4466680000000  0.4624230000000  0.4711990000000 1.0
C      1  0.4193370000000  0.4448760000000  0.4944450000000 1.0
C      1  0.5713750000000  0.4374840000000  0.5327970000000 1.0
C      1  0.5109240000000  0.5891620000000  0.4853140000000 1.0
C      1  0.5483180000000  0.4729790000000  0.5052470000000 1.0
C      1  0.5174870000000  0.5167490000000  0.5742350000000 1.0
C      1  0.5373030000000  0.5593420000000  0.5627310000000 1.0
C      1  0.4351730000000  0.4742890000000  0.5009440000000 1.0
C      1  0.5218970000000  0.5243200000000  0.5076170000000 1.0
C      1  0.4762050000000  0.5275190000000  0.5234860000000 1.0
C      1  0.4890950000000  0.4390380000000  0.4892020000000 1.0
C      1  0.4150160000000  0.5382440000000  0.4969150000000 1.0
C      1  0.4472210000000  0.5132380000000  0.5951590000000 1.0
C      1  0.4836100000000  0.5591110000000  0.4991790000000 1.0
C      1  0.4983810000000  0.4736300000000  0.6016320000000 1.0
C      1  0.4565160000000  0.4318470000000  0.4599520000000 1.0
C      1  0.4662740000000  0.5816400000000  0.4855640000000 1.0
C      1  0.4357220000000  0.5047150000000  0.5161300000000 1.0
C      1  0.5528060000000  0.4835880000000  0.4724120000000 1.0
C      1  0.3720060000000  0.5113430000000  0.5076640000000 1.0
C      1  0.4300200000000  0.4215790000000  0.5108230000000 1.0
C      1  0.4962990000000  0.4299510000000  0.4600630000000 1.0
C      1  0.4114400000000  0.4907220000000  0.4829280000000 1.0
C      1  0.5816230000000  0.5068660000000  0.4066580000000 1.0
C      1  0.5494410000000  0.5534980000000  0.4745920000000 1.0
C      1  0.5104760000000  0.5707230000000  0.5138920000000 1.0
C      1  0.4453070000000  0.4514200000000  0.5316860000000 1.0
C      1  0.5678160000000  0.4472280000000  0.5654830000000 1.0
C      1  0.4941250000000  0.3970180000000  0.5245300000000 1.0
C      1  0.5416260000000  0.4834080000000  0.5531500000000 1.0
C      1  0.4955550000000  0.5904810000000  0.4314840000000 1.0
C      1  0.4682520000000  0.6013230000000  0.5129460000000 1.0
C      1  0.4848310000000  0.4498970000000  0.5289540000000 1.0
C      1  0.5501510000000  0.5847930000000  0.5349520000000 1.0
C      1  0.4786380000000  0.4491190000000  0.4407450000000 1.0
C      1  0.4623890000000  0.4545930000000  0.5675120000000 1.0
C      1  0.3973530000000  0.5534640000000  0.5202650000000 1.0
C      1  0.5511690000000  0.4624050000000  0.4121080000000 1.0
C      1  0.3962870000000  0.5131770000000  0.4985720000000 1.0
C      1  0.5203700000000  0.5152680000000  0.5403660000000 1.0
C      1  0.4658080000000  0.5614350000000  0.4588640000000 1.0
C      1  0.4377650000000  0.4956890000000  0.3908170000000 1.0
C      1  0.4992530000000  0.5666800000000  0.4632080000000 1.0
C      1  0.5143710000000  0.4116200000000  0.5474570000000 1.0
C      1  0.5785900000000  0.4578930000000  0.5088770000000 1.0
C      1  0.5398360000000  0.5346090000000  0.6229750000000 1.0
C      1  0.5598910000000  0.5342530000000  0.4485730000000 1.0
C      1  0.5242930000000  0.5517670000000  0.4527450000000 1.0
C      1  0.4331180000000  0.5736220000000  0.4862500000000 1.0
C      1  0.5146760000000  0.4756060000000  0.5095580000000 1.0
C      1  0.4492650000000  0.4293250000000  0.4180570000000 1.0
C      1  0.5370880000000  0.6042450000000  0.4740000000000 1.0
C      1  0.5000950000000  0.4416820000000  0.6009750000000 1.0
C      1  0.5184940000000  0.5989440000000  0.4184560000000 1.0
C      1  0.5747670000000  0.5683740000000  0.4917390000000 1.0
C      1  0.5624250000000  0.5512180000000  0.4215420000000 1.0
C      1  0.5733430000000  0.4148060000000  0.4017260000000 1.0
C      1  0.5008820000000  0.3912590000000  0.4666740000000 1.0
C      1  0.5942650000000  0.5341550000000  0.4848230000000 1.0
C      1  0.4577290000000  0.4394180000000  0.5023970000000 1.0
C      1  0.5384650000000  0.4591220000000  0.5347140000000 1.0
C      1  0.5392980000000  0.5434420000000  0.5377640000000 1.0
C      1  0.5961720000000  0.4609740000000  0.4632190000000 1.0
C      1  0.4179430000000  0.4700150000000  0.5299680000000 1.0
C      1  0.6038180000000  0.5553690000000  0.5043420000000 1.0
C      1  0.6055940000000  0.5314350000000  0.5256430000000 1.0
C      1  0.4472530000000  0.5337460000000  0.5067620000000 1.0
C      1  0.5137370000000  0.4380640000000  0.5284660000000 1.0
C      1  0.5278980000000  0.4468360000000  0.5646170000000 1.0
C      1  0.5260650000000  0.4294270000000  0.4999100000000 1.0
C      1  0.5595440000000  0.5203510000000  0.5332960000000 1.0
C      1  0.4852500000000  0.5934980000000  0.5346980000000 1.0
C      1  0.5621640000000  0.4376620000000  0.4080080000000 1.0
C      1  0.4192800000000  0.4846050000000  0.5606610000000 1.0
C      1  0.4212870000000  0.5080980000000  0.4312400000000 1.0
C      1  0.4424100000000  0.4120360000000  0.5360360000000 1.0
C      1  0.4690780000000  0.3911540000000  0.5030010000000 1.0
C      1  0.5538830000000  0.4921650000000  0.5989080000000 1.0
C      1  0.5475240000000  0.5538810000000  0.6378230000000 1.0
C      1  0.5798800000000  0.5317880000000  0.4044250000000 1.0
C      1  0.4643570000000  0.4751800000000  0.5190070000000 1.0
C      1  0.5715820000000  0.5039770000000  0.5812390000000 1.0
C      1  0.5030720000000  0.5313130000000  0.3949550000000 1.0
C      1  0.5894040000000  0.4438400000000  0.4841070000000 1.0
C      1  0.4715230000000  0.4919050000000  0.5934530000000 1.0
END
