TITL C-2848498-1409-128 0.00106980818285106 125000 -940.237362314007 0 0 171 (C1) n - 1
REM
REM in /home/bkarasulu/work/CARBON/AIRSS/Generating-Clusters/AIREBO/with-SteepDescent/Only-C1/SD-CG-opt/Try1-1.4A-POS3A/HFTN-CG
REM
REM
REM
REM
REM
REM ./C.cell (11c1c37f851c82e70ff6c80c92926a4b)
REM
REM compiler GCC version 9.2.1 20190827 (Red Hat 9.2.1-1)
REM options -cpp -mtune=generic -march=x86-64 -g -O0 -fpre-include=/usr/include/finclude/math-vector-fortran.h
REM seed -468773354 599126862 1450363771 877949380 -416635144 1765583501 -1460497919 -223774602 -2121318183 -1959418668 1993999386 190768060 -1495539241 1752918545 -1618926395 96607207 -1836182469 -1147648199 1690959279 -1256134322 1208058077 1269460530 1761135957 -1380945476 2126162381 -759948244 -367359328 537257288 -408786315 1198227654 -1480239418 -796559377 536176258
REM
CELL 1.54180   50.00000   50.00000   50.00000   90.00000   90.00000   90.00000
LATT -1
SFAC C  
C      1  0.4499950000000  0.4233910000000  0.4522460000000 1.0
C      1  0.5140030000000  0.4470850000000  0.5895810000000 1.0
C      1  0.5671050000000  0.5229860000000  0.4298690000000 1.0
C      1  0.6031480000000  0.5566360000000  0.5417600000000 1.0
C      1  0.4461220000000  0.4649880000000  0.4938790000000 1.0
C      1  0.5493510000000  0.5127790000000  0.4049550000000 1.0
C      1  0.5737450000000  0.4214220000000  0.5219850000000 1.0
C      1  0.4065830000000  0.4479790000000  0.4646220000000 1.0
C      1  0.4553020000000  0.4889560000000  0.5898060000000 1.0
C      1  0.4722140000000  0.4554670000000  0.4107830000000 1.0
C      1  0.4805090000000  0.5718350000000  0.4667240000000 1.0
C      1  0.4644540000000  0.4936650000000  0.4943490000000 1.0
C      1  0.5272760000000  0.4332360000000  0.5673780000000 1.0
C      1  0.4806510000000  0.4816700000000  0.5225980000000 1.0
C      1  0.5117370000000  0.5710950000000  0.4305590000000 1.0
C      1  0.5723680000000  0.4718290000000  0.4126340000000 1.0
C      1  0.4585060000000  0.5291330000000  0.5536830000000 1.0
C      1  0.5540680000000  0.4795350000000  0.4473240000000 1.0
C      1  0.4473070000000  0.5401560000000  0.5818230000000 1.0
C      1  0.5223680000000  0.5536760000000  0.5801940000000 1.0
C      1  0.5457660000000  0.4679150000000  0.5110700000000 1.0
C      1  0.4707240000000  0.5279110000000  0.4047700000000 1.0
C      1  0.5691970000000  0.5473310000000  0.4963250000000 1.0
C      1  0.4651100000000  0.4528920000000  0.4598210000000 1.0
C      1  0.5519010000000  0.4852230000000  0.3968530000000 1.0
C      1  0.4143630000000  0.5344380000000  0.4401980000000 1.0
C      1  0.4465260000000  0.5939510000000  0.4863900000000 1.0
C      1  0.4462090000000  0.4909220000000  0.5456480000000 1.0
C      1  0.4176890000000  0.5564840000000  0.5605720000000 1.0
C      1  0.4134110000000  0.5557490000000  0.5063310000000 1.0
C      1  0.4930550000000  0.4792190000000  0.4706000000000 1.0
C      1  0.5787750000000  0.4693320000000  0.4770190000000 1.0
C      1  0.4850420000000  0.5054240000000  0.4533630000000 1.0
C      1  0.4350480000000  0.6008220000000  0.5393820000000 1.0
C      1  0.5141180000000  0.4019840000000  0.5279840000000 1.0
C      1  0.5942280000000  0.4494730000000  0.4986580000000 1.0
C      1  0.4986440000000  0.5343730000000  0.4588900000000 1.0
C      1  0.5271100000000  0.5374290000000  0.5269160000000 1.0
C      1  0.4663620000000  0.3828180000000  0.5110500000000 1.0
C      1  0.5376810000000  0.4528620000000  0.4564230000000 1.0
C      1  0.5341090000000  0.4039920000000  0.4844350000000 1.0
C      1  0.5804130000000  0.4939350000000  0.4355020000000 1.0
C      1  0.5083340000000  0.4391880000000  0.4581400000000 1.0
C      1  0.4170680000000  0.4762050000000  0.4909180000000 1.0
C      1  0.4178430000000  0.5069580000000  0.5554220000000 1.0
C      1  0.5589070000000  0.5205750000000  0.5090740000000 1.0
C      1  0.4721500000000  0.5011970000000  0.5651280000000 1.0
C      1  0.4801990000000  0.5644290000000  0.5231400000000 1.0
C      1  0.5785860000000  0.5473830000000  0.4489820000000 1.0
C      1  0.5919710000000  0.4628110000000  0.5299380000000 1.0
C      1  0.4439890000000  0.4456020000000  0.4270600000000 1.0
C      1  0.5077370000000  0.5479170000000  0.6035230000000 1.0
C      1  0.6129600000000  0.4758760000000  0.5090550000000 1.0
C      1  0.4318560000000  0.5116970000000  0.5924480000000 1.0
C      1  0.4928020000000  0.5124120000000  0.4929000000000 1.0
C      1  0.4624840000000  0.4615200000000  0.5403870000000 1.0
C      1  0.5973900000000  0.5326670000000  0.5438790000000 1.0
C      1  0.3908460000000  0.5057590000000  0.4994910000000 1.0
C      1  0.5117680000000  0.3952180000000  0.5018680000000 1.0
C      1  0.4985970000000  0.4612710000000  0.3910170000000 1.0
C      1  0.4976800000000  0.5043790000000  0.4225150000000 1.0
C      1  0.5158930000000  0.5555140000000  0.4078180000000 1.0
C      1  0.5827480000000  0.4438230000000  0.5637050000000 1.0
C      1  0.4244970000000  0.4232230000000  0.4683880000000 1.0
C      1  0.4730910000000  0.5141630000000  0.5274280000000 1.0
C      1  0.5496470000000  0.5815270000000  0.5285400000000 1.0
C      1  0.5703360000000  0.5769780000000  0.5035500000000 1.0
C      1  0.4993240000000  0.4537610000000  0.5280320000000 1.0
C      1  0.5670270000000  0.5023750000000  0.5618900000000 1.0
C      1  0.5089650000000  0.5166380000000  0.6017080000000 1.0
C      1  0.4596980000000  0.4376240000000  0.5731550000000 1.0
C      1  0.5574350000000  0.5228640000000  0.5873040000000 1.0
C      1  0.4763430000000  0.5390640000000  0.4336430000000 1.0
C      1  0.5477870000000  0.4828660000000  0.4805830000000 1.0
C      1  0.4752360000000  0.4118010000000  0.4721650000000 1.0
C      1  0.4858800000000  0.5672530000000  0.4403170000000 1.0
C      1  0.4682550000000  0.4393520000000  0.4908510000000 1.0
C      1  0.5878440000000  0.5377190000000  0.4744230000000 1.0
C      1  0.4029660000000  0.4748060000000  0.5216210000000 1.0
C      1  0.5457430000000  0.4771480000000  0.5701990000000 1.0
C      1  0.5029400000000  0.6036200000000  0.5370520000000 1.0
C      1  0.5947080000000  0.4911740000000  0.4626640000000 1.0
C      1  0.5046670000000  0.5073840000000  0.5692690000000 1.0
C      1  0.4504940000000  0.4021760000000  0.5231850000000 1.0
C      1  0.5252760000000  0.5950930000000  0.4827450000000 1.0
C      1  0.5707640000000  0.4410790000000  0.4196990000000 1.0
C      1  0.4255340000000  0.4379250000000  0.4979950000000 1.0
C      1  0.4826860000000  0.4394790000000  0.4358080000000 1.0
C      1  0.4752670000000  0.4876450000000  0.4099360000000 1.0
C      1  0.5891950000000  0.4766230000000  0.5601510000000 1.0
C      1  0.4110260000000  0.4889690000000  0.4646620000000 1.0
C      1  0.5040890000000  0.5154940000000  0.5225040000000 1.0
C      1  0.4845660000000  0.4422550000000  0.5890750000000 1.0
C      1  0.5491630000000  0.4942700000000  0.5271070000000 1.0
C      1  0.5418500000000  0.4490580000000  0.4246180000000 1.0
C      1  0.5516040000000  0.5288840000000  0.5471740000000 1.0
C      1  0.4620190000000  0.4328660000000  0.5220760000000 1.0
C      1  0.5237400000000  0.5052880000000  0.4443450000000 1.0
C      1  0.3950280000000  0.4529530000000  0.4962280000000 1.0
C      1  0.5828810000000  0.5797400000000  0.5350670000000 1.0
C      1  0.4544220000000  0.5100530000000  0.4662640000000 1.0
C      1  0.4467780000000  0.5248080000000  0.4365810000000 1.0
C      1  0.4969400000000  0.6115530000000  0.4807070000000 1.0
C      1  0.5533160000000  0.5146110000000  0.4799200000000 1.0
C      1  0.5139890000000  0.4771230000000  0.5754530000000 1.0
C      1  0.4858980000000  0.3911580000000  0.4923010000000 1.0
C      1  0.5807640000000  0.5068390000000  0.5310860000000 1.0
C      1  0.4834710000000  0.5492320000000  0.5497080000000 1.0
C      1  0.5652510000000  0.5766030000000  0.4492070000000 1.0
C      1  0.5501930000000  0.5500530000000  0.5807390000000 1.0
C      1  0.5269490000000  0.5465560000000  0.4652530000000 1.0
C      1  0.5317490000000  0.5759360000000  0.4549840000000 1.0
C      1  0.4194450000000  0.5228300000000  0.5003270000000 1.0
C      1  0.4520470000000  0.5392850000000  0.4837570000000 1.0
C      1  0.4258510000000  0.4161280000000  0.5197280000000 1.0
C      1  0.4729500000000  0.5961340000000  0.4780700000000 1.0
C      1  0.4806250000000  0.5886080000000  0.5436950000000 1.0
C      1  0.4947570000000  0.5358390000000  0.3915130000000 1.0
C      1  0.4215100000000  0.4671310000000  0.4407950000000 1.0
C      1  0.5275220000000  0.4785560000000  0.4275970000000 1.0
C      1  0.6022900000000  0.5128930000000  0.4797460000000 1.0
C      1  0.4973910000000  0.4526930000000  0.4834280000000 1.0
C      1  0.5623730000000  0.4231620000000  0.4464340000000 1.0
C      1  0.4312840000000  0.5654900000000  0.4790920000000 1.0
C      1  0.4064650000000  0.5509220000000  0.4672210000000 1.0
C      1  0.4310410000000  0.5840370000000  0.5140590000000 1.0
C      1  0.5237310000000  0.5006960000000  0.5419130000000 1.0
C      1  0.5515140000000  0.4497700000000  0.5594940000000 1.0
C      1  0.4092000000000  0.5306940000000  0.5756590000000 1.0
C      1  0.5352450000000  0.5496810000000  0.4962560000000 1.0
C      1  0.5066460000000  0.5641630000000  0.5056390000000 1.0
C      1  0.5751210000000  0.5941380000000  0.4297970000000 1.0
C      1  0.4490190000000  0.4779950000000  0.4562950000000 1.0
C      1  0.5391490000000  0.5088370000000  0.6047690000000 1.0
C      1  0.4902580000000  0.4596590000000  0.5602690000000 1.0
C      1  0.5234590000000  0.5900950000000  0.5164330000000 1.0
C      1  0.4814010000000  0.4981680000000  0.6038860000000 1.0
C      1  0.5612670000000  0.5606470000000  0.5530780000000 1.0
C      1  0.5383880000000  0.4377220000000  0.4844090000000 1.0
C      1  0.4220360000000  0.4858390000000  0.4132520000000 1.0
C      1  0.4477770000000  0.5034080000000  0.4101680000000 1.0
C      1  0.4418800000000  0.5070160000000  0.5159870000000 1.0
C      1  0.5764350000000  0.4365710000000  0.4722570000000 1.0
C      1  0.5586350000000  0.5904480000000  0.4792560000000 1.0
C      1  0.4380170000000  0.5451720000000  0.5357750000000 1.0
C      1  0.5191410000000  0.4523870000000  0.5057360000000 1.0
C      1  0.4853700000000  0.5451120000000  0.4871790000000 1.0
C      1  0.4213520000000  0.4678480000000  0.5482300000000 1.0
C      1  0.5630390000000  0.4167920000000  0.4950840000000 1.0
C      1  0.4551070000000  0.5903720000000  0.5572300000000 1.0
C      1  0.4338220000000  0.5501220000000  0.4171450000000 1.0
C      1  0.4117550000000  0.5175650000000  0.4678150000000 1.0
C      1  0.5453400000000  0.5255980000000  0.4525350000000 1.0
C      1  0.5215780000000  0.5223480000000  0.4062660000000 1.0
C      1  0.5629620000000  0.4503650000000  0.5296180000000 1.0
C      1  0.5434280000000  0.4816620000000  0.6021300000000 1.0
C      1  0.5176010000000  0.4975240000000  0.4750220000000 1.0
C      1  0.4528910000000  0.5583880000000  0.5118880000000 1.0
C      1  0.6042540000000  0.5030520000000  0.5067210000000 1.0
C      1  0.5102430000000  0.5384340000000  0.5565540000000 1.0
C      1  0.4418090000000  0.4613990000000  0.5746220000000 1.0
C      1  0.5231680000000  0.4710170000000  0.3963730000000 1.0
C      1  0.4968690000000  0.4095560000000  0.4460210000000 1.0
C      1  0.5063750000000  0.4259250000000  0.5462430000000 1.0
C      1  0.4173730000000  0.4839470000000  0.5789750000000 1.0
C      1  0.3978370000000  0.5072530000000  0.5304080000000 1.0
C      1  0.4054840000000  0.5384710000000  0.5342540000000 1.0
C      1  0.5303690000000  0.4136830000000  0.4535020000000 1.0
C      1  0.4737560000000  0.4246840000000  0.5506200000000 1.0
C      1  0.4439320000000  0.5704440000000  0.5744200000000 1.0
C      1  0.5890210000000  0.4215730000000  0.5466290000000 1.0
END
