TITL C-2847954-6904-250 -0.000538812501484717 125000 -370.501887698899 0 0 68 (C1) n - 1
REM
REM in /home/bkarasulu/work/CARBON/AIRSS/Generating-Clusters/AIREBO/with-SteepDescent/Only-C1/SD-CG-opt/Try1-1.4A-POS3A/HFTN-CG
REM
REM
REM
REM
REM
REM ./C.cell (11c1c37f851c82e70ff6c80c92926a4b)
REM
REM compiler GCC version 9.2.1 20190827 (Red Hat 9.2.1-1)
REM options -cpp -mtune=generic -march=x86-64 -g -O0 -fpre-include=/usr/include/finclude/math-vector-fortran.h
REM seed -1881837979 -81265856 2061203256 -676058103 -774115856 1729957644 -2089982676 -722200871 443940386 -1113700825 1957486703 -1752809092 -1570172259 -413229448 -569975496 -118752105 -630098970 -336256216 -1569489476 -547019659 1839196804 1765646494 1245688317 -384616672 -508277692 -170220058 -687674985 1719573221 775109245 840269355 -1460567293 -459618788 -1954411167
REM
CELL 1.54180   50.00000   50.00000   50.00000   90.00000   90.00000   90.00000
LATT -1
SFAC C  
C      1  0.4849980000000  0.5418280000000  0.4611810000000 1.0
C      1  0.4518750000000  0.5126170000000  0.5114320000000 1.0
C      1  0.4929530000000  0.5209460000000  0.5460850000000 1.0
C      1  0.5397430000000  0.4353620000000  0.4846160000000 1.0
C      1  0.5153600000000  0.5324320000000  0.5654920000000 1.0
C      1  0.5609660000000  0.4538130000000  0.4819480000000 1.0
C      1  0.4589600000000  0.5402230000000  0.4458570000000 1.0
C      1  0.4604420000000  0.4467820000000  0.5152410000000 1.0
C      1  0.4928650000000  0.5738630000000  0.5146260000000 1.0
C      1  0.4923650000000  0.4278270000000  0.4646580000000 1.0
C      1  0.4366800000000  0.4633270000000  0.5155600000000 1.0
C      1  0.4211890000000  0.5233020000000  0.5215600000000 1.0
C      1  0.5454590000000  0.4784090000000  0.5251580000000 1.0
C      1  0.4957310000000  0.5115160000000  0.4723130000000 1.0
C      1  0.4326890000000  0.5354150000000  0.4664720000000 1.0
C      1  0.5360340000000  0.4842540000000  0.4847000000000 1.0
C      1  0.4649990000000  0.5394460000000  0.4974290000000 1.0
C      1  0.5072880000000  0.4510440000000  0.5495370000000 1.0
C      1  0.5114840000000  0.4663100000000  0.5724650000000 1.0
C      1  0.5553210000000  0.4869290000000  0.5772200000000 1.0
C      1  0.4505550000000  0.4953990000000  0.5648040000000 1.0
C      1  0.5217700000000  0.5655590000000  0.5309440000000 1.0
C      1  0.5032940000000  0.4616230000000  0.4582930000000 1.0
C      1  0.5554730000000  0.5303660000000  0.5119860000000 1.0
C      1  0.4622900000000  0.4877050000000  0.4969540000000 1.0
C      1  0.5318220000000  0.5148590000000  0.4966560000000 1.0
C      1  0.5524340000000  0.5285170000000  0.5388130000000 1.0
C      1  0.5679020000000  0.5168420000000  0.4684410000000 1.0
C      1  0.5300060000000  0.4919970000000  0.4403910000000 1.0
C      1  0.4447900000000  0.5105550000000  0.4517570000000 1.0
C      1  0.5472650000000  0.4995170000000  0.5484940000000 1.0
C      1  0.5176710000000  0.5418970000000  0.4517110000000 1.0
C      1  0.4701060000000  0.5392340000000  0.5424690000000 1.0
C      1  0.5685320000000  0.4731800000000  0.5051040000000 1.0
C      1  0.4840610000000  0.4391990000000  0.5350560000000 1.0
C      1  0.4957620000000  0.5314470000000  0.4980720000000 1.0
C      1  0.4579790000000  0.4597960000000  0.4593070000000 1.0
C      1  0.5184980000000  0.4984680000000  0.5667570000000 1.0
C      1  0.4809000000000  0.5055090000000  0.4241260000000 1.0
C      1  0.4417180000000  0.4889340000000  0.5324890000000 1.0
C      1  0.4420160000000  0.4690690000000  0.4853370000000 1.0
C      1  0.4815490000000  0.5657650000000  0.4836560000000 1.0
C      1  0.5166280000000  0.5555410000000  0.4992980000000 1.0
C      1  0.5357990000000  0.5168910000000  0.4626760000000 1.0
C      1  0.4568250000000  0.4865300000000  0.4383250000000 1.0
C      1  0.5029810000000  0.5126290000000  0.4406760000000 1.0
C      1  0.5751980000000  0.4909190000000  0.4803000000000 1.0
C      1  0.4415640000000  0.5493900000000  0.5280830000000 1.0
C      1  0.4846460000000  0.4965280000000  0.5641600000000 1.0
C      1  0.5364570000000  0.4702030000000  0.5885700000000 1.0
C      1  0.4835250000000  0.4670780000000  0.4341550000000 1.0
C      1  0.4689260000000  0.5682700000000  0.5311990000000 1.0
C      1  0.4681380000000  0.4735800000000  0.5474000000000 1.0
C      1  0.4926480000000  0.4798870000000  0.4849380000000 1.0
C      1  0.4769610000000  0.4496860000000  0.4856650000000 1.0
C      1  0.4315740000000  0.5431560000000  0.4959840000000 1.0
C      1  0.5333160000000  0.5468280000000  0.5490750000000 1.0
C      1  0.4559470000000  0.5561590000000  0.4234900000000 1.0
C      1  0.5542520000000  0.4766450000000  0.4576380000000 1.0
C      1  0.5354390000000  0.5542470000000  0.4764940000000 1.0
C      1  0.5594550000000  0.5408540000000  0.4842180000000 1.0
C      1  0.5095830000000  0.4777060000000  0.4224100000000 1.0
C      1  0.5249030000000  0.4351950000000  0.5088160000000 1.0
C      1  0.5069720000000  0.5118840000000  0.5197900000000 1.0
C      1  0.5301020000000  0.4511920000000  0.5315480000000 1.0
C      1  0.4966410000000  0.4321310000000  0.5073600000000 1.0
C      1  0.5226460000000  0.4343330000000  0.4623840000000 1.0
C      1  0.5150790000000  0.4814560000000  0.5101800000000 1.0
END
