TITL C-2848508-1660-152 0.00473985738873928 125000 -532.519641291762 0 0 97 (C1) n - 1
REM
REM in /home/bkarasulu/work/CARBON/AIRSS/Generating-Clusters/AIREBO/with-SteepDescent/Only-C1/SD-CG-opt/Try1-1.4A-POS3A/HFTN-CG
REM
REM
REM
REM
REM
REM ./C.cell (11c1c37f851c82e70ff6c80c92926a4b)
REM
REM compiler GCC version 9.2.1 20190827 (Red Hat 9.2.1-1)
REM options -cpp -mtune=generic -march=x86-64 -g -O0 -fpre-include=/usr/include/finclude/math-vector-fortran.h
REM seed -1218402104 283066868 -745241531 1885296590 1679678025 1728467007 1067490594 -1519775724 -618868999 -118725665 779254455 1293573046 -1823818077 2045957474 1043227569 161230888 -858578154 -2131716354 -1189104145 1906410098 -159641309 -1884317674 -1267884011 -99680435 1580214152 -1294126447 -423122943 -1491989253 -343565489 -717906580 -371003333 -1779412883 855403907
REM
CELL 1.54180   50.00000   50.00000   50.00000   90.00000   90.00000   90.00000
LATT -1
SFAC C  
C      1  0.4226710000000  0.4790550000000  0.5292280000000 1.0
C      1  0.5603930000000  0.4845800000000  0.5500040000000 1.0
C      1  0.4647560000000  0.4891070000000  0.4673240000000 1.0
C      1  0.5112290000000  0.5601360000000  0.4448940000000 1.0
C      1  0.5280640000000  0.4097200000000  0.4779180000000 1.0
C      1  0.5400490000000  0.5849300000000  0.5216600000000 1.0
C      1  0.5331790000000  0.4926550000000  0.4161850000000 1.0
C      1  0.4077090000000  0.5232280000000  0.5068910000000 1.0
C      1  0.5158710000000  0.4065500000000  0.5201380000000 1.0
C      1  0.4354800000000  0.4665550000000  0.5514170000000 1.0
C      1  0.4635760000000  0.4557600000000  0.4607310000000 1.0
C      1  0.5158620000000  0.5056850000000  0.4497410000000 1.0
C      1  0.5406450000000  0.5677660000000  0.4378880000000 1.0
C      1  0.4494400000000  0.5459990000000  0.4507920000000 1.0
C      1  0.5006340000000  0.4200680000000  0.4787400000000 1.0
C      1  0.5581710000000  0.5550350000000  0.5028920000000 1.0
C      1  0.4917600000000  0.4698070000000  0.4893040000000 1.0
C      1  0.4348780000000  0.4867710000000  0.4768590000000 1.0
C      1  0.5355070000000  0.4797900000000  0.4592930000000 1.0
C      1  0.4960120000000  0.5199720000000  0.5183070000000 1.0
C      1  0.4556820000000  0.4787770000000  0.5076840000000 1.0
C      1  0.4503110000000  0.5287260000000  0.4262550000000 1.0
C      1  0.5191650000000  0.5004730000000  0.5692940000000 1.0
C      1  0.4417500000000  0.4777220000000  0.5769290000000 1.0
C      1  0.5919370000000  0.4798910000000  0.5078230000000 1.0
C      1  0.5008580000000  0.4381760000000  0.5715900000000 1.0
C      1  0.5091050000000  0.5460810000000  0.5259050000000 1.0
C      1  0.5044900000000  0.4899900000000  0.5129820000000 1.0
C      1  0.5910690000000  0.4902290000000  0.4766430000000 1.0
C      1  0.5294020000000  0.4472350000000  0.5118040000000 1.0
C      1  0.4737930000000  0.5823600000000  0.5092190000000 1.0
C      1  0.4599020000000  0.5212010000000  0.5851280000000 1.0
C      1  0.4957530000000  0.4215560000000  0.5071430000000 1.0
C      1  0.4211180000000  0.5082160000000  0.5280250000000 1.0
C      1  0.5089400000000  0.4645500000000  0.5550060000000 1.0
C      1  0.4756010000000  0.4728020000000  0.5346030000000 1.0
C      1  0.5256390000000  0.5606690000000  0.5026290000000 1.0
C      1  0.4986120000000  0.5351000000000  0.4288360000000 1.0
C      1  0.5798470000000  0.5033040000000  0.4474980000000 1.0
C      1  0.4683390000000  0.5777940000000  0.4827430000000 1.0
C      1  0.5620050000000  0.5626130000000  0.4540870000000 1.0
C      1  0.5373610000000  0.5324530000000  0.5284380000000 1.0
C      1  0.5822400000000  0.5104440000000  0.5097570000000 1.0
C      1  0.5674990000000  0.4692710000000  0.4640360000000 1.0
C      1  0.4778220000000  0.5370480000000  0.4546770000000 1.0
C      1  0.5791810000000  0.4546680000000  0.4896000000000 1.0
C      1  0.4897240000000  0.5738520000000  0.4657870000000 1.0
C      1  0.5256330000000  0.4732010000000  0.5323640000000 1.0
C      1  0.4411000000000  0.5618840000000  0.4752050000000 1.0
C      1  0.5556590000000  0.5416360000000  0.5551980000000 1.0
C      1  0.5359110000000  0.5029270000000  0.4842210000000 1.0
C      1  0.4694210000000  0.5059990000000  0.5305640000000 1.0
C      1  0.5166410000000  0.4543260000000  0.4469800000000 1.0
C      1  0.4924390000000  0.4396820000000  0.4609450000000 1.0
C      1  0.4580990000000  0.4456660000000  0.5452710000000 1.0
C      1  0.4828430000000  0.4852030000000  0.4258720000000 1.0
C      1  0.5280350000000  0.5262490000000  0.5677080000000 1.0
C      1  0.4503020000000  0.5502330000000  0.5057750000000 1.0
C      1  0.4634400000000  0.5629480000000  0.5579010000000 1.0
C      1  0.5574340000000  0.4849280000000  0.4338050000000 1.0
C      1  0.5531750000000  0.5222080000000  0.5012060000000 1.0
C      1  0.4601870000000  0.4613110000000  0.4278940000000 1.0
C      1  0.4114000000000  0.4980940000000  0.4673270000000 1.0
C      1  0.5413270000000  0.4812680000000  0.5707580000000 1.0
C      1  0.4640530000000  0.4507000000000  0.4942360000000 1.0
C      1  0.4508430000000  0.5362040000000  0.5632700000000 1.0
C      1  0.4268530000000  0.4639220000000  0.4999760000000 1.0
C      1  0.5288290000000  0.4536270000000  0.5803400000000 1.0
C      1  0.3944060000000  0.5088100000000  0.4864740000000 1.0
C      1  0.5834280000000  0.5229050000000  0.4750500000000 1.0
C      1  0.4961210000000  0.4513400000000  0.5175190000000 1.0
C      1  0.4320410000000  0.4475620000000  0.4704890000000 1.0
C      1  0.4198400000000  0.5461990000000  0.4968870000000 1.0
C      1  0.4752780000000  0.4304360000000  0.5675200000000 1.0
C      1  0.5098740000000  0.5231390000000  0.4748060000000 1.0
C      1  0.5256220000000  0.5206850000000  0.4220350000000 1.0
C      1  0.5353680000000  0.4327800000000  0.4365230000000 1.0
C      1  0.4785750000000  0.5158400000000  0.4773170000000 1.0
C      1  0.5646320000000  0.4678140000000  0.5241080000000 1.0
C      1  0.5706530000000  0.5484050000000  0.4752870000000 1.0
C      1  0.4885090000000  0.4869220000000  0.5627390000000 1.0
C      1  0.5600990000000  0.5652150000000  0.5343730000000 1.0
C      1  0.4648960000000  0.4939860000000  0.5804920000000 1.0
C      1  0.4585550000000  0.4320220000000  0.5162630000000 1.0
C      1  0.5677760000000  0.4362090000000  0.5112190000000 1.0
C      1  0.4876280000000  0.5649240000000  0.5340420000000 1.0
C      1  0.4647020000000  0.5807050000000  0.5792370000000 1.0
C      1  0.5645700000000  0.5134310000000  0.5384330000000 1.0
C      1  0.4439360000000  0.5203050000000  0.5410180000000 1.0
C      1  0.4513620000000  0.5717400000000  0.5295560000000 1.0
C      1  0.4674120000000  0.5262660000000  0.5039130000000 1.0
C      1  0.5434410000000  0.4184770000000  0.5059000000000 1.0
C      1  0.5406610000000  0.4778400000000  0.5021780000000 1.0
C      1  0.5136980000000  0.5531420000000  0.4769640000000 1.0
C      1  0.4739930000000  0.5149110000000  0.4217900000000 1.0
C      1  0.5106680000000  0.4780830000000  0.4098850000000 1.0
C      1  0.4956030000000  0.4793160000000  0.4568470000000 1.0
END
