TITL C-2847958-8115-627 -336.002193805213 125000 -613.330982136112 0 0 118 (C1) n - 1
REM
REM in /home/bkarasulu/work/CARBON/AIRSS/Generating-Clusters/AIREBO/with-SteepDescent/Only-C1/SD-CG-opt/Try1-1.4A-POS3A/HFTN-CG
REM
REM
REM
REM
REM
REM ./C.cell (11c1c37f851c82e70ff6c80c92926a4b)
REM
REM compiler GCC version 9.2.1 20190827 (Red Hat 9.2.1-1)
REM options -cpp -mtune=generic -march=x86-64 -g -O0 -fpre-include=/usr/include/finclude/math-vector-fortran.h
REM seed 1499590577 -862718548 1075509888 -1672921301 -294062778 -24704423 1813955432 -1048014378 -1152443055 352561580 45387182 -1347146487 -478225979 947228187 -131487050 1298924866 -1104101593 132275351 -434178086 498884740 148956163 614119214 -1402669566 -1791388322 -2038308442 -1054151196 1388496645 1466537673 -1935857820 437998797 1875566994 1822485337 689194863
REM
CELL 1.54180   50.00000   50.00000   50.00000   90.00000   90.00000   90.00000
LATT -1
SFAC C  
C      1  0.5841450000000  0.5079060000000  0.4945640000000 1.0
C      1  0.5397890000000  0.4134070000000  0.5254470000000 1.0
C      1  0.5737970000000  0.5064270000000  0.4385880000000 1.0
C      1  0.4948200000000  0.5836710000000  0.4191110000000 1.0
C      1  0.4476810000000  0.5071990000000  0.5597580000000 1.0
C      1  0.4963530000000  0.4547630000000  0.4214290000000 1.0
C      1  0.4848540000000  0.5434100000000  0.4703720000000 1.0
C      1  0.4505750000000  0.5241520000000  0.5165080000000 1.0
C      1  0.4514550000000  0.4241220000000  0.5017950000000 1.0
C      1  0.5251450000000  0.4766240000000  0.5501150000000 1.0
C      1  0.4931650000000  0.5541080000000  0.4146380000000 1.0
C      1  0.4101690000000  0.5040430000000  0.4745290000000 1.0
C      1  0.5575750000000  0.4766960000000  0.4354130000000 1.0
C      1  0.4631000000000  0.4740540000000  0.4906120000000 1.0
C      1  0.5598810000000  0.5601810000000  0.5106650000000 1.0
C      1  0.5410120000000  0.5238030000000  0.5805660000000 1.0
C      1  0.5375620000000  0.4551550000000  0.5303450000000 1.0
C      1  0.4374220000000  0.4487180000000  0.5299500000000 1.0
C      1  0.4676100000000  0.5345130000000  0.5634450000000 1.0
C      1  0.5187630000000  0.5416970000000  0.4103560000000 1.0
C      1  0.5114500000000  0.5464900000000  0.4493670000000 1.0
C      1  0.5207390000000  0.4779090000000  0.5901840000000 1.0
C      1  0.4260980000000  0.5268150000000  0.4596460000000 1.0
C      1  0.4527550000000  0.4759070000000  0.5186380000000 1.0
C      1  0.5334550000000  0.5537920000000  0.4815570000000 1.0
C      1  0.4627220000000  0.4445880000000  0.4392430000000 1.0
C      1  0.4200610000000  0.5002860000000  0.5410960000000 1.0
C      1  0.5577770000000  0.4820260000000  0.4795750000000 1.0
C      1  0.4628440000000  0.5640880000000  0.4863040000000 1.0
C      1  0.4768010000000  0.4545580000000  0.5296900000000 1.0
C      1  0.4883470000000  0.3968550000000  0.4675410000000 1.0
C      1  0.4198280000000  0.5261720000000  0.5596600000000 1.0
C      1  0.5139810000000  0.4822380000000  0.3985710000000 1.0
C      1  0.4932400000000  0.4967620000000  0.4007470000000 1.0
C      1  0.5277770000000  0.4658240000000  0.4234990000000 1.0
C      1  0.4513690000000  0.5524080000000  0.5823870000000 1.0
C      1  0.5529030000000  0.4170330000000  0.5006990000000 1.0
C      1  0.4849830000000  0.5078640000000  0.4317070000000 1.0
C      1  0.5198350000000  0.4549850000000  0.4534980000000 1.0
C      1  0.5036880000000  0.4112230000000  0.4484230000000 1.0
C      1  0.5477140000000  0.4993200000000  0.5604320000000 1.0
C      1  0.4962620000000  0.4426390000000  0.4747010000000 1.0
C      1  0.5615820000000  0.4554050000000  0.5086530000000 1.0
C      1  0.5796770000000  0.5173610000000  0.5206220000000 1.0
C      1  0.5265380000000  0.4707450000000  0.4812220000000 1.0
C      1  0.4909280000000  0.5040160000000  0.4649670000000 1.0
C      1  0.4311090000000  0.5522520000000  0.4894550000000 1.0
C      1  0.5079120000000  0.5018580000000  0.5756360000000 1.0
C      1  0.5141310000000  0.5017100000000  0.4897170000000 1.0
C      1  0.5829070000000  0.4781370000000  0.4949560000000 1.0
C      1  0.4485310000000  0.5239980000000  0.4850430000000 1.0
C      1  0.5299870000000  0.5650500000000  0.5559910000000 1.0
C      1  0.5217960000000  0.5401240000000  0.5694070000000 1.0
C      1  0.4292860000000  0.4986480000000  0.5092290000000 1.0
C      1  0.4782210000000  0.4749220000000  0.4386070000000 1.0
C      1  0.4239300000000  0.4769000000000  0.4836320000000 1.0
C      1  0.4984270000000  0.5877200000000  0.5001760000000 1.0
C      1  0.5548790000000  0.5339970000000  0.5257490000000 1.0
C      1  0.5781940000000  0.4977290000000  0.5460620000000 1.0
C      1  0.4419080000000  0.5518350000000  0.5278560000000 1.0
C      1  0.5405130000000  0.5068930000000  0.4715860000000 1.0
C      1  0.4833280000000  0.5170110000000  0.5867730000000 1.0
C      1  0.4631910000000  0.5704790000000  0.4468920000000 1.0
C      1  0.5450380000000  0.5421250000000  0.4524610000000 1.0
C      1  0.4780350000000  0.4098620000000  0.4885050000000 1.0
C      1  0.5062490000000  0.4614680000000  0.5185800000000 1.0
C      1  0.4375890000000  0.4612550000000  0.5593800000000 1.0
C      1  0.5547850000000  0.4516760000000  0.5594600000000 1.0
C      1  0.4230810000000  0.5510810000000  0.5472270000000 1.0
C      1  0.5694290000000  0.5238420000000  0.4171190000000 1.0
C      1  0.5412770000000  0.4237760000000  0.5547790000000 1.0
C      1  0.5674260000000  0.5536490000000  0.4830560000000 1.0
C      1  0.4832830000000  0.5856740000000  0.4697880000000 1.0
C      1  0.5035820000000  0.5230340000000  0.5493870000000 1.0
C      1  0.4813130000000  0.4519390000000  0.5804150000000 1.0
C      1  0.5101760000000  0.4105230000000  0.5228330000000 1.0
C      1  0.5101950000000  0.4191460000000  0.5516770000000 1.0
C      1  0.4614220000000  0.4440600000000  0.4772140000000 1.0
C      1  0.5160930000000  0.5180650000000  0.4317780000000 1.0
C      1  0.5690710000000  0.5232240000000  0.4679610000000 1.0
C      1  0.4961480000000  0.5471950000000  0.5184240000000 1.0
C      1  0.5673910000000  0.4527580000000  0.4546470000000 1.0
C      1  0.4598350000000  0.4998450000000  0.4729800000000 1.0
C      1  0.4650030000000  0.4792410000000  0.5683890000000 1.0
C      1  0.4436760000000  0.5235890000000  0.4348720000000 1.0
C      1  0.4978480000000  0.4315280000000  0.5047990000000 1.0
C      1  0.4887450000000  0.4264800000000  0.4281460000000 1.0
C      1  0.4935010000000  0.4845470000000  0.5501640000000 1.0
C      1  0.4857640000000  0.5940460000000  0.5313550000000 1.0
C      1  0.4598420000000  0.4249510000000  0.5339140000000 1.0
C      1  0.5024160000000  0.5766820000000  0.4462890000000 1.0
C      1  0.5748530000000  0.5286830000000  0.5598530000000 1.0
C      1  0.4271970000000  0.4478150000000  0.4975300000000 1.0
C      1  0.4638240000000  0.5719920000000  0.5185670000000 1.0
C      1  0.5224260000000  0.5829140000000  0.4817340000000 1.0
C      1  0.4808830000000  0.5606120000000  0.5456930000000 1.0
C      1  0.5348780000000  0.4996790000000  0.4427830000000 1.0
C      1  0.5470020000000  0.4435900000000  0.4802890000000 1.0
C      1  0.4367680000000  0.5826310000000  0.4747870000000 1.0
C      1  0.4445400000000  0.4943680000000  0.4465580000000 1.0
C      1  0.5745540000000  0.4674340000000  0.5377260000000 1.0
C      1  0.5563740000000  0.5510230000000  0.5526280000000 1.0
C      1  0.5018370000000  0.4580890000000  0.5973580000000 1.0
C      1  0.5487630000000  0.4730410000000  0.5819990000000 1.0
C      1  0.4763100000000  0.5234260000000  0.5324890000000 1.0
C      1  0.5278620000000  0.4239500000000  0.4593450000000 1.0
C      1  0.5064830000000  0.4954130000000  0.5206440000000 1.0
C      1  0.4107680000000  0.5259890000000  0.4968020000000 1.0
C      1  0.4660790000000  0.4960060000000  0.5979580000000 1.0
C      1  0.4737050000000  0.5392330000000  0.4385050000000 1.0
C      1  0.4841010000000  0.4343390000000  0.5558250000000 1.0
C      1  0.5319130000000  0.5136720000000  0.5339480000000 1.0
C      1  0.4881670000000  0.4724100000000  0.4697300000000 1.0
C      1  0.5136070000000  0.5748480000000  0.5277650000000 1.0
C      1  0.5468450000000  0.5412630000000  0.4212440000000 1.0
C      1  0.4423560000000  0.4644890000000  0.4578370000000 1.0
C      1  0.5436750000000  0.5812480000000  0.5155790000000 1.0
C      1  0.5095430000000  0.5353580000000  0.4916270000000 1.0
END
