TITL C-2848498-1409-281 -0.00160139454698584 125000 -892.903067102222 0 0 171 (C1) n - 1
REM
REM in /home/bkarasulu/work/CARBON/AIRSS/Generating-Clusters/AIREBO/with-SteepDescent/Only-C1/SD-CG-opt/Try1-1.4A-POS3A/HFTN-CG
REM
REM
REM
REM
REM
REM ./C.cell (11c1c37f851c82e70ff6c80c92926a4b)
REM
REM compiler GCC version 9.2.1 20190827 (Red Hat 9.2.1-1)
REM options -cpp -mtune=generic -march=x86-64 -g -O0 -fpre-include=/usr/include/finclude/math-vector-fortran.h
REM seed -20863746 25236044 905178212 -1406293855 1609976716 1595713919 1995001319 277742052 140828152 -1132229439 1254198433 492838063 -1468630210 -1827426361 2077477939 -463206958 1308144724 -1992646030 142091437 782843222 -1794428727 1762857947 -366310450 -762655286 -600592555 1581520206 1148867604 -1558589039 -2004928900 -84973752 2120505345 -883047753 -16063116
REM
CELL 1.54180   50.00000   50.00000   50.00000   90.00000   90.00000   90.00000
LATT -1
SFAC C  
C      1  0.5286350000000  0.5577970000000  0.5935640000000 1.0
C      1  0.5706150000000  0.4676750000000  0.4650840000000 1.0
C      1  0.4653680000000  0.5619790000000  0.5787950000000 1.0
C      1  0.5651190000000  0.4380730000000  0.5001230000000 1.0
C      1  0.4360870000000  0.4296350000000  0.5954340000000 1.0
C      1  0.5381840000000  0.3668940000000  0.5505990000000 1.0
C      1  0.3996690000000  0.5223770000000  0.5401050000000 1.0
C      1  0.6128630000000  0.5116700000000  0.4854910000000 1.0
C      1  0.5979610000000  0.5070320000000  0.5562830000000 1.0
C      1  0.4616170000000  0.4796380000000  0.4269940000000 1.0
C      1  0.4486430000000  0.4094640000000  0.5312380000000 1.0
C      1  0.4851660000000  0.4596870000000  0.4127280000000 1.0
C      1  0.4803570000000  0.5046550000000  0.6018070000000 1.0
C      1  0.5304610000000  0.5725040000000  0.5710810000000 1.0
C      1  0.4893210000000  0.5473490000000  0.4772630000000 1.0
C      1  0.5173690000000  0.5566750000000  0.5446470000000 1.0
C      1  0.4650280000000  0.5152330000000  0.4857130000000 1.0
C      1  0.4372890000000  0.4797730000000  0.4032290000000 1.0
C      1  0.4983010000000  0.4228370000000  0.4193490000000 1.0
C      1  0.5344140000000  0.4966130000000  0.4657510000000 1.0
C      1  0.4610620000000  0.4222760000000  0.4537310000000 1.0
C      1  0.5735020000000  0.4379790000000  0.5614840000000 1.0
C      1  0.5031120000000  0.5881090000000  0.5024680000000 1.0
C      1  0.4339670000000  0.5116180000000  0.5838820000000 1.0
C      1  0.4493850000000  0.4673330000000  0.5087780000000 1.0
C      1  0.4697990000000  0.5369270000000  0.5999770000000 1.0
C      1  0.4825090000000  0.4532160000000  0.5804500000000 1.0
C      1  0.4113980000000  0.5703050000000  0.5564940000000 1.0
C      1  0.5080370000000  0.4836220000000  0.5163540000000 1.0
C      1  0.6003580000000  0.4960010000000  0.4382990000000 1.0
C      1  0.4051530000000  0.4623420000000  0.4928030000000 1.0
C      1  0.4989430000000  0.5256270000000  0.4342860000000 1.0
C      1  0.4943330000000  0.3854110000000  0.5074540000000 1.0
C      1  0.5262070000000  0.4202150000000  0.4347250000000 1.0
C      1  0.4682420000000  0.5347690000000  0.4580540000000 1.0
C      1  0.4995520000000  0.4023880000000  0.4879440000000 1.0
C      1  0.5276720000000  0.4823890000000  0.4062030000000 1.0
C      1  0.4969850000000  0.4479530000000  0.6072710000000 1.0
C      1  0.5511750000000  0.4998870000000  0.4239870000000 1.0
C      1  0.5120140000000  0.4740120000000  0.4778530000000 1.0
C      1  0.4616230000000  0.5774250000000  0.5482050000000 1.0
C      1  0.4483600000000  0.4807380000000  0.5550280000000 1.0
C      1  0.4212130000000  0.5699030000000  0.4726530000000 1.0
C      1  0.4122250000000  0.4447950000000  0.4731310000000 1.0
C      1  0.4622860000000  0.4355610000000  0.5482480000000 1.0
C      1  0.4301010000000  0.4559590000000  0.4270360000000 1.0
C      1  0.4760050000000  0.4662350000000  0.5425140000000 1.0
C      1  0.4491330000000  0.4134740000000  0.5060970000000 1.0
C      1  0.4034510000000  0.5708000000000  0.5262380000000 1.0
C      1  0.4375010000000  0.5667540000000  0.5265390000000 1.0
C      1  0.4599910000000  0.4401580000000  0.4248050000000 1.0
C      1  0.5922950000000  0.4586490000000  0.5575800000000 1.0
C      1  0.5789440000000  0.5812840000000  0.4944750000000 1.0
C      1  0.4961140000000  0.5208760000000  0.5691310000000 1.0
C      1  0.5159650000000  0.5184190000000  0.4842030000000 1.0
C      1  0.4239180000000  0.5896910000000  0.4908960000000 1.0
C      1  0.4665370000000  0.5557000000000  0.4988960000000 1.0
C      1  0.5895820000000  0.4544260000000  0.5039790000000 1.0
C      1  0.5857990000000  0.4868210000000  0.5035600000000 1.0
C      1  0.6028130000000  0.4639260000000  0.4755580000000 1.0
C      1  0.5820640000000  0.4831430000000  0.5732950000000 1.0
C      1  0.4917010000000  0.5705100000000  0.5622120000000 1.0
C      1  0.5203470000000  0.5710190000000  0.4183630000000 1.0
C      1  0.4874810000000  0.4128570000000  0.5456730000000 1.0
C      1  0.6046720000000  0.5000080000000  0.5270800000000 1.0
C      1  0.4239100000000  0.4913240000000  0.5680290000000 1.0
C      1  0.5869820000000  0.5558240000000  0.4929930000000 1.0
C      1  0.5726480000000  0.4561200000000  0.4339170000000 1.0
C      1  0.4708550000000  0.5396470000000  0.4254340000000 1.0
C      1  0.4805660000000  0.5034920000000  0.5136260000000 1.0
C      1  0.5092910000000  0.4708100000000  0.5478250000000 1.0
C      1  0.4183330000000  0.5361060000000  0.4750580000000 1.0
C      1  0.5775180000000  0.4857980000000  0.4269040000000 1.0
C      1  0.5924710000000  0.5258970000000  0.5087020000000 1.0
C      1  0.5205720000000  0.5376750000000  0.4144850000000 1.0
C      1  0.4753200000000  0.5136810000000  0.4045230000000 1.0
C      1  0.5121290000000  0.5953040000000  0.5619570000000 1.0
C      1  0.4552350000000  0.4362190000000  0.5798270000000 1.0
C      1  0.5516940000000  0.5926090000000  0.5045570000000 1.0
C      1  0.4367870000000  0.4475450000000  0.5292310000000 1.0
C      1  0.4236930000000  0.5411190000000  0.5441190000000 1.0
C      1  0.5485240000000  0.5116080000000  0.5915740000000 1.0
C      1  0.4723120000000  0.5347920000000  0.5229030000000 1.0
C      1  0.5645580000000  0.5489860000000  0.5253980000000 1.0
C      1  0.4494560000000  0.4967750000000  0.5256120000000 1.0
C      1  0.4007540000000  0.5439430000000  0.4470220000000 1.0
C      1  0.5788030000000  0.5664510000000  0.5511100000000 1.0
C      1  0.5463700000000  0.5603840000000  0.5040740000000 1.0
C      1  0.4738790000000  0.4854700000000  0.5770000000000 1.0
C      1  0.5178580000000  0.4313650000000  0.4879170000000 1.0
C      1  0.4622280000000  0.5233350000000  0.5716150000000 1.0
C      1  0.5346280000000  0.6073350000000  0.5218420000000 1.0
C      1  0.5243520000000  0.4610250000000  0.4508590000000 1.0
C      1  0.4755740000000  0.4652130000000  0.4510970000000 1.0
C      1  0.4400840000000  0.4818020000000  0.4838790000000 1.0
C      1  0.3981170000000  0.5236650000000  0.5002090000000 1.0
C      1  0.3954320000000  0.4745630000000  0.5230930000000 1.0
C      1  0.5359960000000  0.4747690000000  0.4991300000000 1.0
C      1  0.4800610000000  0.5812220000000  0.4552210000000 1.0
C      1  0.4756930000000  0.5837710000000  0.4861370000000 1.0
C      1  0.5437850000000  0.4502380000000  0.4766040000000 1.0
C      1  0.5694520000000  0.4142450000000  0.5471190000000 1.0
C      1  0.5504610000000  0.5641650000000  0.4274830000000 1.0
C      1  0.5519380000000  0.4268310000000  0.4531570000000 1.0
C      1  0.4327520000000  0.5566610000000  0.4439420000000 1.0
C      1  0.5012630000000  0.4394500000000  0.5562360000000 1.0
C      1  0.5356940000000  0.5128520000000  0.3973440000000 1.0
C      1  0.5645630000000  0.4964450000000  0.4814760000000 1.0
C      1  0.4797160000000  0.5965560000000  0.5255630000000 1.0
C      1  0.4954150000000  0.4919850000000  0.4098820000000 1.0
C      1  0.4316200000000  0.4867810000000  0.4413310000000 1.0
C      1  0.4094460000000  0.4464160000000  0.5290680000000 1.0
C      1  0.5085560000000  0.5034750000000  0.6048130000000 1.0
C      1  0.5659490000000  0.5112980000000  0.5630960000000 1.0
C      1  0.4454850000000  0.5107100000000  0.4082640000000 1.0
C      1  0.5421450000000  0.5424070000000  0.3882340000000 1.0
C      1  0.5408900000000  0.5063260000000  0.5039200000000 1.0
C      1  0.5255560000000  0.4818170000000  0.6042500000000 1.0
C      1  0.5089610000000  0.5855500000000  0.4459710000000 1.0
C      1  0.4629170000000  0.4394720000000  0.4968990000000 1.0
C      1  0.5214040000000  0.5257720000000  0.5495960000000 1.0
C      1  0.4826870000000  0.4996360000000  0.5473620000000 1.0
C      1  0.4345860000000  0.5261760000000  0.4355140000000 1.0
C      1  0.4609410000000  0.5684390000000  0.4382660000000 1.0
C      1  0.3890050000000  0.5538870000000  0.5106420000000 1.0
C      1  0.3796040000000  0.5037350000000  0.5199500000000 1.0
C      1  0.5489440000000  0.4511800000000  0.5663600000000 1.0
C      1  0.5332630000000  0.5635410000000  0.4550330000000 1.0
C      1  0.4297360000000  0.5129020000000  0.5065890000000 1.0
C      1  0.5980250000000  0.5508650000000  0.5311120000000 1.0
C      1  0.5009770000000  0.3925800000000  0.5338150000000 1.0
C      1  0.4983840000000  0.4431810000000  0.4466010000000 1.0
C      1  0.5391850000000  0.4659020000000  0.5378020000000 1.0
C      1  0.4769360000000  0.4049880000000  0.4305000000000 1.0
C      1  0.4732470000000  0.4835420000000  0.4765250000000 1.0
C      1  0.5068710000000  0.4867750000000  0.4392620000000 1.0
C      1  0.5639160000000  0.4158350000000  0.4789340000000 1.0
C      1  0.4944940000000  0.5052100000000  0.4611270000000 1.0
C      1  0.5284280000000  0.3898490000000  0.5404050000000 1.0
C      1  0.4303410000000  0.4370160000000  0.4536370000000 1.0
C      1  0.5100660000000  0.6070790000000  0.5367710000000 1.0
C      1  0.5992960000000  0.4449470000000  0.4491560000000 1.0
C      1  0.4381550000000  0.5102370000000  0.4653370000000 1.0
C      1  0.4029330000000  0.4939040000000  0.5501750000000 1.0
C      1  0.5217330000000  0.5282110000000  0.5903450000000 1.0
C      1  0.6082300000000  0.4933820000000  0.4659260000000 1.0
C      1  0.5499490000000  0.5221990000000  0.4495920000000 1.0
C      1  0.5178550000000  0.4498530000000  0.4124480000000 1.0
C      1  0.5765680000000  0.5268070000000  0.4786530000000 1.0
C      1  0.4505180000000  0.5259200000000  0.5436170000000 1.0
C      1  0.5419890000000  0.4994730000000  0.5431900000000 1.0
C      1  0.4085620000000  0.4942470000000  0.4867070000000 1.0
C      1  0.5349580000000  0.4388820000000  0.5163470000000 1.0
C      1  0.5491490000000  0.4405650000000  0.4219880000000 1.0
C      1  0.5009010000000  0.5373160000000  0.5066170000000 1.0
C      1  0.4865270000000  0.4308260000000  0.4746010000000 1.0
C      1  0.5633970000000  0.5399780000000  0.4262790000000 1.0
C      1  0.5016030000000  0.4418990000000  0.5222580000000 1.0
C      1  0.5487970000000  0.4796730000000  0.5794680000000 1.0
C      1  0.5132550000000  0.5403980000000  0.4584030000000 1.0
C      1  0.5444030000000  0.4114550000000  0.5340890000000 1.0
C      1  0.4510850000000  0.5914390000000  0.5074830000000 1.0
C      1  0.5185660000000  0.6099500000000  0.4855320000000 1.0
C      1  0.5179060000000  0.6112910000000  0.4603120000000 1.0
C      1  0.5624730000000  0.5175490000000  0.5237540000000 1.0
C      1  0.4382620000000  0.5437210000000  0.5015360000000 1.0
C      1  0.4878340000000  0.4625190000000  0.4989590000000 1.0
C      1  0.4112030000000  0.5054080000000  0.4228450000000 1.0
C      1  0.5173760000000  0.5626600000000  0.5143050000000 1.0
C      1  0.5480930000000  0.5426730000000  0.4774400000000 1.0
C      1  0.6021440000000  0.4661400000000  0.5321380000000 1.0
END
