TITL C-2848499-1157-736 0.0017892744992015 125000 -612.222138711511 0 0 114 (C1) n - 1
REM
REM in /home/bkarasulu/work/CARBON/AIRSS/Generating-Clusters/AIREBO/with-SteepDescent/Only-C1/SD-CG-opt/Try1-1.4A-POS3A/HFTN-CG
REM
REM
REM
REM
REM
REM ./C.cell (11c1c37f851c82e70ff6c80c92926a4b)
REM
REM compiler GCC version 9.2.1 20190827 (Red Hat 9.2.1-1)
REM options -cpp -mtune=generic -march=x86-64 -g -O0 -fpre-include=/usr/include/finclude/math-vector-fortran.h
REM seed -1849134316 1744955321 1567872173 1224142769 448515076 34914678 1325076282 614587411 -884078812 -2039706682 1797093969 -1038732172 943996716 -975281992 -1952417664 -1209429715 -1794823390 -2055214370 -1341858177 1378124845 1929980300 -440873859 1406538786 1263549962 -498839995 -871261420 1558501356 -1874147951 -478503734 -856186016 -656867829 1306061787 976749132
REM
CELL 1.54180   50.00000   50.00000   50.00000   90.00000   90.00000   90.00000
LATT -1
SFAC C  
C      1  0.4432530000000  0.5197000000000  0.4556220000000 1.0
C      1  0.4867430000000  0.4870580000000  0.5379470000000 1.0
C      1  0.4662550000000  0.4249320000000  0.4736980000000 1.0
C      1  0.4663220000000  0.5447050000000  0.4131940000000 1.0
C      1  0.4965490000000  0.5444280000000  0.4959600000000 1.0
C      1  0.5288920000000  0.5566480000000  0.5737480000000 1.0
C      1  0.4685460000000  0.5082650000000  0.5753110000000 1.0
C      1  0.4187150000000  0.4677560000000  0.4965970000000 1.0
C      1  0.5165860000000  0.5022010000000  0.5443430000000 1.0
C      1  0.4876800000000  0.5190770000000  0.5493660000000 1.0
C      1  0.5207900000000  0.5566670000000  0.4348580000000 1.0
C      1  0.4891550000000  0.5327820000000  0.4353950000000 1.0
C      1  0.5831450000000  0.4589980000000  0.5315320000000 1.0
C      1  0.5255320000000  0.4347850000000  0.5417930000000 1.0
C      1  0.5035920000000  0.5958970000000  0.5455400000000 1.0
C      1  0.5070750000000  0.4381660000000  0.5143750000000 1.0
C      1  0.4957200000000  0.5572900000000  0.5809240000000 1.0
C      1  0.4857410000000  0.5330020000000  0.5912710000000 1.0
C      1  0.5240280000000  0.5824650000000  0.4686950000000 1.0
C      1  0.4992860000000  0.5562070000000  0.4129130000000 1.0
C      1  0.5037880000000  0.4600780000000  0.5763850000000 1.0
C      1  0.4299490000000  0.5181620000000  0.5732560000000 1.0
C      1  0.5649960000000  0.5026650000000  0.4530320000000 1.0
C      1  0.5493110000000  0.5334140000000  0.4797550000000 1.0
C      1  0.5440310000000  0.4862080000000  0.5521930000000 1.0
C      1  0.5624860000000  0.4709540000000  0.4424760000000 1.0
C      1  0.4538400000000  0.4999960000000  0.4812640000000 1.0
C      1  0.4379640000000  0.5528240000000  0.5404990000000 1.0
C      1  0.4332070000000  0.4732400000000  0.5935140000000 1.0
C      1  0.4928500000000  0.4866570000000  0.5720860000000 1.0
C      1  0.4589820000000  0.4989170000000  0.5232420000000 1.0
C      1  0.4605420000000  0.4616990000000  0.5542040000000 1.0
C      1  0.5185170000000  0.4263640000000  0.4588530000000 1.0
C      1  0.4823020000000  0.5125130000000  0.4541920000000 1.0
C      1  0.5249880000000  0.4545640000000  0.4746220000000 1.0
C      1  0.5135580000000  0.5736860000000  0.4992370000000 1.0
C      1  0.6022370000000  0.4984310000000  0.4924760000000 1.0
C      1  0.4340880000000  0.5136600000000  0.5053690000000 1.0
C      1  0.4070900000000  0.5174840000000  0.4850470000000 1.0
C      1  0.5419020000000  0.4068240000000  0.5021570000000 1.0
C      1  0.4721300000000  0.5252210000000  0.5061570000000 1.0
C      1  0.4335500000000  0.4730770000000  0.4434560000000 1.0
C      1  0.5530660000000  0.5161480000000  0.5387910000000 1.0
C      1  0.5863990000000  0.5170020000000  0.4703920000000 1.0
C      1  0.5719760000000  0.4460780000000  0.4587810000000 1.0
C      1  0.5875430000000  0.4705960000000  0.5027490000000 1.0
C      1  0.5464390000000  0.4464350000000  0.4992280000000 1.0
C      1  0.5430810000000  0.4423940000000  0.4415360000000 1.0
C      1  0.4193410000000  0.4852580000000  0.5442060000000 1.0
C      1  0.5160740000000  0.4519520000000  0.4283780000000 1.0
C      1  0.4825020000000  0.4078390000000  0.5058100000000 1.0
C      1  0.4419910000000  0.5559080000000  0.4723610000000 1.0
C      1  0.5485190000000  0.5464910000000  0.4339420000000 1.0
C      1  0.4297430000000  0.4778790000000  0.4719550000000 1.0
C      1  0.4453680000000  0.4647510000000  0.4170870000000 1.0
C      1  0.5191410000000  0.4835380000000  0.4222340000000 1.0
C      1  0.5393600000000  0.5666930000000  0.5205690000000 1.0
C      1  0.5181760000000  0.4192500000000  0.4920990000000 1.0
C      1  0.4897940000000  0.5454130000000  0.5353380000000 1.0
C      1  0.5189310000000  0.5395450000000  0.5192610000000 1.0
C      1  0.5647700000000  0.5450710000000  0.5271740000000 1.0
C      1  0.4966150000000  0.4697960000000  0.5119700000000 1.0
C      1  0.4737500000000  0.4663180000000  0.4137590000000 1.0
C      1  0.4492890000000  0.5461240000000  0.4977930000000 1.0
C      1  0.4170090000000  0.4876200000000  0.5172590000000 1.0
C      1  0.4816250000000  0.5640940000000  0.4487430000000 1.0
C      1  0.5510710000000  0.4257630000000  0.5258410000000 1.0
C      1  0.5573980000000  0.5579210000000  0.5551650000000 1.0
C      1  0.5246650000000  0.5786750000000  0.5480900000000 1.0
C      1  0.4841150000000  0.5156380000000  0.4064610000000 1.0
C      1  0.5694090000000  0.4988040000000  0.5013670000000 1.0
C      1  0.4428220000000  0.4870040000000  0.5687470000000 1.0
C      1  0.4736250000000  0.5899440000000  0.5431010000000 1.0
C      1  0.4754220000000  0.4515140000000  0.4631450000000 1.0
C      1  0.4644720000000  0.5640570000000  0.5223870000000 1.0
C      1  0.5521850000000  0.5120440000000  0.5727450000000 1.0
C      1  0.4868210000000  0.4809110000000  0.4548720000000 1.0
C      1  0.4368820000000  0.5439900000000  0.5670690000000 1.0
C      1  0.4877970000000  0.4485510000000  0.4317070000000 1.0
C      1  0.4343740000000  0.4457600000000  0.5060040000000 1.0
C      1  0.4918740000000  0.4884820000000  0.4066290000000 1.0
C      1  0.4534600000000  0.5480160000000  0.4445020000000 1.0
C      1  0.4934680000000  0.4080620000000  0.4736150000000 1.0
C      1  0.4962670000000  0.4224640000000  0.5495250000000 1.0
C      1  0.5185750000000  0.4803990000000  0.4561390000000 1.0
C      1  0.4868730000000  0.5075450000000  0.4845610000000 1.0
C      1  0.4705110000000  0.4716870000000  0.4901020000000 1.0
C      1  0.4817360000000  0.5650440000000  0.5583890000000 1.0
C      1  0.4898980000000  0.5869890000000  0.4701500000000 1.0
C      1  0.5308720000000  0.5258610000000  0.5842960000000 1.0
C      1  0.4441630000000  0.4252020000000  0.4892450000000 1.0
C      1  0.5410690000000  0.5030440000000  0.4120250000000 1.0
C      1  0.4576120000000  0.4933260000000  0.4422050000000 1.0
C      1  0.4814180000000  0.5812700000000  0.4996620000000 1.0
C      1  0.4208040000000  0.5383900000000  0.5245620000000 1.0
C      1  0.5370440000000  0.5044420000000  0.4685090000000 1.0
C      1  0.4880630000000  0.4007240000000  0.5333380000000 1.0
C      1  0.5289660000000  0.4576450000000  0.5628400000000 1.0
C      1  0.5401120000000  0.5157720000000  0.5073310000000 1.0
C      1  0.5565720000000  0.4722090000000  0.5278750000000 1.0
C      1  0.4825250000000  0.4442400000000  0.5634290000000 1.0
C      1  0.5543350000000  0.5197010000000  0.4292310000000 1.0
C      1  0.5757150000000  0.5320580000000  0.4998650000000 1.0
C      1  0.5063430000000  0.5125220000000  0.5873650000000 1.0
C      1  0.4128530000000  0.5197620000000  0.4604560000000 1.0
C      1  0.5081830000000  0.5520860000000  0.4661000000000 1.0
C      1  0.5730650000000  0.4505170000000  0.4858250000000 1.0
C      1  0.5296380000000  0.4736850000000  0.5089700000000 1.0
C      1  0.4580600000000  0.4649760000000  0.5210420000000 1.0
C      1  0.4743920000000  0.4367950000000  0.5127310000000 1.0
C      1  0.5483180000000  0.5594370000000  0.4636050000000 1.0
C      1  0.5789150000000  0.4325100000000  0.5373250000000 1.0
C      1  0.5556600000000  0.5761830000000  0.4922700000000 1.0
C      1  0.5151690000000  0.4985200000000  0.4916140000000 1.0
END
