TITL C-2848494-1720-303 -0.00251647771977317 125000 -894.994795538833 0 0 163 (C1) n - 1
REM
REM in /home/bkarasulu/work/CARBON/AIRSS/Generating-Clusters/AIREBO/with-SteepDescent/Only-C1/SD-CG-opt/Try1-1.4A-POS3A/HFTN-CG
REM
REM
REM
REM
REM
REM ./C.cell (11c1c37f851c82e70ff6c80c92926a4b)
REM
REM compiler GCC version 9.2.1 20190827 (Red Hat 9.2.1-1)
REM options -cpp -mtune=generic -march=x86-64 -g -O0 -fpre-include=/usr/include/finclude/math-vector-fortran.h
REM seed 1918682983 744423570 450027738 -870252615 -1054984192 -858583058 -685865064 -2060117723 -2098991402 86559819 -1450090676 -801408691 -1054192771 1566799615 902050140 -1172604595 1779689733 448393146 853561816 1833871964 -1617852069 -1657291593 1562916133 -183596036 -1094742293 -1252833621 -1499893464 876810170 -1696760970 -155716281 1275958891 764162740 1706337305
REM
CELL 1.54180   50.00000   50.00000   50.00000   90.00000   90.00000   90.00000
LATT -1
SFAC C  
C      1  0.4681020000000  0.4888880000000  0.5652400000000 1.0
C      1  0.4138170000000  0.4550700000000  0.5633010000000 1.0
C      1  0.4878620000000  0.6108970000000  0.4836350000000 1.0
C      1  0.5693170000000  0.4922280000000  0.5807290000000 1.0
C      1  0.4408460000000  0.5034600000000  0.4509000000000 1.0
C      1  0.4603630000000  0.4817010000000  0.4058990000000 1.0
C      1  0.5385900000000  0.5154910000000  0.5701830000000 1.0
C      1  0.4775880000000  0.3994250000000  0.5125950000000 1.0
C      1  0.5122960000000  0.4770230000000  0.4081980000000 1.0
C      1  0.3954530000000  0.5336390000000  0.4964250000000 1.0
C      1  0.5360890000000  0.5267150000000  0.5039600000000 1.0
C      1  0.5177760000000  0.4398710000000  0.4480130000000 1.0
C      1  0.5181050000000  0.4454850000000  0.4016010000000 1.0
C      1  0.5217500000000  0.4736200000000  0.4504260000000 1.0
C      1  0.6050720000000  0.4482500000000  0.4961310000000 1.0
C      1  0.4056040000000  0.4934650000000  0.4672440000000 1.0
C      1  0.5240790000000  0.5581820000000  0.4461400000000 1.0
C      1  0.5053160000000  0.4506110000000  0.5752420000000 1.0
C      1  0.4587460000000  0.5226420000000  0.5980670000000 1.0
C      1  0.5064000000000  0.3972300000000  0.5127050000000 1.0
C      1  0.5672300000000  0.5743850000000  0.5171700000000 1.0
C      1  0.4505050000000  0.5498380000000  0.4374840000000 1.0
C      1  0.4817540000000  0.5394990000000  0.5960460000000 1.0
C      1  0.4476820000000  0.4737540000000  0.4594160000000 1.0
C      1  0.4364950000000  0.5707190000000  0.4871150000000 1.0
C      1  0.4740970000000  0.4807180000000  0.5342960000000 1.0
C      1  0.4771620000000  0.4232700000000  0.5679030000000 1.0
C      1  0.4175670000000  0.5494850000000  0.5023720000000 1.0
C      1  0.4959020000000  0.4890700000000  0.4346170000000 1.0
C      1  0.4618600000000  0.5282230000000  0.5097470000000 1.0
C      1  0.3925030000000  0.4709830000000  0.5113980000000 1.0
C      1  0.5044420000000  0.4132200000000  0.5613940000000 1.0
C      1  0.5664040000000  0.5024270000000  0.4253040000000 1.0
C      1  0.4577330000000  0.4023770000000  0.5307510000000 1.0
C      1  0.4770550000000  0.4465100000000  0.5904180000000 1.0
C      1  0.5620510000000  0.5477710000000  0.5683970000000 1.0
C      1  0.4070720000000  0.4916050000000  0.4332910000000 1.0
C      1  0.4272140000000  0.5164540000000  0.4792290000000 1.0
C      1  0.4786910000000  0.5507200000000  0.5535900000000 1.0
C      1  0.5771160000000  0.5471950000000  0.5446630000000 1.0
C      1  0.5737780000000  0.5314280000000  0.5221430000000 1.0
C      1  0.5494090000000  0.4299370000000  0.4486380000000 1.0
C      1  0.4507050000000  0.5410670000000  0.4803050000000 1.0
C      1  0.4848950000000  0.4910360000000  0.3964960000000 1.0
C      1  0.4292070000000  0.5331350000000  0.4405310000000 1.0
C      1  0.5102590000000  0.5230620000000  0.5873980000000 1.0
C      1  0.5158350000000  0.4060390000000  0.4867750000000 1.0
C      1  0.4750190000000  0.4504470000000  0.5051680000000 1.0
C      1  0.5361660000000  0.5599700000000  0.5697300000000 1.0
C      1  0.5442330000000  0.4700460000000  0.4176340000000 1.0
C      1  0.5439580000000  0.4469320000000  0.5848430000000 1.0
C      1  0.5497590000000  0.5870770000000  0.5355190000000 1.0
C      1  0.5136700000000  0.5914660000000  0.4435590000000 1.0
C      1  0.4807090000000  0.5832900000000  0.5631440000000 1.0
C      1  0.4909620000000  0.4956780000000  0.4833720000000 1.0
C      1  0.4372730000000  0.4969940000000  0.5052570000000 1.0
C      1  0.5015950000000  0.5505330000000  0.4704750000000 1.0
C      1  0.5404050000000  0.5023570000000  0.4838210000000 1.0
C      1  0.4544780000000  0.5839680000000  0.5087380000000 1.0
C      1  0.4949440000000  0.4879260000000  0.6189470000000 1.0
C      1  0.4215400000000  0.4266050000000  0.4899200000000 1.0
C      1  0.4768720000000  0.5366490000000  0.4205190000000 1.0
C      1  0.5558600000000  0.5190510000000  0.4598800000000 1.0
C      1  0.4465120000000  0.5000600000000  0.5335950000000 1.0
C      1  0.4939820000000  0.5849670000000  0.5011450000000 1.0
C      1  0.5642850000000  0.4774120000000  0.5054920000000 1.0
C      1  0.3972490000000  0.4998160000000  0.4996030000000 1.0
C      1  0.4279760000000  0.4454360000000  0.4395440000000 1.0
C      1  0.5260170000000  0.5072390000000  0.4533580000000 1.0
C      1  0.5637690000000  0.4582770000000  0.5315770000000 1.0
C      1  0.4424680000000  0.4200260000000  0.4482560000000 1.0
C      1  0.5788660000000  0.5488850000000  0.4472390000000 1.0
C      1  0.6054070000000  0.5017350000000  0.5084150000000 1.0
C      1  0.5656840000000  0.5221340000000  0.5838080000000 1.0
C      1  0.5363150000000  0.4699840000000  0.4914860000000 1.0
C      1  0.5052070000000  0.4493740000000  0.5440740000000 1.0
C      1  0.4750330000000  0.4163800000000  0.4881060000000 1.0
C      1  0.4767830000000  0.4625220000000  0.6191600000000 1.0
C      1  0.4909360000000  0.5209550000000  0.4653020000000 1.0
C      1  0.5426710000000  0.4317180000000  0.5290790000000 1.0
C      1  0.5134120000000  0.5276950000000  0.3832010000000 1.0
C      1  0.5032920000000  0.4117130000000  0.4604160000000 1.0
C      1  0.4341690000000  0.4995740000000  0.4177830000000 1.0
C      1  0.5754660000000  0.5981970000000  0.4796160000000 1.0
C      1  0.5311570000000  0.5587650000000  0.4128830000000 1.0
C      1  0.5085810000000  0.5791130000000  0.4160090000000 1.0
C      1  0.4627980000000  0.6095930000000  0.5019660000000 1.0
C      1  0.5354170000000  0.5000400000000  0.5403150000000 1.0
C      1  0.5540400000000  0.4331770000000  0.5610980000000 1.0
C      1  0.5485200000000  0.5872730000000  0.4816420000000 1.0
C      1  0.5259740000000  0.5976450000000  0.5244150000000 1.0
C      1  0.4981530000000  0.5853880000000  0.5349300000000 1.0
C      1  0.5654530000000  0.4303270000000  0.4723070000000 1.0
C      1  0.4705060000000  0.4088780000000  0.4568620000000 1.0
C      1  0.4727950000000  0.5100100000000  0.4412620000000 1.0
C      1  0.4259130000000  0.5115580000000  0.5562850000000 1.0
C      1  0.5292410000000  0.4369320000000  0.4877780000000 1.0
C      1  0.4737910000000  0.4532600000000  0.4565360000000 1.0
C      1  0.4719310000000  0.5586090000000  0.5212110000000 1.0
C      1  0.4490620000000  0.4636820000000  0.4269540000000 1.0
C      1  0.5509190000000  0.5556450000000  0.4939440000000 1.0
C      1  0.5240650000000  0.4588050000000  0.5203280000000 1.0
C      1  0.5891220000000  0.5083610000000  0.4792990000000 1.0
C      1  0.5549410000000  0.4804170000000  0.4474050000000 1.0
C      1  0.5228830000000  0.4241340000000  0.5844210000000 1.0
C      1  0.5142770000000  0.5245910000000  0.5299840000000 1.0
C      1  0.5104170000000  0.5495850000000  0.5661230000000 1.0
C      1  0.4892000000000  0.5188390000000  0.3942980000000 1.0
C      1  0.4082520000000  0.4642030000000  0.4492480000000 1.0
C      1  0.4754200000000  0.5644330000000  0.4811010000000 1.0
C      1  0.4270870000000  0.4626280000000  0.5829010000000 1.0
C      1  0.4340250000000  0.5373720000000  0.5270010000000 1.0
C      1  0.4498650000000  0.5247070000000  0.4036310000000 1.0
C      1  0.5030010000000  0.6109630000000  0.4601370000000 1.0
C      1  0.5158350000000  0.4815900000000  0.5696860000000 1.0
C      1  0.4449970000000  0.5466700000000  0.5558180000000 1.0
C      1  0.5360340000000  0.5359800000000  0.3979530000000 1.0
C      1  0.5418210000000  0.4785780000000  0.5914120000000 1.0
C      1  0.5608990000000  0.5032040000000  0.5244820000000 1.0
C      1  0.4622720000000  0.5032740000000  0.4866360000000 1.0
C      1  0.4820870000000  0.5678530000000  0.5894860000000 1.0
C      1  0.5508250000000  0.5511840000000  0.4602330000000 1.0
C      1  0.4549180000000  0.4319070000000  0.5436590000000 1.0
C      1  0.5449930000000  0.4390270000000  0.4188740000000 1.0
C      1  0.4081510000000  0.4432620000000  0.5056120000000 1.0
C      1  0.4533450000000  0.5737280000000  0.4576240000000 1.0
C      1  0.5071010000000  0.4853860000000  0.5273810000000 1.0
C      1  0.5727940000000  0.4796700000000  0.4726370000000 1.0
C      1  0.5432360000000  0.4706370000000  0.5527780000000 1.0
C      1  0.4943600000000  0.4313580000000  0.4079680000000 1.0
C      1  0.5781560000000  0.5352810000000  0.4935300000000 1.0
C      1  0.5174400000000  0.4970840000000  0.6062960000000 1.0
C      1  0.4876560000000  0.4365650000000  0.4342010000000 1.0
C      1  0.5069880000000  0.5300280000000  0.4367340000000 1.0
C      1  0.4977980000000  0.4416150000000  0.4863260000000 1.0
C      1  0.5197270000000  0.4076480000000  0.5362460000000 1.0
C      1  0.4159480000000  0.4594960000000  0.5333270000000 1.0
C      1  0.4967010000000  0.4701140000000  0.4717870000000 1.0
C      1  0.4819940000000  0.5698250000000  0.4149480000000 1.0
C      1  0.4826940000000  0.4418010000000  0.5332070000000 1.0
C      1  0.5885830000000  0.4838890000000  0.5605540000000 1.0
C      1  0.4094350000000  0.5139160000000  0.5281250000000 1.0
C      1  0.4639610000000  0.5861550000000  0.4285960000000 1.0
C      1  0.4909150000000  0.5098550000000  0.5128530000000 1.0
C      1  0.4506190000000  0.4376400000000  0.4761790000000 1.0
C      1  0.5868850000000  0.5163950000000  0.4470340000000 1.0
C      1  0.4716590000000  0.5179370000000  0.5479330000000 1.0
C      1  0.4564310000000  0.4704140000000  0.5863790000000 1.0
C      1  0.5879290000000  0.5897450000000  0.5038010000000 1.0
C      1  0.4487140000000  0.4603920000000  0.5242930000000 1.0
C      1  0.5847590000000  0.4509470000000  0.4767950000000 1.0
C      1  0.5010450000000  0.5101220000000  0.5577950000000 1.0
C      1  0.5547480000000  0.4198420000000  0.4994490000000 1.0
C      1  0.5293990000000  0.6029370000000  0.4966480000000 1.0
C      1  0.6097690000000  0.4482120000000  0.5234160000000 1.0
C      1  0.5174470000000  0.5614440000000  0.4954360000000 1.0
C      1  0.5919330000000  0.4584650000000  0.5425950000000 1.0
C      1  0.4376890000000  0.5283490000000  0.5786610000000 1.0
C      1  0.5048090000000  0.5541470000000  0.5236420000000 1.0
C      1  0.4437170000000  0.4672770000000  0.4913570000000 1.0
C      1  0.5561610000000  0.5175110000000  0.4055870000000 1.0
C      1  0.5911990000000  0.4968550000000  0.5318190000000 1.0
C      1  0.4658770000000  0.4949450000000  0.6056350000000 1.0
END
