TITL C-2848494-1720-639 -0.000759085023255582 125000 -472.15870011741 0 0 88 (C1) n - 1
REM
REM in /home/bkarasulu/work/CARBON/AIRSS/Generating-Clusters/AIREBO/with-SteepDescent/Only-C1/SD-CG-opt/Try1-1.4A-POS3A/HFTN-CG
REM
REM
REM
REM
REM
REM ./C.cell (11c1c37f851c82e70ff6c80c92926a4b)
REM
REM compiler GCC version 9.2.1 20190827 (Red Hat 9.2.1-1)
REM options -cpp -mtune=generic -march=x86-64 -g -O0 -fpre-include=/usr/include/finclude/math-vector-fortran.h
REM seed 3143794 854842111 543946384 -1929713422 499762982 -170869462 -1184757764 1250259686 -433257855 -1114511162 506757698 -992564193 1252986549 1445180036 -1176995804 896363905 2128665771 1470182169 1387504392 -1552188525 -1579446738 1414969808 1805687376 -1904095010 -818300266 535353209 -20692786 -1795555690 2140388891 432506174 1445300025 -704871278 -2000857933
REM
CELL 1.54180   50.00000   50.00000   50.00000   90.00000   90.00000   90.00000
LATT -1
SFAC C  
C      1  0.5051460000000  0.4316180000000  0.4726250000000 1.0
C      1  0.5534130000000  0.5609200000000  0.5235930000000 1.0
C      1  0.5465740000000  0.5109040000000  0.4727970000000 1.0
C      1  0.4993880000000  0.4639470000000  0.4672560000000 1.0
C      1  0.4951070000000  0.5382630000000  0.5476320000000 1.0
C      1  0.5092450000000  0.5597430000000  0.5810530000000 1.0
C      1  0.5394420000000  0.4644010000000  0.4578690000000 1.0
C      1  0.5300060000000  0.5017420000000  0.5561680000000 1.0
C      1  0.4816770000000  0.4421460000000  0.5427120000000 1.0
C      1  0.4942420000000  0.5305630000000  0.5800410000000 1.0
C      1  0.4707480000000  0.4884330000000  0.4544740000000 1.0
C      1  0.4435470000000  0.5064930000000  0.4614640000000 1.0
C      1  0.4232720000000  0.4690780000000  0.5519410000000 1.0
C      1  0.4480740000000  0.4622600000000  0.5305010000000 1.0
C      1  0.5847860000000  0.4870660000000  0.4887660000000 1.0
C      1  0.4593670000000  0.5504660000000  0.4791360000000 1.0
C      1  0.4716260000000  0.5636580000000  0.5147880000000 1.0
C      1  0.4904610000000  0.5411110000000  0.4323350000000 1.0
C      1  0.5349580000000  0.4695020000000  0.4150380000000 1.0
C      1  0.5139360000000  0.4785380000000  0.4401900000000 1.0
C      1  0.4721810000000  0.4371570000000  0.4788450000000 1.0
C      1  0.5481940000000  0.5537950000000  0.5500990000000 1.0
C      1  0.5093220000000  0.4901520000000  0.4953240000000 1.0
C      1  0.5596350000000  0.5412360000000  0.4775290000000 1.0
C      1  0.4937040000000  0.5057160000000  0.4694230000000 1.0
C      1  0.4403600000000  0.5362790000000  0.4566260000000 1.0
C      1  0.5282840000000  0.5439080000000  0.4857360000000 1.0
C      1  0.4975570000000  0.5085220000000  0.5319460000000 1.0
C      1  0.4349030000000  0.4990800000000  0.5114620000000 1.0
C      1  0.4952480000000  0.5447010000000  0.5082030000000 1.0
C      1  0.4636750000000  0.5483240000000  0.4350580000000 1.0
C      1  0.4238930000000  0.5273560000000  0.5033740000000 1.0
C      1  0.4766070000000  0.4602640000000  0.4187870000000 1.0
C      1  0.5680710000000  0.4912170000000  0.5180990000000 1.0
C      1  0.5605140000000  0.4963270000000  0.5480780000000 1.0
C      1  0.5518380000000  0.5147670000000  0.5060320000000 1.0
C      1  0.5808110000000  0.5304350000000  0.5818380000000 1.0
C      1  0.4721930000000  0.5089380000000  0.5807980000000 1.0
C      1  0.5524830000000  0.4880300000000  0.4371740000000 1.0
C      1  0.5057000000000  0.4840830000000  0.5508400000000 1.0
C      1  0.5260560000000  0.4691610000000  0.5100620000000 1.0
C      1  0.4328610000000  0.4688800000000  0.4620500000000 1.0
C      1  0.4391960000000  0.4435720000000  0.4750730000000 1.0
C      1  0.4826960000000  0.4794880000000  0.5728860000000 1.0
C      1  0.5150250000000  0.5802550000000  0.4767420000000 1.0
C      1  0.5404020000000  0.4500820000000  0.5549860000000 1.0
C      1  0.4562680000000  0.5724650000000  0.4533830000000 1.0
C      1  0.5229250000000  0.5074380000000  0.4556860000000 1.0
C      1  0.5687960000000  0.4904800000000  0.4663860000000 1.0
C      1  0.5264030000000  0.5254220000000  0.5702780000000 1.0
C      1  0.5371260000000  0.5445850000000  0.4397030000000 1.0
C      1  0.5182040000000  0.5196230000000  0.5073100000000 1.0
C      1  0.5598190000000  0.5268220000000  0.5639380000000 1.0
C      1  0.4146690000000  0.5298520000000  0.4762310000000 1.0
C      1  0.4899560000000  0.4914870000000  0.4197870000000 1.0
C      1  0.5589910000000  0.4524530000000  0.4733680000000 1.0
C      1  0.4721360000000  0.4322520000000  0.5124900000000 1.0
C      1  0.4869000000000  0.5364360000000  0.4786220000000 1.0
C      1  0.4660130000000  0.5317990000000  0.5381630000000 1.0
C      1  0.4323600000000  0.5340310000000  0.5356220000000 1.0
C      1  0.4446840000000  0.4774390000000  0.4356020000000 1.0
C      1  0.4739530000000  0.4548680000000  0.4498520000000 1.0
C      1  0.5045410000000  0.4364510000000  0.5181710000000 1.0
C      1  0.5349710000000  0.5149290000000  0.4252860000000 1.0
C      1  0.4452960000000  0.5512790000000  0.5092800000000 1.0
C      1  0.4881720000000  0.4484160000000  0.5692600000000 1.0
C      1  0.4792360000000  0.4700520000000  0.5234200000000 1.0
C      1  0.5370980000000  0.4559420000000  0.3936250000000 1.0
C      1  0.5070950000000  0.5655240000000  0.5323310000000 1.0
C      1  0.5176230000000  0.4589650000000  0.5385110000000 1.0
C      1  0.4139230000000  0.4828690000000  0.5276360000000 1.0
C      1  0.4483360000000  0.4855970000000  0.4871080000000 1.0
C      1  0.5211280000000  0.4265980000000  0.4958360000000 1.0
C      1  0.5096090000000  0.5516340000000  0.4583890000000 1.0
C      1  0.5631310000000  0.4396040000000  0.5750320000000 1.0
C      1  0.4531950000000  0.4813550000000  0.5590190000000 1.0
C      1  0.4476080000000  0.5133640000000  0.5582140000000 1.0
C      1  0.5269030000000  0.5701940000000  0.5069750000000 1.0
C      1  0.4424160000000  0.4416510000000  0.5051250000000 1.0
C      1  0.4654120000000  0.5011220000000  0.5235150000000 1.0
C      1  0.5630490000000  0.4702410000000  0.5633800000000 1.0
C      1  0.4577950000000  0.4856070000000  0.4090880000000 1.0
C      1  0.5673410000000  0.5428160000000  0.5080660000000 1.0
C      1  0.5030260000000  0.5192500000000  0.4181320000000 1.0
C      1  0.5237270000000  0.5639550000000  0.5585920000000 1.0
C      1  0.5482460000000  0.4325220000000  0.4954260000000 1.0
C      1  0.5566900000000  0.4639760000000  0.5052080000000 1.0
C      1  0.4787980000000  0.4760590000000  0.4915050000000 1.0
END
