TITL C-2847955-7945-369 -1.66049822658086e-05 125000 -747.619863566502 0 0 137 (C1) n - 1
REM
REM in /home/bkarasulu/work/CARBON/AIRSS/Generating-Clusters/AIREBO/with-SteepDescent/Only-C1/SD-CG-opt/Try1-1.4A-POS3A/HFTN-CG
REM
REM
REM
REM
REM
REM ./C.cell (11c1c37f851c82e70ff6c80c92926a4b)
REM
REM compiler GCC version 9.2.1 20190827 (Red Hat 9.2.1-1)
REM options -cpp -mtune=generic -march=x86-64 -g -O0 -fpre-include=/usr/include/finclude/math-vector-fortran.h
REM seed -731395835 174649494 2092893940 1649653969 879643080 -2119112381 981140187 -1097137904 -1641445346 -1788925969 -888007223 1222995577 -1565931613 642239121 1495681707 -2018367097 259402839 815450626 -456532671 -1118378528 -1682281155 -1243077709 -1571488614 -646774277 -517764880 844358921 1058673832 427634819 -1074157895 845292705 68160323 851907754 -816980604
REM
CELL 1.54180   50.00000   50.00000   50.00000   90.00000   90.00000   90.00000
LATT -1
SFAC C  
C      1  0.5672510000000  0.5611730000000  0.4720190000000 1.0
C      1  0.4635260000000  0.5475900000000  0.5437770000000 1.0
C      1  0.4826350000000  0.4987340000000  0.5426080000000 1.0
C      1  0.5515550000000  0.4068730000000  0.5084250000000 1.0
C      1  0.5917170000000  0.4802600000000  0.5245770000000 1.0
C      1  0.5434820000000  0.5738880000000  0.4820420000000 1.0
C      1  0.5248780000000  0.5143700000000  0.4092910000000 1.0
C      1  0.5132920000000  0.5616290000000  0.5685680000000 1.0
C      1  0.5114680000000  0.5062330000000  0.4579200000000 1.0
C      1  0.4209740000000  0.5170420000000  0.5100110000000 1.0
C      1  0.5216510000000  0.4097030000000  0.5161750000000 1.0
C      1  0.4137780000000  0.4569040000000  0.5323220000000 1.0
C      1  0.4232880000000  0.5119820000000  0.5873760000000 1.0
C      1  0.5247670000000  0.5927350000000  0.4943070000000 1.0
C      1  0.4243860000000  0.5180320000000  0.4582530000000 1.0
C      1  0.5221090000000  0.5831740000000  0.5258030000000 1.0
C      1  0.5472180000000  0.5016080000000  0.5353630000000 1.0
C      1  0.5648630000000  0.5102550000000  0.5908290000000 1.0
C      1  0.4972050000000  0.4283930000000  0.5639980000000 1.0
C      1  0.4166290000000  0.5311550000000  0.5674790000000 1.0
C      1  0.5818800000000  0.5289730000000  0.5503900000000 1.0
C      1  0.4924360000000  0.4657500000000  0.4093840000000 1.0
C      1  0.5301190000000  0.4732710000000  0.4455620000000 1.0
C      1  0.5625540000000  0.4860300000000  0.4799100000000 1.0
C      1  0.4660630000000  0.4341740000000  0.4812490000000 1.0
C      1  0.4896970000000  0.4850620000000  0.4461380000000 1.0
C      1  0.5663470000000  0.4320870000000  0.4909890000000 1.0
C      1  0.5246780000000  0.4736510000000  0.4767940000000 1.0
C      1  0.4413080000000  0.4098960000000  0.5181820000000 1.0
C      1  0.4789610000000  0.4655350000000  0.5450830000000 1.0
C      1  0.4325700000000  0.4858530000000  0.5714890000000 1.0
C      1  0.5525260000000  0.5773140000000  0.5365890000000 1.0
C      1  0.4324410000000  0.4517110000000  0.5106880000000 1.0
C      1  0.4894460000000  0.5329720000000  0.5827130000000 1.0
C      1  0.5155650000000  0.4423390000000  0.5087740000000 1.0
C      1  0.4679940000000  0.5036220000000  0.4276380000000 1.0
C      1  0.4554370000000  0.5757650000000  0.5166220000000 1.0
C      1  0.5201200000000  0.4325720000000  0.5412890000000 1.0
C      1  0.4403860000000  0.4587890000000  0.5534550000000 1.0
C      1  0.5034980000000  0.5853130000000  0.4520870000000 1.0
C      1  0.5326240000000  0.5139650000000  0.5932270000000 1.0
C      1  0.4358580000000  0.5533730000000  0.5620490000000 1.0
C      1  0.5895240000000  0.4879010000000  0.4988880000000 1.0
C      1  0.4407300000000  0.4271030000000  0.5411090000000 1.0
C      1  0.5025490000000  0.5396580000000  0.4135840000000 1.0
C      1  0.5658790000000  0.4483270000000  0.5377430000000 1.0
C      1  0.4305380000000  0.4964280000000  0.5426810000000 1.0
C      1  0.5483940000000  0.4590840000000  0.4908710000000 1.0
C      1  0.4855690000000  0.5147870000000  0.4027630000000 1.0
C      1  0.4300890000000  0.5655930000000  0.5318710000000 1.0
C      1  0.4661020000000  0.5468710000000  0.5764590000000 1.0
C      1  0.4801970000000  0.5770380000000  0.4387580000000 1.0
C      1  0.5748150000000  0.5071490000000  0.4396130000000 1.0
C      1  0.5247990000000  0.5668370000000  0.4475280000000 1.0
C      1  0.5641190000000  0.4641030000000  0.4155600000000 1.0
C      1  0.3971370000000  0.5069890000000  0.4686060000000 1.0
C      1  0.5426930000000  0.5071920000000  0.4621840000000 1.0
C      1  0.4351690000000  0.4264560000000  0.4910250000000 1.0
C      1  0.5426010000000  0.4588050000000  0.5212090000000 1.0
C      1  0.4763540000000  0.4154070000000  0.4557660000000 1.0
C      1  0.5192430000000  0.4731870000000  0.5338670000000 1.0
C      1  0.5022770000000  0.5339700000000  0.4447230000000 1.0
C      1  0.4984390000000  0.4084260000000  0.4743260000000 1.0
C      1  0.5507610000000  0.5079720000000  0.5026470000000 1.0
C      1  0.4885370000000  0.4834230000000  0.5897030000000 1.0
C      1  0.4659570000000  0.4718640000000  0.4168460000000 1.0
C      1  0.5742800000000  0.4255100000000  0.5228090000000 1.0
C      1  0.5730310000000  0.5802710000000  0.5182220000000 1.0
C      1  0.4544540000000  0.4321050000000  0.4430810000000 1.0
C      1  0.5566000000000  0.5510830000000  0.5558150000000 1.0
C      1  0.5378370000000  0.5452740000000  0.5808720000000 1.0
C      1  0.5052170000000  0.4999350000000  0.3855170000000 1.0
C      1  0.5202860000000  0.4859390000000  0.5778000000000 1.0
C      1  0.4386290000000  0.4807520000000  0.4595950000000 1.0
C      1  0.4959580000000  0.3981160000000  0.5005150000000 1.0
C      1  0.5159790000000  0.5011820000000  0.5487920000000 1.0
C      1  0.5703970000000  0.5330880000000  0.5105740000000 1.0
C      1  0.4653320000000  0.4942860000000  0.5688500000000 1.0
C      1  0.4564070000000  0.5091550000000  0.4654680000000 1.0
C      1  0.5514730000000  0.5235700000000  0.4206830000000 1.0
C      1  0.5999690000000  0.5142300000000  0.4913890000000 1.0
C      1  0.5188540000000  0.4311260000000  0.4767080000000 1.0
C      1  0.5224240000000  0.5424950000000  0.4690720000000 1.0
C      1  0.4715690000000  0.5312310000000  0.4471870000000 1.0
C      1  0.5974790000000  0.5240870000000  0.5238480000000 1.0
C      1  0.4608530000000  0.4697850000000  0.5069610000000 1.0
C      1  0.5012520000000  0.5960810000000  0.4786650000000 1.0
C      1  0.5415060000000  0.4491660000000  0.4088920000000 1.0
C      1  0.5451630000000  0.4257470000000  0.4578810000000 1.0
C      1  0.5765950000000  0.5595580000000  0.4991110000000 1.0
C      1  0.4760250000000  0.5924950000000  0.4952750000000 1.0
C      1  0.4649220000000  0.4618810000000  0.5768270000000 1.0
C      1  0.5626580000000  0.5339270000000  0.4566960000000 1.0
C      1  0.4757170000000  0.5783770000000  0.5438660000000 1.0
C      1  0.5199820000000  0.4530700000000  0.5683800000000 1.0
C      1  0.4828940000000  0.4546290000000  0.4598600000000 1.0
C      1  0.4609260000000  0.5552700000000  0.4900510000000 1.0
C      1  0.4708590000000  0.5233430000000  0.5269890000000 1.0
C      1  0.5234320000000  0.5190820000000  0.4944920000000 1.0
C      1  0.4129820000000  0.5493400000000  0.5170730000000 1.0
C      1  0.4014870000000  0.4919730000000  0.4976570000000 1.0
C      1  0.4336080000000  0.5357470000000  0.4845790000000 1.0
C      1  0.5494900000000  0.4688290000000  0.5745060000000 1.0
C      1  0.5689150000000  0.4799820000000  0.5497970000000 1.0
C      1  0.4627720000000  0.5594520000000  0.4561330000000 1.0
C      1  0.5639840000000  0.4755380000000  0.4475800000000 1.0
C      1  0.5981180000000  0.5167680000000  0.4624950000000 1.0
C      1  0.3926370000000  0.4713600000000  0.5211180000000 1.0
C      1  0.5450030000000  0.5343610000000  0.5317420000000 1.0
C      1  0.4643180000000  0.4734510000000  0.4765370000000 1.0
C      1  0.5091280000000  0.5315000000000  0.5569050000000 1.0
C      1  0.5685060000000  0.4440600000000  0.4597300000000 1.0
C      1  0.5128950000000  0.5405290000000  0.5261570000000 1.0
C      1  0.4353930000000  0.5089640000000  0.4294670000000 1.0
C      1  0.5003010000000  0.5121860000000  0.6002900000000 1.0
C      1  0.4499020000000  0.4997150000000  0.5190120000000 1.0
C      1  0.4868260000000  0.5143140000000  0.4799330000000 1.0
C      1  0.5120680000000  0.4467460000000  0.4502620000000 1.0
C      1  0.4715780000000  0.4343020000000  0.5489410000000 1.0
C      1  0.5030370000000  0.5805520000000  0.5506500000000 1.0
C      1  0.4939500000000  0.4692610000000  0.5147790000000 1.0
C      1  0.4945400000000  0.5716670000000  0.5095110000000 1.0
C      1  0.4694280000000  0.4378820000000  0.5150820000000 1.0
C      1  0.5464080000000  0.5520720000000  0.4344540000000 1.0
C      1  0.4875200000000  0.5389290000000  0.5035530000000 1.0
C      1  0.4713710000000  0.4048210000000  0.5109480000000 1.0
C      1  0.4119650000000  0.4442100000000  0.4772230000000 1.0
C      1  0.5059730000000  0.4909250000000  0.4941410000000 1.0
C      1  0.4855350000000  0.5664710000000  0.4136210000000 1.0
C      1  0.4099330000000  0.5183860000000  0.5421550000000 1.0
C      1  0.5784110000000  0.5065030000000  0.5672380000000 1.0
C      1  0.4309720000000  0.5603480000000  0.4643170000000 1.0
C      1  0.5140590000000  0.4877380000000  0.4225620000000 1.0
C      1  0.5148930000000  0.4479970000000  0.4186220000000 1.0
C      1  0.4502730000000  0.4593340000000  0.4367730000000 1.0
C      1  0.4144280000000  0.4717230000000  0.4748680000000 1.0
C      1  0.5267800000000  0.5518960000000  0.4990730000000 1.0
END
