TITL C-2847945-6269-424 -0.000671630002394898 125000 -532.878348698687 0 0 98 (C1) n - 1
REM
REM in /home/bkarasulu/work/CARBON/AIRSS/Generating-Clusters/AIREBO/with-SteepDescent/Only-C1/SD-CG-opt/Try1-1.4A-POS3A/HFTN-CG
REM
REM
REM
REM
REM
REM ./C.cell (11c1c37f851c82e70ff6c80c92926a4b)
REM
REM compiler GCC version 9.2.1 20190827 (Red Hat 9.2.1-1)
REM options -cpp -mtune=generic -march=x86-64 -g -O0 -fpre-include=/usr/include/finclude/math-vector-fortran.h
REM seed -1187779830 319404636 793988349 1297849630 -554482146 1595968130 -1172665120 657344189 76425988 1336931559 250219836 -109085626 46419853 1741293734 -1255485728 1150324843 -455405582 421700164 2092892762 187635038 -2058408045 -1268612437 -446829441 -812639135 47510087 2021473637 1184811691 166322135 875471368 -1864561133 2143769694 -1905719701 -662266440
REM
CELL 1.54180   50.00000   50.00000   50.00000   90.00000   90.00000   90.00000
LATT -1
SFAC C  
C      1  0.5300020000000  0.5747020000000  0.4727690000000 1.0
C      1  0.5578010000000  0.5603680000000  0.5103350000000 1.0
C      1  0.4123450000000  0.5098880000000  0.4637720000000 1.0
C      1  0.4774070000000  0.4781930000000  0.5379880000000 1.0
C      1  0.5789450000000  0.5054520000000  0.5020050000000 1.0
C      1  0.4819330000000  0.5760420000000  0.4703620000000 1.0
C      1  0.4372480000000  0.4884440000000  0.4566990000000 1.0
C      1  0.5076240000000  0.4760300000000  0.4202220000000 1.0
C      1  0.4561980000000  0.5662700000000  0.4849020000000 1.0
C      1  0.5126000000000  0.4246460000000  0.4658020000000 1.0
C      1  0.4656310000000  0.5792800000000  0.5354320000000 1.0
C      1  0.5167110000000  0.5470540000000  0.4854180000000 1.0
C      1  0.4378490000000  0.4850720000000  0.4905450000000 1.0
C      1  0.5797660000000  0.5162540000000  0.4722140000000 1.0
C      1  0.4684560000000  0.4597500000000  0.4947310000000 1.0
C      1  0.4925880000000  0.5453210000000  0.5069640000000 1.0
C      1  0.5285830000000  0.4776450000000  0.5790960000000 1.0
C      1  0.5274350000000  0.5752970000000  0.4420520000000 1.0
C      1  0.5444200000000  0.4580490000000  0.5405770000000 1.0
C      1  0.5039350000000  0.5440460000000  0.5354290000000 1.0
C      1  0.5182900000000  0.4565980000000  0.4702900000000 1.0
C      1  0.4999960000000  0.5332930000000  0.4276710000000 1.0
C      1  0.4891220000000  0.4996650000000  0.4647280000000 1.0
C      1  0.4626570000000  0.4914700000000  0.5649910000000 1.0
C      1  0.5644860000000  0.5389450000000  0.4649860000000 1.0
C      1  0.5736000000000  0.4913480000000  0.4559940000000 1.0
C      1  0.5101990000000  0.4269340000000  0.4355250000000 1.0
C      1  0.5080640000000  0.5909770000000  0.5134280000000 1.0
C      1  0.4464750000000  0.5470010000000  0.5725130000000 1.0
C      1  0.5434410000000  0.5051370000000  0.4484650000000 1.0
C      1  0.4770680000000  0.4284660000000  0.5274290000000 1.0
C      1  0.4892150000000  0.5065380000000  0.5782560000000 1.0
C      1  0.5139530000000  0.5743260000000  0.5416390000000 1.0
C      1  0.4904840000000  0.4662850000000  0.4583730000000 1.0
C      1  0.4574280000000  0.4561240000000  0.5250420000000 1.0
C      1  0.4642690000000  0.4459350000000  0.4659420000000 1.0
C      1  0.4306880000000  0.4309520000000  0.4968230000000 1.0
C      1  0.5381690000000  0.5240480000000  0.5258170000000 1.0
C      1  0.4810040000000  0.4674760000000  0.5762750000000 1.0
C      1  0.5500180000000  0.4946780000000  0.4877410000000 1.0
C      1  0.5277510000000  0.5504360000000  0.4309530000000 1.0
C      1  0.5099170000000  0.5154040000000  0.5527660000000 1.0
C      1  0.5549250000000  0.5584290000000  0.4833510000000 1.0
C      1  0.5339900000000  0.4667690000000  0.4987050000000 1.0
C      1  0.4768820000000  0.4142370000000  0.5022070000000 1.0
C      1  0.5455450000000  0.4915380000000  0.5190810000000 1.0
C      1  0.5313520000000  0.4331700000000  0.5570770000000 1.0
C      1  0.5341810000000  0.4260170000000  0.4905560000000 1.0
C      1  0.5285140000000  0.4495870000000  0.4277660000000 1.0
C      1  0.5714540000000  0.4635840000000  0.4746350000000 1.0
C      1  0.4502690000000  0.5418280000000  0.4628830000000 1.0
C      1  0.4851550000000  0.4831960000000  0.4942120000000 1.0
C      1  0.5270380000000  0.4865590000000  0.5470520000000 1.0
C      1  0.5717920000000  0.5205070000000  0.5264920000000 1.0
C      1  0.4777650000000  0.4427290000000  0.5605420000000 1.0
C      1  0.5044290000000  0.4309440000000  0.5430300000000 1.0
C      1  0.5660300000000  0.5277970000000  0.5542560000000 1.0
C      1  0.4339450000000  0.4807060000000  0.5241570000000 1.0
C      1  0.5037650000000  0.5847730000000  0.4870030000000 1.0
C      1  0.5501990000000  0.5354870000000  0.4380510000000 1.0
C      1  0.5418260000000  0.5554130000000  0.5384250000000 1.0
C      1  0.4633160000000  0.5581630000000  0.5132410000000 1.0
C      1  0.4782020000000  0.4639130000000  0.4272550000000 1.0
C      1  0.4958040000000  0.5316180000000  0.4672680000000 1.0
C      1  0.5185450000000  0.5436200000000  0.5886540000000 1.0
C      1  0.4385500000000  0.4555060000000  0.4512230000000 1.0
C      1  0.5314950000000  0.5175400000000  0.4772640000000 1.0
C      1  0.4358310000000  0.5304350000000  0.5519930000000 1.0
C      1  0.4736960000000  0.5141910000000  0.4293250000000 1.0
C      1  0.5056790000000  0.4843400000000  0.5206820000000 1.0
C      1  0.4921220000000  0.5365940000000  0.5865390000000 1.0
C      1  0.5459830000000  0.4625860000000  0.4538820000000 1.0
C      1  0.4203810000000  0.5267760000000  0.4843920000000 1.0
C      1  0.5016900000000  0.4082900000000  0.4913340000000 1.0
C      1  0.4247280000000  0.4565330000000  0.5020920000000 1.0
C      1  0.5803270000000  0.4738500000000  0.5030370000000 1.0
C      1  0.4248330000000  0.5560170000000  0.4783120000000 1.0
C      1  0.4462720000000  0.5155520000000  0.4996780000000 1.0
C      1  0.5600780000000  0.4333270000000  0.4807870000000 1.0
C      1  0.5720060000000  0.4623450000000  0.5267050000000 1.0
C      1  0.4591810000000  0.5143860000000  0.4581480000000 1.0
C      1  0.5039190000000  0.4802470000000  0.5907030000000 1.0
C      1  0.4742540000000  0.5547960000000  0.5746510000000 1.0
C      1  0.4383780000000  0.5002570000000  0.5480730000000 1.0
C      1  0.4559980000000  0.4228920000000  0.4859730000000 1.0
C      1  0.5358410000000  0.5341610000000  0.5642910000000 1.0
C      1  0.4839630000000  0.5726340000000  0.5549330000000 1.0
C      1  0.4543660000000  0.5303980000000  0.5272760000000 1.0
C      1  0.5106530000000  0.5028840000000  0.4386050000000 1.0
C      1  0.5148790000000  0.5122580000000  0.5046940000000 1.0
C      1  0.4577640000000  0.4872690000000  0.4291100000000 1.0
C      1  0.4458120000000  0.4380800000000  0.5514340000000 1.0
C      1  0.4807790000000  0.5114810000000  0.5356610000000 1.0
C      1  0.5409670000000  0.4805980000000  0.4250610000000 1.0
C      1  0.4898500000000  0.5563950000000  0.4505920000000 1.0
C      1  0.5259080000000  0.4402300000000  0.5183080000000 1.0
C      1  0.4846210000000  0.4323600000000  0.4245250000000 1.0
C      1  0.4805010000000  0.5143700000000  0.5018550000000 1.0
END
