TITL C-2847952-8118-82 -0.00188294028056667 125000 -921.655507045018 0 0 167 (C1) n - 1
REM
REM in /home/bkarasulu/work/CARBON/AIRSS/Generating-Clusters/AIREBO/with-SteepDescent/Only-C1/SD-CG-opt/Try1-1.4A-POS3A/HFTN-CG
REM
REM
REM
REM
REM
REM ./C.cell (11c1c37f851c82e70ff6c80c92926a4b)
REM
REM compiler GCC version 9.2.1 20190827 (Red Hat 9.2.1-1)
REM options -cpp -mtune=generic -march=x86-64 -g -O0 -fpre-include=/usr/include/finclude/math-vector-fortran.h
REM seed -1844754849 -698489354 777321157 1346122018 799583431 -1948468979 650568418 1557075401 2111183617 1198644163 450326890 1331071689 662372665 -1773834237 1884030986 -2139622551 1952474041 -52446817 -1027698030 1195863208 547040788 -1460594998 -1630754199 -1040287339 -1386936120 -1669654968 -940226118 -1527786833 -438145623 147051719 -1226726224 941470576 588197941
REM
CELL 1.54180   50.00000   50.00000   50.00000   90.00000   90.00000   90.00000
LATT -1
SFAC C  
C      1  0.4865480000000  0.5076480000000  0.5072660000000 1.0
C      1  0.4834460000000  0.6138990000000  0.5668600000000 1.0
C      1  0.5155230000000  0.4866950000000  0.4344140000000 1.0
C      1  0.4627210000000  0.5675070000000  0.5698540000000 1.0
C      1  0.5444770000000  0.5929520000000  0.5655830000000 1.0
C      1  0.4068680000000  0.5134130000000  0.5679230000000 1.0
C      1  0.5419660000000  0.5826910000000  0.4987970000000 1.0
C      1  0.5142390000000  0.5870000000000  0.4525120000000 1.0
C      1  0.5479620000000  0.5196940000000  0.4582380000000 1.0
C      1  0.5326030000000  0.4944660000000  0.4584410000000 1.0
C      1  0.5828120000000  0.4872450000000  0.4849460000000 1.0
C      1  0.4582070000000  0.5819290000000  0.4603180000000 1.0
C      1  0.4265260000000  0.5861250000000  0.4884190000000 1.0
C      1  0.4356220000000  0.5629370000000  0.5272730000000 1.0
C      1  0.4292630000000  0.5399250000000  0.4343540000000 1.0
C      1  0.5496730000000  0.4207460000000  0.5377870000000 1.0
C      1  0.4161870000000  0.5396610000000  0.4620170000000 1.0
C      1  0.5189840000000  0.6069380000000  0.5207230000000 1.0
C      1  0.4751190000000  0.4573760000000  0.5131990000000 1.0
C      1  0.4999070000000  0.5625930000000  0.5694840000000 1.0
C      1  0.4333520000000  0.5113430000000  0.4205050000000 1.0
C      1  0.5327310000000  0.4766640000000  0.5265250000000 1.0
C      1  0.4174770000000  0.4588890000000  0.5016060000000 1.0
C      1  0.4175580000000  0.5203440000000  0.5305180000000 1.0
C      1  0.4686370000000  0.5948130000000  0.5061180000000 1.0
C      1  0.5818860000000  0.5657620000000  0.5167710000000 1.0
C      1  0.4280410000000  0.4729590000000  0.4724920000000 1.0
C      1  0.3860420000000  0.4996820000000  0.5171720000000 1.0
C      1  0.5993700000000  0.4976680000000  0.4398710000000 1.0
C      1  0.4580530000000  0.4294730000000  0.4441320000000 1.0
C      1  0.4533040000000  0.4687750000000  0.4500700000000 1.0
C      1  0.4616640000000  0.4083040000000  0.5179890000000 1.0
C      1  0.5285570000000  0.4844470000000  0.4875250000000 1.0
C      1  0.5261930000000  0.5677680000000  0.5215500000000 1.0
C      1  0.4870310000000  0.4736720000000  0.4476430000000 1.0
C      1  0.4900230000000  0.4268650000000  0.5152540000000 1.0
C      1  0.5160440000000  0.4199930000000  0.5777590000000 1.0
C      1  0.4600950000000  0.4818110000000  0.4194020000000 1.0
C      1  0.5247560000000  0.4067720000000  0.5501230000000 1.0
C      1  0.5971580000000  0.5447590000000  0.5286010000000 1.0
C      1  0.4279090000000  0.5332210000000  0.5711880000000 1.0
C      1  0.4497940000000  0.5482020000000  0.5494840000000 1.0
C      1  0.4570950000000  0.5390640000000  0.5876430000000 1.0
C      1  0.3970490000000  0.4737350000000  0.5244960000000 1.0
C      1  0.5652110000000  0.5590220000000  0.4912350000000 1.0
C      1  0.5214330000000  0.5741660000000  0.5520300000000 1.0
C      1  0.6035840000000  0.4809060000000  0.5540530000000 1.0
C      1  0.4872800000000  0.5222460000000  0.4122020000000 1.0
C      1  0.5221340000000  0.6092890000000  0.4912770000000 1.0
C      1  0.4878850000000  0.4270180000000  0.4279530000000 1.0
C      1  0.4641000000000  0.4879430000000  0.5009090000000 1.0
C      1  0.4843830000000  0.4633860000000  0.5721020000000 1.0
C      1  0.4408720000000  0.4772070000000  0.5181340000000 1.0
C      1  0.5992690000000  0.4799910000000  0.4610680000000 1.0
C      1  0.5780640000000  0.4786940000000  0.5236480000000 1.0
C      1  0.5395330000000  0.4986540000000  0.5515730000000 1.0
C      1  0.4899340000000  0.5040190000000  0.4597640000000 1.0
C      1  0.5041040000000  0.5677390000000  0.4355380000000 1.0
C      1  0.4186470000000  0.5444440000000  0.5151230000000 1.0
C      1  0.5513750000000  0.5571800000000  0.4267920000000 1.0
C      1  0.5814970000000  0.5192480000000  0.4911750000000 1.0
C      1  0.5724410000000  0.5043750000000  0.5452150000000 1.0
C      1  0.5089800000000  0.4277960000000  0.4887750000000 1.0
C      1  0.5526310000000  0.5306150000000  0.5051090000000 1.0
C      1  0.4428050000000  0.4792030000000  0.5911010000000 1.0
C      1  0.5389110000000  0.5287360000000  0.5356780000000 1.0
C      1  0.5230250000000  0.4561690000000  0.5011830000000 1.0
C      1  0.5182220000000  0.5189580000000  0.4239950000000 1.0
C      1  0.4635970000000  0.5445770000000  0.4762400000000 1.0
C      1  0.4546590000000  0.5429350000000  0.6153410000000 1.0
C      1  0.4859680000000  0.4077420000000  0.4039590000000 1.0
C      1  0.5364240000000  0.4560740000000  0.4490420000000 1.0
C      1  0.4650760000000  0.4043290000000  0.4649220000000 1.0
C      1  0.4657140000000  0.5121940000000  0.4281650000000 1.0
C      1  0.5692060000000  0.5229830000000  0.4371740000000 1.0
C      1  0.4758290000000  0.4504460000000  0.4799140000000 1.0
C      1  0.5361250000000  0.5053420000000  0.5920560000000 1.0
C      1  0.5489090000000  0.5544680000000  0.5556580000000 1.0
C      1  0.5437470000000  0.6021500000000  0.5345690000000 1.0
C      1  0.4777400000000  0.5154400000000  0.5790420000000 1.0
C      1  0.5308430000000  0.4642200000000  0.4164980000000 1.0
C      1  0.4840400000000  0.5882590000000  0.5555290000000 1.0
C      1  0.4724230000000  0.4170480000000  0.5495740000000 1.0
C      1  0.5236000000000  0.5525230000000  0.4231430000000 1.0
C      1  0.5703860000000  0.4419860000000  0.5544280000000 1.0
C      1  0.5580440000000  0.4845880000000  0.5763990000000 1.0
C      1  0.5665950000000  0.5233530000000  0.5735100000000 1.0
C      1  0.5050370000000  0.4007790000000  0.5310950000000 1.0
C      1  0.5061400000000  0.5063660000000  0.4855690000000 1.0
C      1  0.4769210000000  0.5393410000000  0.5049060000000 1.0
C      1  0.4666180000000  0.5026610000000  0.5495430000000 1.0
C      1  0.6035690000000  0.5217980000000  0.5126900000000 1.0
C      1  0.5981950000000  0.4328840000000  0.4966600000000 1.0
C      1  0.5026050000000  0.5018500000000  0.5978510000000 1.0
C      1  0.5630000000000  0.5768250000000  0.5342550000000 1.0
C      1  0.5741230000000  0.4568930000000  0.4975780000000 1.0
C      1  0.5832670000000  0.5347810000000  0.5500440000000 1.0
C      1  0.4208840000000  0.4798140000000  0.4256320000000 1.0
C      1  0.4622890000000  0.5170820000000  0.4607030000000 1.0
C      1  0.5161000000000  0.4546790000000  0.5808230000000 1.0
C      1  0.4365090000000  0.4961860000000  0.5397960000000 1.0
C      1  0.4847770000000  0.4308720000000  0.5757280000000 1.0
C      1  0.4269280000000  0.4263620000000  0.5112670000000 1.0
C      1  0.5062070000000  0.4515690000000  0.4646110000000 1.0
C      1  0.4396650000000  0.4178920000000  0.5420790000000 1.0
C      1  0.5060530000000  0.5310030000000  0.4533790000000 1.0
C      1  0.5034750000000  0.4925600000000  0.5296750000000 1.0
C      1  0.4808130000000  0.5512520000000  0.4484370000000 1.0
C      1  0.4921590000000  0.4045060000000  0.4705910000000 1.0
C      1  0.4731800000000  0.5312010000000  0.5365280000000 1.0
C      1  0.5464220000000  0.5108160000000  0.4068010000000 1.0
C      1  0.4016500000000  0.4827720000000  0.5538220000000 1.0
C      1  0.5288630000000  0.4475400000000  0.5437930000000 1.0
C      1  0.6066940000000  0.4967810000000  0.5267220000000 1.0
C      1  0.5440320000000  0.4386740000000  0.5729060000000 1.0
C      1  0.5838600000000  0.5351440000000  0.4648500000000 1.0
C      1  0.4460440000000  0.4473440000000  0.5270120000000 1.0
C      1  0.4824340000000  0.4734430000000  0.5423030000000 1.0
C      1  0.5371150000000  0.4186940000000  0.4619980000000 1.0
C      1  0.5313180000000  0.5256910000000  0.4838370000000 1.0
C      1  0.5665690000000  0.4613040000000  0.4332260000000 1.0
C      1  0.5112100000000  0.4149770000000  0.4497340000000 1.0
C      1  0.4455440000000  0.4069170000000  0.4904990000000 1.0
C      1  0.5648830000000  0.5765850000000  0.5784140000000 1.0
C      1  0.4377360000000  0.4562370000000  0.3982840000000 1.0
C      1  0.4159760000000  0.5106630000000  0.4751930000000 1.0
C      1  0.4010780000000  0.5426460000000  0.4923930000000 1.0
C      1  0.5367630000000  0.5347520000000  0.5805610000000 1.0
C      1  0.4359570000000  0.4874520000000  0.3961240000000 1.0
C      1  0.4450890000000  0.4368620000000  0.4747140000000 1.0
C      1  0.3871580000000  0.5178080000000  0.5418140000000 1.0
C      1  0.5569310000000  0.4095010000000  0.5110480000000 1.0
C      1  0.4923520000000  0.5884780000000  0.5250880000000 1.0
C      1  0.4710640000000  0.4839570000000  0.5900330000000 1.0
C      1  0.5002370000000  0.4757560000000  0.3936560000000 1.0
C      1  0.5018730000000  0.6041440000000  0.4712540000000 1.0
C      1  0.5058550000000  0.5216860000000  0.5405370000000 1.0
C      1  0.5798480000000  0.4691450000000  0.5657420000000 1.0
C      1  0.4111190000000  0.4370180000000  0.4763430000000 1.0
C      1  0.5662840000000  0.5383790000000  0.4081910000000 1.0
C      1  0.3908410000000  0.5119140000000  0.4923900000000 1.0
C      1  0.5357320000000  0.5729300000000  0.4685750000000 1.0
C      1  0.4513540000000  0.5587210000000  0.4363850000000 1.0
C      1  0.5838450000000  0.4066480000000  0.5027420000000 1.0
C      1  0.4453030000000  0.4989000000000  0.4776660000000 1.0
C      1  0.4750640000000  0.5962460000000  0.4782310000000 1.0
C      1  0.4995780000000  0.4374870000000  0.5458410000000 1.0
C      1  0.5544530000000  0.4909530000000  0.5033430000000 1.0
C      1  0.4989760000000  0.5607300000000  0.5064930000000 1.0
C      1  0.5620900000000  0.5596070000000  0.4567180000000 1.0
C      1  0.4054580000000  0.4734330000000  0.4496790000000 1.0
C      1  0.5714030000000  0.4928840000000  0.4215110000000 1.0
C      1  0.5828120000000  0.4389740000000  0.5260620000000 1.0
C      1  0.5471030000000  0.4460850000000  0.4797530000000 1.0
C      1  0.4852840000000  0.4590980000000  0.4169720000000 1.0
C      1  0.4288090000000  0.4802030000000  0.5684690000000 1.0
C      1  0.5265990000000  0.4884910000000  0.3961000000000 1.0
C      1  0.4361670000000  0.5598360000000  0.4733280000000 1.0
C      1  0.4425710000000  0.5856980000000  0.5122760000000 1.0
C      1  0.5148700000000  0.5515830000000  0.4789950000000 1.0
C      1  0.5180290000000  0.4845580000000  0.5740820000000 1.0
C      1  0.5055390000000  0.5330210000000  0.5704240000000 1.0
C      1  0.5498590000000  0.4363150000000  0.4173400000000 1.0
C      1  0.5374470000000  0.4095420000000  0.4923650000000 1.0
C      1  0.3954980000000  0.4480330000000  0.4568770000000 1.0
C      1  0.5916060000000  0.4552100000000  0.4508970000000 1.0
C      1  0.4395240000000  0.4484920000000  0.4265140000000 1.0
END
