TITL C-2848494-1720-506 0.000332097170636234 125000 -253.900122289678 0 0 46 (C1) n - 1
REM
REM in /home/bkarasulu/work/CARBON/AIRSS/Generating-Clusters/AIREBO/with-SteepDescent/Only-C1/SD-CG-opt/Try1-1.4A-POS3A/HFTN-CG
REM
REM
REM
REM
REM
REM ./C.cell (11c1c37f851c82e70ff6c80c92926a4b)
REM
REM compiler GCC version 9.2.1 20190827 (Red Hat 9.2.1-1)
REM options -cpp -mtune=generic -march=x86-64 -g -O0 -fpre-include=/usr/include/finclude/math-vector-fortran.h
REM seed 1948769603 1383972387 2045277497 -919054244 -1692570599 -904178573 400095163 -1691936184 1240928232 -440360642 1238010670 -524969082 1021753104 -1349641928 -1042369425 1831349185 -1008260019 -1507673083 -1926904039 -370514818 -1029264149 680867718 -762795380 186473327 -1466656523 -474967925 994547886 1688968009 2026734637 -1180826014 -794354573 645396558 649962534
REM
CELL 1.54180   50.00000   50.00000   50.00000   90.00000   90.00000   90.00000
LATT -1
SFAC C  
C      1  0.4931500000000  0.5161310000000  0.4520350000000 1.0
C      1  0.4735370000000  0.4937220000000  0.4365950000000 1.0
C      1  0.5081540000000  0.4689920000000  0.5278350000000 1.0
C      1  0.5077710000000  0.5602020000000  0.4825190000000 1.0
C      1  0.5259550000000  0.4679620000000  0.4571800000000 1.0
C      1  0.4969050000000  0.4518720000000  0.4566590000000 1.0
C      1  0.5511700000000  0.4642110000000  0.5482730000000 1.0
C      1  0.5635040000000  0.5129940000000  0.5040620000000 1.0
C      1  0.4438600000000  0.4997190000000  0.4737520000000 1.0
C      1  0.4943520000000  0.4347500000000  0.4781180000000 1.0
C      1  0.4753780000000  0.5523530000000  0.4807820000000 1.0
C      1  0.5431590000000  0.5388960000000  0.4956240000000 1.0
C      1  0.4498910000000  0.5140220000000  0.5021420000000 1.0
C      1  0.4744020000000  0.4679610000000  0.4503210000000 1.0
C      1  0.5301050000000  0.5014300000000  0.4528420000000 1.0
C      1  0.5341020000000  0.5268480000000  0.5466030000000 1.0
C      1  0.5016050000000  0.5591660000000  0.5331250000000 1.0
C      1  0.5058750000000  0.5266870000000  0.4814230000000 1.0
C      1  0.4515460000000  0.4725510000000  0.5602430000000 1.0
C      1  0.4550160000000  0.4730760000000  0.4736530000000 1.0
C      1  0.5190150000000  0.5497210000000  0.5535540000000 1.0
C      1  0.4653940000000  0.4562820000000  0.5081590000000 1.0
C      1  0.4846460000000  0.4769400000000  0.4891890000000 1.0
C      1  0.4656930000000  0.5404220000000  0.5043100000000 1.0
C      1  0.5152300000000  0.4893600000000  0.5729090000000 1.0
C      1  0.4981140000000  0.5112670000000  0.5249930000000 1.0
C      1  0.5236390000000  0.5117190000000  0.5044160000000 1.0
C      1  0.5359680000000  0.5273400000000  0.4492880000000 1.0
C      1  0.5208270000000  0.4955840000000  0.5448610000000 1.0
C      1  0.4535230000000  0.5137770000000  0.4507630000000 1.0
C      1  0.5514190000000  0.4878280000000  0.5321890000000 1.0
C      1  0.4741610000000  0.4945140000000  0.5150190000000 1.0
C      1  0.5271940000000  0.4414110000000  0.4995900000000 1.0
C      1  0.5106280000000  0.5744920000000  0.5106270000000 1.0
C      1  0.4612830000000  0.4741880000000  0.5367680000000 1.0
C      1  0.4842250000000  0.5387010000000  0.5252550000000 1.0
C      1  0.4956740000000  0.4450270000000  0.5105280000000 1.0
C      1  0.5029890000000  0.4891170000000  0.4694450000000 1.0
C      1  0.5459410000000  0.4864340000000  0.4999980000000 1.0
C      1  0.5245880000000  0.4560260000000  0.5494180000000 1.0
C      1  0.4284910000000  0.4900130000000  0.5093450000000 1.0
C      1  0.4346930000000  0.4655380000000  0.5082120000000 1.0
C      1  0.5530600000000  0.5313240000000  0.5273350000000 1.0
C      1  0.5358440000000  0.5483460000000  0.4673830000000 1.0
C      1  0.5386840000000  0.4621950000000  0.4853320000000 1.0
C      1  0.4696380000000  0.5388890000000  0.4573280000000 1.0
END
