TITL C-2848508-1660-741 0.00137406746526281 125000 -190.466039762868 0 0 35 (C1) n - 1
REM
REM in /home/bkarasulu/work/CARBON/AIRSS/Generating-Clusters/AIREBO/with-SteepDescent/Only-C1/SD-CG-opt/Try1-1.4A-POS3A/HFTN-CG
REM
REM
REM
REM
REM
REM ./C.cell (11c1c37f851c82e70ff6c80c92926a4b)
REM
REM compiler GCC version 9.2.1 20190827 (Red Hat 9.2.1-1)
REM options -cpp -mtune=generic -march=x86-64 -g -O0 -fpre-include=/usr/include/finclude/math-vector-fortran.h
REM seed -186152350 -466846839 -987096854 -2101734844 -1776152436 -1726861686 -290107271 -2029536518 985901912 -378661314 928654609 -831747595 -1727308962 -1655014256 -719772886 -725499418 -1417733769 864946576 -587700048 995374653 -313105749 -1835252555 -1209570926 587516423 -1532175987 -1908740417 -1914859244 220108440 -339265536 1045604484 601664857 -1314394484 -1965262047
REM
CELL 1.54180   50.00000   50.00000   50.00000   90.00000   90.00000   90.00000
LATT -1
SFAC C  
C      1  0.5232350000000  0.4933610000000  0.5510930000000 1.0
C      1  0.5521990000000  0.4679960000000  0.4790560000000 1.0
C      1  0.4825160000000  0.5430230000000  0.5193600000000 1.0
C      1  0.5319610000000  0.5215770000000  0.5331070000000 1.0
C      1  0.4416790000000  0.5109300000000  0.5131650000000 1.0
C      1  0.5261100000000  0.5080020000000  0.4606360000000 1.0
C      1  0.5652040000000  0.4569310000000  0.4593780000000 1.0
C      1  0.5626500000000  0.4710560000000  0.5066810000000 1.0
C      1  0.5704310000000  0.4431390000000  0.5247020000000 1.0
C      1  0.4764830000000  0.5593280000000  0.4640560000000 1.0
C      1  0.4635910000000  0.5020640000000  0.5352340000000 1.0
C      1  0.5368570000000  0.5100740000000  0.4368790000000 1.0
C      1  0.4975150000000  0.4622040000000  0.4836720000000 1.0
C      1  0.5054470000000  0.5186480000000  0.5541910000000 1.0
C      1  0.4981210000000  0.5677090000000  0.5053540000000 1.0
C      1  0.5204090000000  0.4705150000000  0.5360080000000 1.0
C      1  0.4660160000000  0.5341900000000  0.4739270000000 1.0
C      1  0.4153120000000  0.5168010000000  0.5196950000000 1.0
C      1  0.5253050000000  0.4804660000000  0.4765270000000 1.0
C      1  0.5482910000000  0.4964590000000  0.5201440000000 1.0
C      1  0.5107910000000  0.5275850000000  0.5094460000000 1.0
C      1  0.4713290000000  0.4756420000000  0.5303230000000 1.0
C      1  0.4805090000000  0.4583480000000  0.4544840000000 1.0
C      1  0.4977350000000  0.4731370000000  0.5160290000000 1.0
C      1  0.5019350000000  0.5620150000000  0.4783110000000 1.0
C      1  0.4678690000000  0.4785220000000  0.4787610000000 1.0
C      1  0.4810120000000  0.5225310000000  0.5423020000000 1.0
C      1  0.4774910000000  0.4902800000000  0.4479270000000 1.0
C      1  0.4481410000000  0.4600050000000  0.5191120000000 1.0
C      1  0.5041240000000  0.4993400000000  0.4952700000000 1.0
C      1  0.4473050000000  0.4819900000000  0.4991020000000 1.0
C      1  0.5432270000000  0.4575970000000  0.5305140000000 1.0
C      1  0.4871730000000  0.5120440000000  0.4686740000000 1.0
C      1  0.5134060000000  0.5325500000000  0.4756250000000 1.0
C      1  0.4586220000000  0.5339430000000  0.5012560000000 1.0
END
