TITL C-2848497-6229-129 -0.000872104693320116 125000 -1018.05787455899 0 0 190 (C1) n - 1
REM
REM in /home/bkarasulu/work/CARBON/AIRSS/Generating-Clusters/AIREBO/with-SteepDescent/Only-C1/SD-CG-opt/Try1-1.4A-POS3A/HFTN-CG
REM
REM
REM
REM
REM
REM ./C.cell (11c1c37f851c82e70ff6c80c92926a4b)
REM
REM compiler GCC version 9.2.1 20190827 (Red Hat 9.2.1-1)
REM options -cpp -mtune=generic -march=x86-64 -g -O0 -fpre-include=/usr/include/finclude/math-vector-fortran.h
REM seed 966892956 -950258304 -1328986124 -1787947476 -363180866 396399275 -1054093851 1043240842 1845887364 -2134293402 281827617 1058032064 1843263009 -2111368449 1296297524 -190892098 1839295139 122371525 1369410672 1513058734 561086521 -949823296 111490770 972467980 509315443 -1261779002 1617550925 1183019959 1430742433 -1757087813 61155203 -1737216927 -1138446088
REM
CELL 1.54180   50.00000   50.00000   50.00000   90.00000   90.00000   90.00000
LATT -1
SFAC C  
C      1  0.4297360000000  0.5230570000000  0.5295700000000 1.0
C      1  0.4973900000000  0.4676820000000  0.5626030000000 1.0
C      1  0.5165730000000  0.5436940000000  0.4870960000000 1.0
C      1  0.4954750000000  0.6096000000000  0.4923380000000 1.0
C      1  0.5365550000000  0.6080130000000  0.5259360000000 1.0
C      1  0.5259390000000  0.4213300000000  0.5188400000000 1.0
C      1  0.5645400000000  0.4877430000000  0.5311810000000 1.0
C      1  0.6026200000000  0.4509710000000  0.5271600000000 1.0
C      1  0.4352500000000  0.4259350000000  0.5555560000000 1.0
C      1  0.4218970000000  0.5326990000000  0.5028410000000 1.0
C      1  0.5855060000000  0.4325330000000  0.5046780000000 1.0
C      1  0.5128280000000  0.5012770000000  0.5356650000000 1.0
C      1  0.4013920000000  0.4680520000000  0.4587520000000 1.0
C      1  0.5160070000000  0.4223530000000  0.5836040000000 1.0
C      1  0.4867790000000  0.3828860000000  0.5204700000000 1.0
C      1  0.4932620000000  0.4252970000000  0.4165120000000 1.0
C      1  0.4890120000000  0.4184920000000  0.5547370000000 1.0
C      1  0.4459980000000  0.4134970000000  0.5257930000000 1.0
C      1  0.5561290000000  0.5649380000000  0.4616960000000 1.0
C      1  0.5128440000000  0.5553260000000  0.5860490000000 1.0
C      1  0.4806650000000  0.4951040000000  0.6160680000000 1.0
C      1  0.6027500000000  0.4897750000000  0.4675520000000 1.0
C      1  0.5949220000000  0.4770450000000  0.4370090000000 1.0
C      1  0.5341200000000  0.5142650000000  0.4581040000000 1.0
C      1  0.5171500000000  0.5691750000000  0.5489660000000 1.0
C      1  0.5220320000000  0.4662260000000  0.4552450000000 1.0
C      1  0.4454830000000  0.4673430000000  0.5118880000000 1.0
C      1  0.5224990000000  0.5598730000000  0.4620270000000 1.0
C      1  0.4602670000000  0.5799380000000  0.5310310000000 1.0
C      1  0.5512590000000  0.4601660000000  0.5722630000000 1.0
C      1  0.4146130000000  0.4263820000000  0.5282620000000 1.0
C      1  0.4805000000000  0.4120930000000  0.4777350000000 1.0
C      1  0.4573590000000  0.5830630000000  0.5707690000000 1.0
C      1  0.5627610000000  0.5316630000000  0.4639230000000 1.0
C      1  0.5663000000000  0.4833800000000  0.4526830000000 1.0
C      1  0.5795750000000  0.4900010000000  0.5754640000000 1.0
C      1  0.5218700000000  0.5983220000000  0.4513790000000 1.0
C      1  0.5423400000000  0.5944340000000  0.4715020000000 1.0
C      1  0.5031570000000  0.5615350000000  0.5111750000000 1.0
C      1  0.4885820000000  0.4417190000000  0.4691200000000 1.0
C      1  0.5778680000000  0.5541570000000  0.4958450000000 1.0
C      1  0.5621370000000  0.5168950000000  0.5663080000000 1.0
C      1  0.4703010000000  0.5516110000000  0.4091870000000 1.0
C      1  0.5508010000000  0.5441510000000  0.5811850000000 1.0
C      1  0.5377490000000  0.5181200000000  0.4917250000000 1.0
C      1  0.5379760000000  0.4719120000000  0.5263540000000 1.0
C      1  0.5321670000000  0.5765950000000  0.5211730000000 1.0
C      1  0.4880460000000  0.5333670000000  0.4317330000000 1.0
C      1  0.4206950000000  0.5683590000000  0.5306150000000 1.0
C      1  0.4143280000000  0.4622770000000  0.5684720000000 1.0
C      1  0.5197980000000  0.5290570000000  0.4201580000000 1.0
C      1  0.4708550000000  0.3963760000000  0.5414490000000 1.0
C      1  0.5391690000000  0.4524370000000  0.4811800000000 1.0
C      1  0.5144420000000  0.4877190000000  0.4804780000000 1.0
C      1  0.5901140000000  0.5267910000000  0.5092930000000 1.0
C      1  0.4702110000000  0.4814430000000  0.4774360000000 1.0
C      1  0.5866570000000  0.5758730000000  0.4719320000000 1.0
C      1  0.4939030000000  0.6065130000000  0.4631520000000 1.0
C      1  0.5861310000000  0.4954590000000  0.4966670000000 1.0
C      1  0.5738560000000  0.4285770000000  0.5342450000000 1.0
C      1  0.5064380000000  0.4574620000000  0.4908120000000 1.0
C      1  0.4084390000000  0.5071760000000  0.4281310000000 1.0
C      1  0.4449940000000  0.5868870000000  0.4315130000000 1.0
C      1  0.4582010000000  0.4696890000000  0.3939610000000 1.0
C      1  0.4313190000000  0.5064990000000  0.4673290000000 1.0
C      1  0.4386600000000  0.5099130000000  0.4343060000000 1.0
C      1  0.4110710000000  0.4313900000000  0.4974920000000 1.0
C      1  0.5386520000000  0.4879440000000  0.4370390000000 1.0
C      1  0.5561390000000  0.5596130000000  0.5184030000000 1.0
C      1  0.5719660000000  0.4497620000000  0.5537730000000 1.0
C      1  0.5570720000000  0.3861020000000  0.5149840000000 1.0
C      1  0.4880630000000  0.5360520000000  0.5942610000000 1.0
C      1  0.4045020000000  0.4707870000000  0.4984890000000 1.0
C      1  0.5689840000000  0.4365020000000  0.4774220000000 1.0
C      1  0.5661330000000  0.5563640000000  0.4310590000000 1.0
C      1  0.5941810000000  0.5209040000000  0.5552210000000 1.0
C      1  0.4410580000000  0.4341310000000  0.4559190000000 1.0
C      1  0.4700460000000  0.3823650000000  0.4842940000000 1.0
C      1  0.4893050000000  0.4093970000000  0.4456480000000 1.0
C      1  0.4618520000000  0.4274090000000  0.4405130000000 1.0
C      1  0.5120960000000  0.5877920000000  0.5767810000000 1.0
C      1  0.6242930000000  0.5084880000000  0.5190360000000 1.0
C      1  0.4027680000000  0.4751670000000  0.5256680000000 1.0
C      1  0.4960790000000  0.4358060000000  0.5263390000000 1.0
C      1  0.5046920000000  0.4683230000000  0.5313110000000 1.0
C      1  0.5172910000000  0.4092390000000  0.4628100000000 1.0
C      1  0.4322600000000  0.4630890000000  0.4532210000000 1.0
C      1  0.4470560000000  0.3966130000000  0.4965190000000 1.0
C      1  0.5005170000000  0.4471930000000  0.4392710000000 1.0
C      1  0.5297230000000  0.4206740000000  0.4883800000000 1.0
C      1  0.5016560000000  0.5617750000000  0.4065350000000 1.0
C      1  0.3965610000000  0.5174540000000  0.4057670000000 1.0
C      1  0.5000120000000  0.4471840000000  0.6003120000000 1.0
C      1  0.4516050000000  0.4491000000000  0.5628480000000 1.0
C      1  0.5460110000000  0.5091990000000  0.4115090000000 1.0
C      1  0.5743380000000  0.5025520000000  0.4265680000000 1.0
C      1  0.4388640000000  0.5187830000000  0.5807160000000 1.0
C      1  0.5678450000000  0.4730960000000  0.5966300000000 1.0
C      1  0.5516430000000  0.4087640000000  0.5343640000000 1.0
C      1  0.4563930000000  0.4984970000000  0.4104780000000 1.0
C      1  0.5331290000000  0.4848150000000  0.5574380000000 1.0
C      1  0.4062520000000  0.5493900000000  0.4703150000000 1.0
C      1  0.5550700000000  0.4137090000000  0.4373570000000 1.0
C      1  0.5400790000000  0.4878370000000  0.4995860000000 1.0
C      1  0.5194760000000  0.3681650000000  0.4843710000000 1.0
C      1  0.3849130000000  0.5295210000000  0.3856320000000 1.0
C      1  0.4867630000000  0.5895140000000  0.5175650000000 1.0
C      1  0.4931010000000  0.3655200000000  0.4955820000000 1.0
C      1  0.5414410000000  0.5547630000000  0.4139780000000 1.0
C      1  0.4495520000000  0.5304250000000  0.4831870000000 1.0
C      1  0.4390830000000  0.5905630000000  0.4607110000000 1.0
C      1  0.5933350000000  0.4564520000000  0.4640360000000 1.0
C      1  0.4405820000000  0.6040900000000  0.5172680000000 1.0
C      1  0.4432500000000  0.4766550000000  0.5447330000000 1.0
C      1  0.4799350000000  0.4424110000000  0.5730640000000 1.0
C      1  0.4954820000000  0.5225500000000  0.5155650000000 1.0
C      1  0.5771240000000  0.5883250000000  0.5001310000000 1.0
C      1  0.5392130000000  0.5933760000000  0.5567750000000 1.0
C      1  0.4684150000000  0.5742370000000  0.4837690000000 1.0
C      1  0.5434180000000  0.3897220000000  0.4858250000000 1.0
C      1  0.5304220000000  0.4922170000000  0.5905850000000 1.0
C      1  0.5966750000000  0.4633640000000  0.4965950000000 1.0
C      1  0.5075290000000  0.6162700000000  0.5210780000000 1.0
C      1  0.4348390000000  0.5909290000000  0.5507850000000 1.0
C      1  0.5431580000000  0.4609910000000  0.4167980000000 1.0
C      1  0.4855770000000  0.4791920000000  0.5066150000000 1.0
C      1  0.5734930000000  0.5612740000000  0.5427840000000 1.0
C      1  0.4636860000000  0.5234050000000  0.5276510000000 1.0
C      1  0.5005680000000  0.5233320000000  0.5658530000000 1.0
C      1  0.4779980000000  0.4892250000000  0.4499020000000 1.0
C      1  0.4991130000000  0.5158960000000  0.4824160000000 1.0
C      1  0.3941030000000  0.4942820000000  0.4513950000000 1.0
C      1  0.4999680000000  0.5449920000000  0.5407110000000 1.0
C      1  0.4026830000000  0.5218320000000  0.4648240000000 1.0
C      1  0.5263920000000  0.5256470000000  0.5960100000000 1.0
C      1  0.5843240000000  0.5299030000000  0.4375840000000 1.0
C      1  0.4630120000000  0.5326260000000  0.5756990000000 1.0
C      1  0.4429770000000  0.5665470000000  0.5049970000000 1.0
C      1  0.5625940000000  0.4771040000000  0.4810470000000 1.0
C      1  0.6106770000000  0.5004660000000  0.5429780000000 1.0
C      1  0.5594610000000  0.4102050000000  0.4639350000000 1.0
C      1  0.4365510000000  0.5571870000000  0.4666860000000 1.0
C      1  0.4191990000000  0.4963310000000  0.5351330000000 1.0
C      1  0.4607230000000  0.4501330000000  0.4867150000000 1.0
C      1  0.6192480000000  0.5228710000000  0.4932370000000 1.0
C      1  0.4179990000000  0.5435480000000  0.5482260000000 1.0
C      1  0.4901490000000  0.4087460000000  0.5066240000000 1.0
C      1  0.4539730000000  0.4731870000000  0.4331390000000 1.0
C      1  0.5904030000000  0.4756430000000  0.5466080000000 1.0
C      1  0.5632750000000  0.5139690000000  0.5237080000000 1.0
C      1  0.5014650000000  0.5104690000000  0.4503610000000 1.0
C      1  0.4036610000000  0.5614630000000  0.5020030000000 1.0
C      1  0.4915260000000  0.5737420000000  0.4594610000000 1.0
C      1  0.4601350000000  0.5291880000000  0.4507350000000 1.0
C      1  0.4724720000000  0.6186780000000  0.4506340000000 1.0
C      1  0.4654660000000  0.4918320000000  0.5935120000000 1.0
C      1  0.3886350000000  0.5309790000000  0.5009510000000 1.0
C      1  0.4842900000000  0.5688700000000  0.5717670000000 1.0
C      1  0.4935310000000  0.4741940000000  0.4285580000000 1.0
C      1  0.3919870000000  0.4488270000000  0.4813660000000 1.0
C      1  0.5173060000000  0.4710710000000  0.6041540000000 1.0
C      1  0.5575720000000  0.5672890000000  0.5650750000000 1.0
C      1  0.5387840000000  0.5332190000000  0.5203280000000 1.0
C      1  0.4378900000000  0.4249980000000  0.4846900000000 1.0
C      1  0.5015900000000  0.4115280000000  0.3915760000000 1.0
C      1  0.5231080000000  0.4486870000000  0.5684030000000 1.0
C      1  0.4671170000000  0.4470570000000  0.4157920000000 1.0
C      1  0.4166000000000  0.5343990000000  0.5733860000000 1.0
C      1  0.4711910000000  0.5205910000000  0.3978660000000 1.0
C      1  0.4997000000000  0.5304730000000  0.3936980000000 1.0
C      1  0.5942920000000  0.5435580000000  0.5385780000000 1.0
C      1  0.4630320000000  0.5039520000000  0.4997550000000 1.0
C      1  0.5532650000000  0.4361000000000  0.4215750000000 1.0
C      1  0.4761280000000  0.5460400000000  0.4975430000000 1.0
C      1  0.4055940000000  0.4534440000000  0.5438720000000 1.0
C      1  0.5954490000000  0.5224890000000  0.4688460000000 1.0
C      1  0.4638040000000  0.5626920000000  0.4462390000000 1.0
C      1  0.4834490000000  0.4948260000000  0.5682120000000 1.0
C      1  0.4366810000000  0.4865730000000  0.5766030000000 1.0
C      1  0.5190680000000  0.5727680000000  0.4307360000000 1.0
C      1  0.5450810000000  0.5317990000000  0.3895940000000 1.0
C      1  0.5222700000000  0.4128260000000  0.5515550000000 1.0
C      1  0.4999920000000  0.5147030000000  0.6145070000000 1.0
C      1  0.5523630000000  0.6014560000000  0.4972570000000 1.0
C      1  0.4308610000000  0.4790110000000  0.4834440000000 1.0
C      1  0.4680170000000  0.5512110000000  0.5476600000000 1.0
C      1  0.5319060000000  0.5239790000000  0.5523270000000 1.0
C      1  0.4659730000000  0.4977650000000  0.5452460000000 1.0
C      1  0.4642170000000  0.4398530000000  0.5189370000000 1.0
C      1  0.4342300000000  0.5943480000000  0.4885250000000 1.0
END
