TITL C-2848507-1641-58 -0.00486472241807968 125000 -674.39967795272 0 0 127 (C1) n - 1
REM
REM in /home/bkarasulu/work/CARBON/AIRSS/Generating-Clusters/AIREBO/with-SteepDescent/Only-C1/SD-CG-opt/Try1-1.4A-POS3A/HFTN-CG
REM
REM
REM
REM
REM
REM ./C.cell (11c1c37f851c82e70ff6c80c92926a4b)
REM
REM compiler GCC version 9.2.1 20190827 (Red Hat 9.2.1-1)
REM options -cpp -mtune=generic -march=x86-64 -g -O0 -fpre-include=/usr/include/finclude/math-vector-fortran.h
REM seed -24774129 577054011 201552350 -277325366 -67903933 -1124291137 61996291 -2037704241 -974427861 -1391472254 -1120535518 -314279137 1663503502 -1955480449 -509833488 770676943 -1161449929 -128488451 1670318330 -615579266 1369991605 -593256862 -1624973662 -2039818855 213205520 -169471544 -381871454 -1007728082 -660016571 1158037463 -199630346 -395942171 -91434249
REM
CELL 1.54180   50.00000   50.00000   50.00000   90.00000   90.00000   90.00000
LATT -1
SFAC C  
C      1  0.4411510000000  0.5384480000000  0.5500000000000 1.0
C      1  0.4775800000000  0.4738350000000  0.5864040000000 1.0
C      1  0.4572430000000  0.4331360000000  0.4639250000000 1.0
C      1  0.4589850000000  0.4639390000000  0.5347890000000 1.0
C      1  0.4551550000000  0.4983630000000  0.4131120000000 1.0
C      1  0.5368740000000  0.5562850000000  0.4615880000000 1.0
C      1  0.6113000000000  0.4958640000000  0.4938170000000 1.0
C      1  0.4628760000000  0.5456660000000  0.4854970000000 1.0
C      1  0.4668390000000  0.4719310000000  0.4061590000000 1.0
C      1  0.4450640000000  0.5269000000000  0.5799160000000 1.0
C      1  0.4970110000000  0.4714440000000  0.4122120000000 1.0
C      1  0.4951880000000  0.4606260000000  0.4637580000000 1.0
C      1  0.4246070000000  0.4536500000000  0.4732440000000 1.0
C      1  0.5058380000000  0.5300590000000  0.5990810000000 1.0
C      1  0.4740210000000  0.4405110000000  0.4911170000000 1.0
C      1  0.4829340000000  0.3984190000000  0.4970820000000 1.0
C      1  0.5311980000000  0.5533770000000  0.5583220000000 1.0
C      1  0.5032020000000  0.5738270000000  0.3808080000000 1.0
C      1  0.4626360000000  0.4166560000000  0.5105840000000 1.0
C      1  0.5479410000000  0.4463660000000  0.5598820000000 1.0
C      1  0.5672660000000  0.5091400000000  0.5224800000000 1.0
C      1  0.4077960000000  0.5277660000000  0.5021430000000 1.0
C      1  0.5683420000000  0.5358960000000  0.4478490000000 1.0
C      1  0.5777050000000  0.5637660000000  0.4622240000000 1.0
C      1  0.3972590000000  0.4606230000000  0.4922360000000 1.0
C      1  0.4292730000000  0.4491720000000  0.5125680000000 1.0
C      1  0.5771460000000  0.4649430000000  0.4740150000000 1.0
C      1  0.5468690000000  0.4785760000000  0.4281190000000 1.0
C      1  0.5858840000000  0.5092940000000  0.4505780000000 1.0
C      1  0.5135350000000  0.3944340000000  0.5362300000000 1.0
C      1  0.4990240000000  0.4694050000000  0.5214220000000 1.0
C      1  0.4767390000000  0.5231770000000  0.5880660000000 1.0
C      1  0.5512690000000  0.5153240000000  0.4688620000000 1.0
C      1  0.4580830000000  0.4956670000000  0.5841450000000 1.0
C      1  0.4314940000000  0.4698380000000  0.5466160000000 1.0
C      1  0.5477660000000  0.4504910000000  0.5284990000000 1.0
C      1  0.4670000000000  0.4322690000000  0.5407770000000 1.0
C      1  0.4946720000000  0.5310000000000  0.4113990000000 1.0
C      1  0.4422780000000  0.4964040000000  0.5054740000000 1.0
C      1  0.5006200000000  0.5563050000000  0.4412800000000 1.0
C      1  0.4694460000000  0.4128820000000  0.4457110000000 1.0
C      1  0.4320300000000  0.4916040000000  0.5648480000000 1.0
C      1  0.4811980000000  0.5422130000000  0.5139290000000 1.0
C      1  0.5574940000000  0.5171950000000  0.5831080000000 1.0
C      1  0.5103620000000  0.5962500000000  0.5500940000000 1.0
C      1  0.5089350000000  0.5913560000000  0.4584880000000 1.0
C      1  0.5354070000000  0.4218090000000  0.4695170000000 1.0
C      1  0.4597430000000  0.4867960000000  0.4435330000000 1.0
C      1  0.5550020000000  0.5651480000000  0.4367710000000 1.0
C      1  0.5638710000000  0.4493960000000  0.4992340000000 1.0
C      1  0.4940330000000  0.4881210000000  0.4437850000000 1.0
C      1  0.4884540000000  0.5612890000000  0.5729150000000 1.0
C      1  0.5759680000000  0.5446920000000  0.5065550000000 1.0
C      1  0.4778610000000  0.4874730000000  0.5409600000000 1.0
C      1  0.5010610000000  0.5799640000000  0.5257750000000 1.0
C      1  0.4369560000000  0.4263880000000  0.4903640000000 1.0
C      1  0.5615840000000  0.5593100000000  0.5553890000000 1.0
C      1  0.5039760000000  0.4183990000000  0.5319980000000 1.0
C      1  0.5149680000000  0.5047780000000  0.5600850000000 1.0
C      1  0.4799870000000  0.4399340000000  0.5874570000000 1.0
C      1  0.4821220000000  0.5913120000000  0.4669730000000 1.0
C      1  0.4218740000000  0.5136540000000  0.5501570000000 1.0
C      1  0.4500950000000  0.5836390000000  0.5306140000000 1.0
C      1  0.5291390000000  0.5277350000000  0.5778280000000 1.0
C      1  0.5781100000000  0.5377670000000  0.5374510000000 1.0
C      1  0.5068710000000  0.5036740000000  0.4163880000000 1.0
C      1  0.4734950000000  0.5844930000000  0.5148750000000 1.0
C      1  0.5263290000000  0.4728090000000  0.5392170000000 1.0
C      1  0.5356970000000  0.5029300000000  0.5334800000000 1.0
C      1  0.5003200000000  0.4727070000000  0.5611480000000 1.0
C      1  0.5609580000000  0.4654350000000  0.5755010000000 1.0
C      1  0.5172700000000  0.5327340000000  0.4575970000000 1.0
C      1  0.5996840000000  0.5012760000000  0.5178990000000 1.0
C      1  0.5963690000000  0.4897030000000  0.4711760000000 1.0
C      1  0.5023390000000  0.4321980000000  0.5057620000000 1.0
C      1  0.4707480000000  0.5762790000000  0.4880830000000 1.0
C      1  0.5261730000000  0.5771820000000  0.4771040000000 1.0
C      1  0.5699330000000  0.4483960000000  0.4466060000000 1.0
C      1  0.5706640000000  0.5878510000000  0.5568120000000 1.0
C      1  0.5269560000000  0.4316910000000  0.5693610000000 1.0
C      1  0.5252510000000  0.4715900000000  0.4752580000000 1.0
C      1  0.4202700000000  0.4844560000000  0.4852670000000 1.0
C      1  0.5148320000000  0.4265680000000  0.4301440000000 1.0
C      1  0.5560610000000  0.4211450000000  0.4882990000000 1.0
C      1  0.4510930000000  0.4519880000000  0.4164750000000 1.0
C      1  0.4248550000000  0.5518250000000  0.5062810000000 1.0
C      1  0.5246730000000  0.5375860000000  0.5058950000000 1.0
C      1  0.5376480000000  0.5003180000000  0.4124640000000 1.0
C      1  0.5055080000000  0.5617760000000  0.4079160000000 1.0
C      1  0.5236140000000  0.4565820000000  0.4237100000000 1.0
C      1  0.4625050000000  0.5253250000000  0.4144010000000 1.0
C      1  0.5607890000000  0.4865320000000  0.4534390000000 1.0
C      1  0.4941170000000  0.4975110000000  0.5029150000000 1.0
C      1  0.4768510000000  0.4827500000000  0.4794560000000 1.0
C      1  0.5610090000000  0.4899100000000  0.5872670000000 1.0
C      1  0.4803990000000  0.5300460000000  0.4426710000000 1.0
C      1  0.4562630000000  0.4663320000000  0.5009820000000 1.0
C      1  0.5081240000000  0.5477200000000  0.5339590000000 1.0
C      1  0.4357520000000  0.4315670000000  0.5359700000000 1.0
C      1  0.5208970000000  0.5694380000000  0.5030320000000 1.0
C      1  0.4668490000000  0.5127530000000  0.5123310000000 1.0
C      1  0.5762370000000  0.5335070000000  0.5701710000000 1.0
C      1  0.4180860000000  0.5554560000000  0.4549170000000 1.0
C      1  0.5241870000000  0.5783370000000  0.4309990000000 1.0
C      1  0.4084650000000  0.4728150000000  0.5216650000000 1.0
C      1  0.4314500000000  0.5396970000000  0.4752050000000 1.0
C      1  0.4435890000000  0.5112810000000  0.4607230000000 1.0
C      1  0.4126420000000  0.5064700000000  0.4636490000000 1.0
C      1  0.4342680000000  0.5602690000000  0.5306910000000 1.0
C      1  0.4842210000000  0.4557640000000  0.6145740000000 1.0
C      1  0.4747770000000  0.5162220000000  0.4733340000000 1.0
C      1  0.5069440000000  0.4139390000000  0.4799260000000 1.0
C      1  0.4955870000000  0.4384680000000  0.5581290000000 1.0
C      1  0.4928070000000  0.5305630000000  0.5590200000000 1.0
C      1  0.5056150000000  0.5241860000000  0.4852380000000 1.0
C      1  0.5590710000000  0.4809800000000  0.5056740000000 1.0
C      1  0.5515120000000  0.5259490000000  0.4978620000000 1.0
C      1  0.5278370000000  0.4934400000000  0.5012120000000 1.0
C      1  0.5219510000000  0.5823530000000  0.5679870000000 1.0
C      1  0.5240280000000  0.4539610000000  0.5043140000000 1.0
C      1  0.4960770000000  0.4296020000000  0.4553000000000 1.0
C      1  0.5381210000000  0.4488880000000  0.4534340000000 1.0
C      1  0.4153160000000  0.5044410000000  0.5216270000000 1.0
C      1  0.4671970000000  0.5192210000000  0.5433980000000 1.0
C      1  0.4440190000000  0.4567830000000  0.4471600000000 1.0
C      1  0.5841470000000  0.5623500000000  0.4880400000000 1.0
C      1  0.5233430000000  0.5000830000000  0.4567980000000 1.0
END
