TITL C-2848505-4874-502 -2.86574783502151e-05 125000 -818.692980337853 0 0 151 (C1) n - 1
REM
REM in /home/bkarasulu/work/CARBON/AIRSS/Generating-Clusters/AIREBO/with-SteepDescent/Only-C1/SD-CG-opt/Try1-1.4A-POS3A/HFTN-CG
REM
REM
REM
REM
REM
REM ./C.cell (11c1c37f851c82e70ff6c80c92926a4b)
REM
REM compiler GCC version 9.2.1 20190827 (Red Hat 9.2.1-1)
REM options -cpp -mtune=generic -march=x86-64 -g -O0 -fpre-include=/usr/include/finclude/math-vector-fortran.h
REM seed -609032988 2108448385 365129311 717691327 1548907434 -217384897 -112985224 -784618836 782684896 1161934423 -548118781 -763812213 -1570044611 1776680489 1796919889 887350031 24395378 -318126058 -1197165227 965018767 -1209889304 -1954761547 2106750 1799828431 -806805813 -1690059134 -1355000355 -277598342 1616617329 542776910 1302013241 1499793558 -985167359
REM
CELL 1.54180   50.00000   50.00000   50.00000   90.00000   90.00000   90.00000
LATT -1
SFAC C  
C      1  0.5508410000000  0.5859550000000  0.4322650000000 1.0
C      1  0.4659740000000  0.5436940000000  0.5051790000000 1.0
C      1  0.4639180000000  0.4984790000000  0.5975720000000 1.0
C      1  0.4636310000000  0.4799430000000  0.5013670000000 1.0
C      1  0.4251750000000  0.5407500000000  0.4403870000000 1.0
C      1  0.4923000000000  0.5202330000000  0.4491460000000 1.0
C      1  0.4525250000000  0.4327140000000  0.4473740000000 1.0
C      1  0.4975380000000  0.4431070000000  0.5599400000000 1.0
C      1  0.5528030000000  0.5261750000000  0.5996890000000 1.0
C      1  0.4833120000000  0.4965100000000  0.5180430000000 1.0
C      1  0.5591310000000  0.4598380000000  0.4210660000000 1.0
C      1  0.4609940000000  0.5727080000000  0.5483050000000 1.0
C      1  0.4095210000000  0.4680280000000  0.5438100000000 1.0
C      1  0.5382930000000  0.3885730000000  0.5119320000000 1.0
C      1  0.4386620000000  0.5531230000000  0.4908250000000 1.0
C      1  0.5148400000000  0.4421550000000  0.4187620000000 1.0
C      1  0.4401130000000  0.4291900000000  0.5093340000000 1.0
C      1  0.5943840000000  0.4969170000000  0.5387600000000 1.0
C      1  0.5390260000000  0.4015580000000  0.5425350000000 1.0
C      1  0.4661710000000  0.5188790000000  0.4152830000000 1.0
C      1  0.5780340000000  0.5810870000000  0.4969530000000 1.0
C      1  0.5139850000000  0.4889630000000  0.5947520000000 1.0
C      1  0.5306580000000  0.4343680000000  0.5023430000000 1.0
C      1  0.4007980000000  0.4958210000000  0.5347510000000 1.0
C      1  0.4825790000000  0.4339780000000  0.5066470000000 1.0
C      1  0.4581850000000  0.4099660000000  0.5266870000000 1.0
C      1  0.5270300000000  0.4908210000000  0.5395790000000 1.0
C      1  0.4485670000000  0.5436580000000  0.4195990000000 1.0
C      1  0.4582520000000  0.4609730000000  0.4052810000000 1.0
C      1  0.5364150000000  0.4768910000000  0.5034440000000 1.0
C      1  0.4528200000000  0.4796180000000  0.5768080000000 1.0
C      1  0.5481920000000  0.4833550000000  0.4112140000000 1.0
C      1  0.4254250000000  0.4594210000000  0.5146310000000 1.0
C      1  0.4856280000000  0.4020900000000  0.5106510000000 1.0
C      1  0.4350160000000  0.4534300000000  0.4268290000000 1.0
C      1  0.5981810000000  0.5277860000000  0.4797510000000 1.0
C      1  0.4671230000000  0.4110860000000  0.4664080000000 1.0
C      1  0.4137350000000  0.5301970000000  0.4698880000000 1.0
C      1  0.4349520000000  0.4670320000000  0.4766940000000 1.0
C      1  0.4495050000000  0.4938650000000  0.5461100000000 1.0
C      1  0.4651930000000  0.5663200000000  0.4247700000000 1.0
C      1  0.5222480000000  0.5600600000000  0.5738970000000 1.0
C      1  0.4891120000000  0.5381950000000  0.5432960000000 1.0
C      1  0.4773680000000  0.4722650000000  0.4461160000000 1.0
C      1  0.4956720000000  0.5674800000000  0.4816670000000 1.0
C      1  0.4127150000000  0.4916420000000  0.4510130000000 1.0
C      1  0.4591620000000  0.4511100000000  0.4932630000000 1.0
C      1  0.4661890000000  0.4332940000000  0.4161750000000 1.0
C      1  0.4275690000000  0.5340700000000  0.5749970000000 1.0
C      1  0.5553010000000  0.5049800000000  0.3944050000000 1.0
C      1  0.4587830000000  0.5783350000000  0.4528000000000 1.0
C      1  0.4920880000000  0.4844770000000  0.4741350000000 1.0
C      1  0.5659110000000  0.5461390000000  0.5480820000000 1.0
C      1  0.4395950000000  0.5578360000000  0.5570750000000 1.0
C      1  0.4210830000000  0.4674850000000  0.5757850000000 1.0
C      1  0.4098320000000  0.4441270000000  0.4756430000000 1.0
C      1  0.5328090000000  0.5870140000000  0.5384150000000 1.0
C      1  0.5661260000000  0.3970110000000  0.5030670000000 1.0
C      1  0.5260030000000  0.5158490000000  0.4471150000000 1.0
C      1  0.5217500000000  0.5068820000000  0.5100670000000 1.0
C      1  0.5413180000000  0.4360030000000  0.4241150000000 1.0
C      1  0.4400730000000  0.4420970000000  0.5716890000000 1.0
C      1  0.4325290000000  0.5350610000000  0.5357820000000 1.0
C      1  0.4385360000000  0.5191380000000  0.4896210000000 1.0
C      1  0.5907230000000  0.5115420000000  0.5082600000000 1.0
C      1  0.4440250000000  0.4788550000000  0.4475010000000 1.0
C      1  0.4654880000000  0.5984660000000  0.5071320000000 1.0
C      1  0.4168800000000  0.5443560000000  0.5115570000000 1.0
C      1  0.5239900000000  0.4303890000000  0.5329980000000 1.0
C      1  0.4367240000000  0.4233180000000  0.4759860000000 1.0
C      1  0.4067220000000  0.5133490000000  0.4348700000000 1.0
C      1  0.5596900000000  0.5539200000000  0.5049430000000 1.0
C      1  0.5076080000000  0.4668820000000  0.4374880000000 1.0
C      1  0.5495070000000  0.5295620000000  0.4040390000000 1.0
C      1  0.4734530000000  0.4856340000000  0.4150370000000 1.0
C      1  0.4863520000000  0.6119640000000  0.4953620000000 1.0
C      1  0.4782300000000  0.4692890000000  0.5591040000000 1.0
C      1  0.5062900000000  0.4443910000000  0.4849990000000 1.0
C      1  0.5240900000000  0.4521660000000  0.4592210000000 1.0
C      1  0.5384130000000  0.5786940000000  0.5103470000000 1.0
C      1  0.5600400000000  0.5045110000000  0.5820410000000 1.0
C      1  0.4547340000000  0.4202120000000  0.5745230000000 1.0
C      1  0.5064210000000  0.4066670000000  0.5469460000000 1.0
C      1  0.5231650000000  0.4909560000000  0.4264470000000 1.0
C      1  0.5531560000000  0.5879650000000  0.4639490000000 1.0
C      1  0.6078930000000  0.4745570000000  0.4618540000000 1.0
C      1  0.4606660000000  0.5084200000000  0.4451640000000 1.0
C      1  0.4759870000000  0.5539740000000  0.5893520000000 1.0
C      1  0.5431990000000  0.4245390000000  0.4539600000000 1.0
C      1  0.5427840000000  0.5113960000000  0.4764030000000 1.0
C      1  0.5941720000000  0.5031730000000  0.4579780000000 1.0
C      1  0.5157850000000  0.5037660000000  0.5663080000000 1.0
C      1  0.5053050000000  0.5967900000000  0.4832830000000 1.0
C      1  0.5139120000000  0.3940570000000  0.4949410000000 1.0
C      1  0.5541480000000  0.4524130000000  0.5190490000000 1.0
C      1  0.5489850000000  0.5268540000000  0.5060590000000 1.0
C      1  0.5754610000000  0.4764970000000  0.4671710000000 1.0
C      1  0.5257050000000  0.4028700000000  0.4645860000000 1.0
C      1  0.4911740000000  0.5664860000000  0.5616180000000 1.0
C      1  0.5368210000000  0.5991590000000  0.4865450000000 1.0
C      1  0.4621790000000  0.5005920000000  0.4757400000000 1.0
C      1  0.5823440000000  0.4647730000000  0.5064530000000 1.0
C      1  0.5639750000000  0.4550820000000  0.5519510000000 1.0
C      1  0.4718670000000  0.4512100000000  0.5310190000000 1.0
C      1  0.5142890000000  0.5346270000000  0.5282580000000 1.0
C      1  0.5570020000000  0.5014700000000  0.5272000000000 1.0
C      1  0.5225850000000  0.5387690000000  0.4789720000000 1.0
C      1  0.4340000000000  0.4898830000000  0.5018820000000 1.0
C      1  0.5610190000000  0.4193350000000  0.5229940000000 1.0
C      1  0.5864720000000  0.4690070000000  0.5360990000000 1.0
C      1  0.4889710000000  0.4958280000000  0.5495930000000 1.0
C      1  0.5655820000000  0.4924740000000  0.4955250000000 1.0
C      1  0.5119880000000  0.4607200000000  0.5346670000000 1.0
C      1  0.5034170000000  0.5115830000000  0.4860430000000 1.0
C      1  0.4027630000000  0.4775640000000  0.4803250000000 1.0
C      1  0.4793340000000  0.5202560000000  0.5679550000000 1.0
C      1  0.4777000000000  0.4161620000000  0.5538440000000 1.0
C      1  0.4427220000000  0.4606730000000  0.5431260000000 1.0
C      1  0.4975180000000  0.5322680000000  0.4177730000000 1.0
C      1  0.5181080000000  0.5554560000000  0.5044910000000 1.0
C      1  0.4829200000000  0.5361670000000  0.4777940000000 1.0
C      1  0.5330020000000  0.5791360000000  0.4132470000000 1.0
C      1  0.5443580000000  0.5705880000000  0.5578450000000 1.0
C      1  0.4132030000000  0.5152730000000  0.5510960000000 1.0
C      1  0.5816810000000  0.5321960000000  0.4511450000000 1.0
C      1  0.5005130000000  0.5010760000000  0.4084740000000 1.0
C      1  0.5273660000000  0.5303960000000  0.5803380000000 1.0
C      1  0.4956680000000  0.4140000000000  0.4740210000000 1.0
C      1  0.4889610000000  0.4925400000000  0.6069820000000 1.0
C      1  0.4629340000000  0.5208680000000  0.5302200000000 1.0
C      1  0.5532800000000  0.5320020000000  0.4348110000000 1.0
C      1  0.5063080000000  0.5921810000000  0.5452740000000 1.0
C      1  0.5241750000000  0.5485810000000  0.4131330000000 1.0
C      1  0.5366580000000  0.5326580000000  0.5487570000000 1.0
C      1  0.5192230000000  0.5491860000000  0.4467760000000 1.0
C      1  0.5432310000000  0.4822800000000  0.5858740000000 1.0
C      1  0.5451570000000  0.6253330000000  0.4932400000000 1.0
C      1  0.4362890000000  0.5635200000000  0.4631510000000 1.0
C      1  0.3997690000000  0.5256310000000  0.4969780000000 1.0
C      1  0.5574400000000  0.4566480000000  0.4542510000000 1.0
C      1  0.4555390000000  0.5279610000000  0.5881970000000 1.0
C      1  0.5241940000000  0.4400260000000  0.5773360000000 1.0
C      1  0.3955130000000  0.4988290000000  0.5058800000000 1.0
C      1  0.5924370000000  0.5505750000000  0.5002900000000 1.0
C      1  0.5473440000000  0.4567590000000  0.5746070000000 1.0
C      1  0.5027220000000  0.4723290000000  0.5040730000000 1.0
C      1  0.4630110000000  0.5739180000000  0.5200050000000 1.0
C      1  0.5901680000000  0.5378570000000  0.5300980000000 1.0
C      1  0.5710120000000  0.5132320000000  0.5549900000000 1.0
C      1  0.4888480000000  0.5625160000000  0.4487260000000 1.0
C      1  0.5643520000000  0.5601520000000  0.4478760000000 1.0
END
