TITL C-2848497-6229-439 0.000876215756648472 125000 -656.993036961598 0 0 119 (C1) n - 1
REM
REM in /home/bkarasulu/work/CARBON/AIRSS/Generating-Clusters/AIREBO/with-SteepDescent/Only-C1/SD-CG-opt/Try1-1.4A-POS3A/HFTN-CG
REM
REM
REM
REM
REM
REM ./C.cell (11c1c37f851c82e70ff6c80c92926a4b)
REM
REM compiler GCC version 9.2.1 20190827 (Red Hat 9.2.1-1)
REM options -cpp -mtune=generic -march=x86-64 -g -O0 -fpre-include=/usr/include/finclude/math-vector-fortran.h
REM seed 1331031602 -883887356 -941303002 -733723742 2045443729 1735518664 -3618698 -1034363552 1454047884 1361883732 -1296652792 2081947667 -684951998 -179885726 -816016217 -1123838261 -1480225308 -806704106 -114154003 -1131053994 463169161 1307077920 711722964 -363119580 1438149697 -277679084 2002492666 1895806580 1986055288 -755671009 1680029653 -13781516 1863866337
REM
CELL 1.54180   50.00000   50.00000   50.00000   90.00000   90.00000   90.00000
LATT -1
SFAC C  
C      1  0.4581860000000  0.4929030000000  0.4864480000000 1.0
C      1  0.5018770000000  0.5217510000000  0.4700130000000 1.0
C      1  0.5037740000000  0.5546500000000  0.5270720000000 1.0
C      1  0.5534240000000  0.4409930000000  0.5004680000000 1.0
C      1  0.5157230000000  0.5089170000000  0.4940200000000 1.0
C      1  0.5719440000000  0.5503140000000  0.6043500000000 1.0
C      1  0.4408810000000  0.4845100000000  0.5600990000000 1.0
C      1  0.5186860000000  0.5837770000000  0.4582270000000 1.0
C      1  0.5840520000000  0.4661650000000  0.5017780000000 1.0
C      1  0.4112180000000  0.5254100000000  0.4541520000000 1.0
C      1  0.5406520000000  0.5902360000000  0.5265730000000 1.0
C      1  0.5412290000000  0.4664750000000  0.5845590000000 1.0
C      1  0.5709800000000  0.5157220000000  0.5443430000000 1.0
C      1  0.5207220000000  0.4202700000000  0.5388450000000 1.0
C      1  0.5231420000000  0.6095300000000  0.4492610000000 1.0
C      1  0.5138600000000  0.5519690000000  0.5571710000000 1.0
C      1  0.4160180000000  0.4940730000000  0.5496400000000 1.0
C      1  0.4817540000000  0.4527470000000  0.5462410000000 1.0
C      1  0.5105820000000  0.4785400000000  0.3805380000000 1.0
C      1  0.4922430000000  0.4998450000000  0.4516750000000 1.0
C      1  0.4473270000000  0.4774680000000  0.4513540000000 1.0
C      1  0.5566720000000  0.5074540000000  0.5079970000000 1.0
C      1  0.5327450000000  0.4028850000000  0.5195190000000 1.0
C      1  0.5789150000000  0.4860270000000  0.5191420000000 1.0
C      1  0.5238310000000  0.4380200000000  0.4358650000000 1.0
C      1  0.4626700000000  0.5292540000000  0.4707470000000 1.0
C      1  0.4616410000000  0.5631120000000  0.4568110000000 1.0
C      1  0.4416120000000  0.5369670000000  0.4483620000000 1.0
C      1  0.4189720000000  0.5529690000000  0.5313360000000 1.0
C      1  0.4768140000000  0.4373550000000  0.4469010000000 1.0
C      1  0.5269330000000  0.5311820000000  0.4548150000000 1.0
C      1  0.4964630000000  0.5047770000000  0.5170300000000 1.0
C      1  0.5821150000000  0.5282030000000  0.5168760000000 1.0
C      1  0.5371680000000  0.4886760000000  0.4770610000000 1.0
C      1  0.5563710000000  0.5693860000000  0.5346980000000 1.0
C      1  0.4541860000000  0.5220530000000  0.4249020000000 1.0
C      1  0.5784970000000  0.4905850000000  0.4514650000000 1.0
C      1  0.5030410000000  0.4265770000000  0.4487870000000 1.0
C      1  0.4792900000000  0.6196090000000  0.5311080000000 1.0
C      1  0.4154370000000  0.5329030000000  0.5114400000000 1.0
C      1  0.5974770000000  0.5205070000000  0.4892330000000 1.0
C      1  0.4315530000000  0.4459590000000  0.5249880000000 1.0
C      1  0.4189530000000  0.5403410000000  0.4837390000000 1.0
C      1  0.4951210000000  0.4974680000000  0.4222090000000 1.0
C      1  0.5002620000000  0.5049340000000  0.5496450000000 1.0
C      1  0.5074090000000  0.4742060000000  0.5397090000000 1.0
C      1  0.5869960000000  0.4370680000000  0.5069040000000 1.0
C      1  0.4891360000000  0.5913800000000  0.5322860000000 1.0
C      1  0.4823230000000  0.5239550000000  0.4214520000000 1.0
C      1  0.4748190000000  0.4089750000000  0.5506620000000 1.0
C      1  0.5353570000000  0.4159090000000  0.4951850000000 1.0
C      1  0.4894830000000  0.5692740000000  0.4485200000000 1.0
C      1  0.5313840000000  0.4683420000000  0.4237010000000 1.0
C      1  0.5110560000000  0.4811900000000  0.4077290000000 1.0
C      1  0.5515070000000  0.4587790000000  0.5294130000000 1.0
C      1  0.4869210000000  0.4663520000000  0.5737420000000 1.0
C      1  0.5133500000000  0.5831880000000  0.5131310000000 1.0
C      1  0.4236660000000  0.4467710000000  0.4601790000000 1.0
C      1  0.5678870000000  0.5552530000000  0.5135350000000 1.0
C      1  0.5033910000000  0.5425540000000  0.4339580000000 1.0
C      1  0.4631750000000  0.4058520000000  0.5198030000000 1.0
C      1  0.4612170000000  0.5127950000000  0.5791770000000 1.0
C      1  0.4649570000000  0.4827190000000  0.5806080000000 1.0
C      1  0.5192460000000  0.4661750000000  0.4918010000000 1.0
C      1  0.4485280000000  0.5224410000000  0.5502830000000 1.0
C      1  0.4666300000000  0.5678310000000  0.5682800000000 1.0
C      1  0.4393500000000  0.5599140000000  0.4810450000000 1.0
C      1  0.5727380000000  0.4593080000000  0.4507480000000 1.0
C      1  0.5359430000000  0.4890100000000  0.5280390000000 1.0
C      1  0.5565690000000  0.5174680000000  0.4319350000000 1.0
C      1  0.5008240000000  0.4113140000000  0.5560100000000 1.0
C      1  0.5563670000000  0.5435670000000  0.4453110000000 1.0
C      1  0.4414170000000  0.4816620000000  0.3994420000000 1.0
C      1  0.4473230000000  0.5526440000000  0.5471000000000 1.0
C      1  0.4131470000000  0.4945780000000  0.4398660000000 1.0
C      1  0.5546850000000  0.4470710000000  0.4341580000000 1.0
C      1  0.4838040000000  0.5272020000000  0.5873570000000 1.0
C      1  0.4621410000000  0.5537220000000  0.5016070000000 1.0
C      1  0.4572080000000  0.5208660000000  0.5032590000000 1.0
C      1  0.5446920000000  0.5507280000000  0.5556840000000 1.0
C      1  0.4708070000000  0.5629600000000  0.5280030000000 1.0
C      1  0.4921050000000  0.5751810000000  0.5593930000000 1.0
C      1  0.4766290000000  0.4052650000000  0.4893460000000 1.0
C      1  0.4288920000000  0.4851600000000  0.4789360000000 1.0
C      1  0.4412570000000  0.4944960000000  0.4242450000000 1.0
C      1  0.5623040000000  0.4658650000000  0.4790550000000 1.0
C      1  0.4049740000000  0.4631440000000  0.4457590000000 1.0
C      1  0.4772200000000  0.4558070000000  0.5141700000000 1.0
C      1  0.4884090000000  0.5481680000000  0.4824070000000 1.0
C      1  0.5532400000000  0.4673350000000  0.6087640000000 1.0
C      1  0.5073730000000  0.5737090000000  0.4207200000000 1.0
C      1  0.5056210000000  0.5727070000000  0.4849030000000 1.0
C      1  0.4584830000000  0.4324590000000  0.4987100000000 1.0
C      1  0.5131700000000  0.4625520000000  0.5830370000000 1.0
C      1  0.4549800000000  0.4332780000000  0.5384050000000 1.0
C      1  0.4302830000000  0.4762470000000  0.5096150000000 1.0
C      1  0.4304350000000  0.4471840000000  0.4910250000000 1.0
C      1  0.4038420000000  0.5010240000000  0.4748610000000 1.0
C      1  0.5200760000000  0.4499140000000  0.5221640000000 1.0
C      1  0.5068540000000  0.4145070000000  0.4766970000000 1.0
C      1  0.5441800000000  0.5653340000000  0.4650490000000 1.0
C      1  0.5772220000000  0.4869250000000  0.5491600000000 1.0
C      1  0.4504090000000  0.4453240000000  0.4445890000000 1.0
C      1  0.4771740000000  0.4795740000000  0.4657640000000 1.0
C      1  0.5808820000000  0.5128810000000  0.4685070000000 1.0
C      1  0.5462460000000  0.5500300000000  0.4928120000000 1.0
C      1  0.4679010000000  0.4964820000000  0.5431920000000 1.0
C      1  0.5031470000000  0.5270180000000  0.5686030000000 1.0
C      1  0.4981960000000  0.4344840000000  0.5019320000000 1.0
C      1  0.4930230000000  0.4573430000000  0.4773000000000 1.0
C      1  0.5644020000000  0.4302590000000  0.5427000000000 1.0
C      1  0.4338190000000  0.5070690000000  0.5237370000000 1.0
C      1  0.5454330000000  0.4877250000000  0.4440760000000 1.0
C      1  0.5253090000000  0.5331150000000  0.5136010000000 1.0
C      1  0.5559960000000  0.4696390000000  0.5613300000000 1.0
C      1  0.4718680000000  0.4850640000000  0.5128840000000 1.0
C      1  0.5501380000000  0.5201210000000  0.4771110000000 1.0
C      1  0.5396380000000  0.5201180000000  0.5415900000000 1.0
C      1  0.5584060000000  0.5509990000000  0.5827260000000 1.0
END
