TITL C-2848503-6230-514 0.295951883857445 125000 -208.639977322471 0 0 37 (C1) n - 1
REM
REM in /home/bkarasulu/work/CARBON/AIRSS/Generating-Clusters/AIREBO/with-SteepDescent/Only-C1/SD-CG-opt/Try1-1.4A-POS3A/HFTN-CG
REM
REM
REM
REM
REM
REM ./C.cell (11c1c37f851c82e70ff6c80c92926a4b)
REM
REM compiler GCC version 9.2.1 20190827 (Red Hat 9.2.1-1)
REM options -cpp -mtune=generic -march=x86-64 -g -O0 -fpre-include=/usr/include/finclude/math-vector-fortran.h
REM seed 600017020 -375554132 759962831 1419061068 -741400919 -340105008 1343245139 1785849644 -1995004832 566939464 931147491 -384324187 -858385616 181932096 -1840297361 -962881093 1086863641 834597334 772854534 1211758354 1285116657 -1277058212 -294831729 1876142968 33780990 1127938467 869672955 834712291 1819726006 1032984788 -119994152 358335498 -666703944
REM
CELL 1.54180   50.00000   50.00000   50.00000   90.00000   90.00000   90.00000
LATT -1
SFAC C  
C      1  0.4735060000000  0.4485620000000  0.5219070000000 1.0
C      1  0.5465780000000  0.5151100000000  0.4646390000000 1.0
C      1  0.5230990000000  0.5215890000000  0.4530380000000 1.0
C      1  0.4287190000000  0.5139600000000  0.5115980000000 1.0
C      1  0.5427370000000  0.4693240000000  0.4731430000000 1.0
C      1  0.3813580000000  0.5037220000000  0.5171150000000 1.0
C      1  0.4730240000000  0.5351330000000  0.5004480000000 1.0
C      1  0.4795500000000  0.4978630000000  0.4614300000000 1.0
C      1  0.4050500000000  0.4999210000000  0.5050300000000 1.0
C      1  0.5909990000000  0.5119570000000  0.5106610000000 1.0
C      1  0.5960040000000  0.4469130000000  0.5503620000000 1.0
C      1  0.4539650000000  0.4314330000000  0.5184980000000 1.0
C      1  0.5541940000000  0.4936440000000  0.4811990000000 1.0
C      1  0.4913150000000  0.4731100000000  0.4553850000000 1.0
C      1  0.5776790000000  0.4634230000000  0.5415020000000 1.0
C      1  0.4766190000000  0.4530270000000  0.4449300000000 1.0
C      1  0.4319280000000  0.4836930000000  0.4682030000000 1.0
C      1  0.5155930000000  0.5088020000000  0.5095370000000 1.0
C      1  0.5336750000000  0.4853300000000  0.5452640000000 1.0
C      1  0.4921240000000  0.5251150000000  0.4546430000000 1.0
C      1  0.5409540000000  0.5210040000000  0.5071060000000 1.0
C      1  0.5595020000000  0.4825380000000  0.5339500000000 1.0
C      1  0.4973780000000  0.5358460000000  0.5481370000000 1.0
C      1  0.4865140000000  0.5446430000000  0.4778420000000 1.0
C      1  0.5652910000000  0.5007360000000  0.5101020000000 1.0
C      1  0.5096430000000  0.5220500000000  0.5681250000000 1.0
C      1  0.4816250000000  0.5350580000000  0.4301250000000 1.0
C      1  0.5269020000000  0.5004890000000  0.5682520000000 1.0
C      1  0.4936170000000  0.4659990000000  0.5227820000000 1.0
C      1  0.5184220000000  0.4699970000000  0.4607130000000 1.0
C      1  0.5460650000000  0.5473820000000  0.5019700000000 1.0
C      1  0.4549430000000  0.4987240000000  0.4745180000000 1.0
C      1  0.4955100000000  0.5704860000000  0.4756490000000 1.0
C      1  0.4094390000000  0.4812930000000  0.4840910000000 1.0
C      1  0.5128560000000  0.4854680000000  0.5254090000000 1.0
C      1  0.4520310000000  0.5169250000000  0.4960300000000 1.0
C      1  0.4815910000000  0.5397320000000  0.5266650000000 1.0
END
