TITL C-2848497-6229-293 0.000185555489724993 125000 -471.870939922029 0 0 82 (C1) n - 1
REM
REM in /home/bkarasulu/work/CARBON/AIRSS/Generating-Clusters/AIREBO/with-SteepDescent/Only-C1/SD-CG-opt/Try1-1.4A-POS3A/HFTN-CG
REM
REM
REM
REM
REM
REM ./C.cell (11c1c37f851c82e70ff6c80c92926a4b)
REM
REM compiler GCC version 9.2.1 20190827 (Red Hat 9.2.1-1)
REM options -cpp -mtune=generic -march=x86-64 -g -O0 -fpre-include=/usr/include/finclude/math-vector-fortran.h
REM seed -1159237907 1482821969 1862745717 848420388 771258865 -1388523615 1000492547 -1454538973 105908025 1614551861 -1027235911 -866236170 -1360692965 2026480730 -1252668099 901986406 835373551 2068620183 313359344 1965698246 -1455628873 -785119402 766087868 748958744 -4311209 -657037350 -772554599 -1094491537 556853789 1009118567 1136008636 -1603426185 -1869807614
REM
CELL 1.54180   50.00000   50.00000   50.00000   90.00000   90.00000   90.00000
LATT -1
SFAC C  
C      1  0.5058950000000  0.5104310000000  0.5237470000000 1.0
C      1  0.5428940000000  0.4855900000000  0.4564830000000 1.0
C      1  0.5506680000000  0.5403680000000  0.4499950000000 1.0
C      1  0.4902360000000  0.4677410000000  0.4819770000000 1.0
C      1  0.4387610000000  0.5532730000000  0.4209970000000 1.0
C      1  0.5200440000000  0.4867730000000  0.4313310000000 1.0
C      1  0.4480440000000  0.5442750000000  0.4445440000000 1.0
C      1  0.4900680000000  0.4525840000000  0.5094900000000 1.0
C      1  0.5792060000000  0.5213690000000  0.4705010000000 1.0
C      1  0.4709660000000  0.4135030000000  0.4663250000000 1.0
C      1  0.5017190000000  0.4435790000000  0.4086330000000 1.0
C      1  0.5058610000000  0.4488960000000  0.5460350000000 1.0
C      1  0.5560950000000  0.4547580000000  0.4621330000000 1.0
C      1  0.5146380000000  0.5057940000000  0.5758990000000 1.0
C      1  0.4972220000000  0.5406610000000  0.5108050000000 1.0
C      1  0.5255630000000  0.5744160000000  0.5157400000000 1.0
C      1  0.4097070000000  0.5102770000000  0.4972680000000 1.0
C      1  0.4269390000000  0.5944650000000  0.5077000000000 1.0
C      1  0.5040190000000  0.5087260000000  0.4350400000000 1.0
C      1  0.4590120000000  0.5613170000000  0.4646070000000 1.0
C      1  0.4737330000000  0.5334570000000  0.5673690000000 1.0
C      1  0.4933390000000  0.4197470000000  0.5117490000000 1.0
C      1  0.5655230000000  0.4539010000000  0.4895810000000 1.0
C      1  0.5754160000000  0.4795610000000  0.5431580000000 1.0
C      1  0.5485960000000  0.4832690000000  0.5523640000000 1.0
C      1  0.4230600000000  0.4907310000000  0.5422960000000 1.0
C      1  0.4864380000000  0.5684210000000  0.4651200000000 1.0
C      1  0.5163450000000  0.4654490000000  0.4144080000000 1.0
C      1  0.4901780000000  0.3923270000000  0.5242060000000 1.0
C      1  0.4827170000000  0.4113270000000  0.4423270000000 1.0
C      1  0.5227230000000  0.4339500000000  0.5219990000000 1.0
C      1  0.5245450000000  0.5049460000000  0.4775820000000 1.0
C      1  0.4640070000000  0.5613970000000  0.5508890000000 1.0
C      1  0.4533290000000  0.4512710000000  0.5445440000000 1.0
C      1  0.5626560000000  0.5506730000000  0.4776270000000 1.0
C      1  0.4439210000000  0.4412790000000  0.4975600000000 1.0
C      1  0.4222020000000  0.4715720000000  0.4504470000000 1.0
C      1  0.5777690000000  0.5273110000000  0.5196800000000 1.0
C      1  0.4268700000000  0.4574620000000  0.4728480000000 1.0
C      1  0.5581890000000  0.4360120000000  0.4424860000000 1.0
C      1  0.5086400000000  0.5469660000000  0.4793680000000 1.0
C      1  0.5586140000000  0.5265420000000  0.5714790000000 1.0
C      1  0.4989780000000  0.5182970000000  0.4648470000000 1.0
C      1  0.4556610000000  0.5129300000000  0.5243260000000 1.0
C      1  0.5304140000000  0.5303450000000  0.5737610000000 1.0
C      1  0.4379770000000  0.4397180000000  0.5281640000000 1.0
C      1  0.5776470000000  0.4795830000000  0.4943710000000 1.0
C      1  0.5384140000000  0.5053070000000  0.5317000000000 1.0
C      1  0.5820100000000  0.4935520000000  0.5188800000000 1.0
C      1  0.4316380000000  0.4944470000000  0.5117530000000 1.0
C      1  0.4461360000000  0.5323460000000  0.5493790000000 1.0
C      1  0.5525190000000  0.4369810000000  0.5081090000000 1.0
C      1  0.5258390000000  0.5528760000000  0.4506300000000 1.0
C      1  0.4705230000000  0.5125540000000  0.4740290000000 1.0
C      1  0.5716680000000  0.4954210000000  0.4717150000000 1.0
C      1  0.4442670000000  0.4743280000000  0.4938630000000 1.0
C      1  0.5206700000000  0.5513270000000  0.5574770000000 1.0
C      1  0.4799490000000  0.4649250000000  0.5365210000000 1.0
C      1  0.4685060000000  0.4837740000000  0.4800550000000 1.0
C      1  0.4476370000000  0.5773760000000  0.5081660000000 1.0
C      1  0.5878220000000  0.5370090000000  0.4957800000000 1.0
C      1  0.5187950000000  0.4662010000000  0.4706530000000 1.0
C      1  0.4664080000000  0.5304480000000  0.5006320000000 1.0
C      1  0.4496530000000  0.5175960000000  0.4518990000000 1.0
C      1  0.4506080000000  0.5554550000000  0.4909580000000 1.0
C      1  0.5249940000000  0.4935230000000  0.5045850000000 1.0
C      1  0.4906840000000  0.4209720000000  0.4184680000000 1.0
C      1  0.5225250000000  0.4629780000000  0.5042970000000 1.0
C      1  0.4941450000000  0.5467760000000  0.5441330000000 1.0
C      1  0.5367860000000  0.5596480000000  0.4936280000000 1.0
C      1  0.5349800000000  0.5709030000000  0.5426710000000 1.0
C      1  0.5154800000000  0.4560170000000  0.5703980000000 1.0
C      1  0.4686000000000  0.4247860000000  0.4904570000000 1.0
C      1  0.5524000000000  0.5146490000000  0.4415820000000 1.0
C      1  0.4883930000000  0.5070430000000  0.5660390000000 1.0
C      1  0.4357100000000  0.4947100000000  0.4435730000000 1.0
C      1  0.4950320000000  0.5743110000000  0.5152270000000 1.0
C      1  0.5658360000000  0.5183320000000  0.5455120000000 1.0
C      1  0.4692600000000  0.5789660000000  0.5261240000000 1.0
C      1  0.5288890000000  0.4808120000000  0.5721470000000 1.0
C      1  0.4249460000000  0.5109490000000  0.5574840000000 1.0
C      1  0.4812390000000  0.4954600000000  0.5376690000000 1.0
END
