TITL C-2848503-6230-340 -0.00735380419498119 125000 -282.759959440906 0 0 54 (C1) n - 1
REM
REM in /home/bkarasulu/work/CARBON/AIRSS/Generating-Clusters/AIREBO/with-SteepDescent/Only-C1/SD-CG-opt/Try1-1.4A-POS3A/HFTN-CG
REM
REM
REM
REM
REM
REM ./C.cell (11c1c37f851c82e70ff6c80c92926a4b)
REM
REM compiler GCC version 9.2.1 20190827 (Red Hat 9.2.1-1)
REM options -cpp -mtune=generic -march=x86-64 -g -O0 -fpre-include=/usr/include/finclude/math-vector-fortran.h
REM seed 1981701797 418113794 -2062464028 941909503 -123855079 2122234745 -1608267858 1063258721 -876467337 1333077945 -1000388367 1247207436 921494804 1357035366 915479353 735070684 -1862232988 2097960818 637267388 -587770155 928264823 -1803319905 -684351929 -2073318898 -1878034748 -208276179 -1366442797 1760239803 -1872518027 -136057221 -867347820 -713086163 -1733882053
REM
CELL 1.54180   50.00000   50.00000   50.00000   90.00000   90.00000   90.00000
LATT -1
SFAC C  
C      1  0.4652240000000  0.4806790000000  0.4912420000000 1.0
C      1  0.4307370000000  0.5397780000000  0.4803220000000 1.0
C      1  0.5087950000000  0.5315900000000  0.4953550000000 1.0
C      1  0.5093730000000  0.4531970000000  0.5480900000000 1.0
C      1  0.4978870000000  0.5002230000000  0.4730750000000 1.0
C      1  0.5252460000000  0.4484610000000  0.5183890000000 1.0
C      1  0.4486720000000  0.5371710000000  0.5019110000000 1.0
C      1  0.5579260000000  0.4897100000000  0.5680020000000 1.0
C      1  0.5097020000000  0.4478970000000  0.4938870000000 1.0
C      1  0.4898210000000  0.4930040000000  0.5115630000000 1.0
C      1  0.4668850000000  0.5060750000000  0.4686960000000 1.0
C      1  0.5111920000000  0.4853050000000  0.5368930000000 1.0
C      1  0.4538770000000  0.4389560000000  0.4584040000000 1.0
C      1  0.4610490000000  0.4575780000000  0.5235830000000 1.0
C      1  0.4843620000000  0.4703830000000  0.5621640000000 1.0
C      1  0.5414410000000  0.5458530000000  0.5351250000000 1.0
C      1  0.5238190000000  0.5715540000000  0.4736200000000 1.0
C      1  0.4679450000000  0.4619720000000  0.4629480000000 1.0
C      1  0.5118370000000  0.5119380000000  0.5581400000000 1.0
C      1  0.4617170000000  0.5054850000000  0.5370830000000 1.0
C      1  0.5431820000000  0.5165020000000  0.5622090000000 1.0
C      1  0.5045090000000  0.4857490000000  0.4354690000000 1.0
C      1  0.4923680000000  0.5388650000000  0.4400010000000 1.0
C      1  0.5198180000000  0.5000010000000  0.4971560000000 1.0
C      1  0.5438830000000  0.4379990000000  0.5437010000000 1.0
C      1  0.5083490000000  0.5813340000000  0.4944490000000 1.0
C      1  0.4642190000000  0.4778270000000  0.5435580000000 1.0
C      1  0.4932220000000  0.5523350000000  0.5335990000000 1.0
C      1  0.4782880000000  0.4507820000000  0.5008350000000 1.0
C      1  0.5052860000000  0.4256810000000  0.5592050000000 1.0
C      1  0.4776180000000  0.5437400000000  0.4900410000000 1.0
C      1  0.4225430000000  0.4987970000000  0.5124050000000 1.0
C      1  0.5217400000000  0.4628390000000  0.4401140000000 1.0
C      1  0.5226590000000  0.4438090000000  0.4626950000000 1.0
C      1  0.4909390000000  0.5645300000000  0.5089890000000 1.0
C      1  0.5168700000000  0.5433070000000  0.5485610000000 1.0
C      1  0.4455430000000  0.5286150000000  0.4548220000000 1.0
C      1  0.4551320000000  0.5024760000000  0.4364860000000 1.0
C      1  0.5643980000000  0.4738710000000  0.4951400000000 1.0
C      1  0.5469770000000  0.5061780000000  0.4521530000000 1.0
C      1  0.4892640000000  0.5185660000000  0.5340120000000 1.0
C      1  0.5577010000000  0.5282640000000  0.4759040000000 1.0
C      1  0.5544910000000  0.4632820000000  0.5193570000000 1.0
C      1  0.4978240000000  0.4694920000000  0.4713720000000 1.0
C      1  0.5477770000000  0.4968640000000  0.4843650000000 1.0
C      1  0.5418100000000  0.5325370000000  0.5043530000000 1.0
C      1  0.5268080000000  0.5402270000000  0.4682530000000 1.0
C      1  0.5438120000000  0.4857610000000  0.5371100000000 1.0
C      1  0.4421090000000  0.5173460000000  0.5210340000000 1.0
C      1  0.4729110000000  0.5443160000000  0.4590590000000 1.0
C      1  0.5554750000000  0.5161800000000  0.5305090000000 1.0
C      1  0.4768490000000  0.4812960000000  0.4390310000000 1.0
C      1  0.4331310000000  0.4782520000000  0.4975500000000 1.0
C      1  0.5149840000000  0.5155750000000  0.4480130000000 1.0
END
