TITL C-2847953-8112-564 0.00438167455324284 125000 -855.563098045538 0 0 157 (C1) n - 1
REM
REM in /home/bkarasulu/work/CARBON/AIRSS/Generating-Clusters/AIREBO/with-SteepDescent/Only-C1/SD-CG-opt/Try1-1.4A-POS3A/HFTN-CG
REM
REM
REM
REM
REM
REM ./C.cell (11c1c37f851c82e70ff6c80c92926a4b)
REM
REM compiler GCC version 9.2.1 20190827 (Red Hat 9.2.1-1)
REM options -cpp -mtune=generic -march=x86-64 -g -O0 -fpre-include=/usr/include/finclude/math-vector-fortran.h
REM seed 1887009592 381607212 2087755337 2099860047 100548292 -1042178791 1258074427 1462360829 790342554 -733735670 -265303994 -1599690255 -502364826 1386957802 -524480364 -790565330 1997174440 488150365 316027487 644443439 -687041434 -446342641 -1158966852 1664330497 -1520156042 -1249651910 1918122082 1327392295 -904406827 211260249 1775196653 -1942201790 2127281343
REM
CELL 1.54180   50.00000   50.00000   50.00000   90.00000   90.00000   90.00000
LATT -1
SFAC C  
C      1  0.5266670000000  0.5865630000000  0.5357650000000 1.0
C      1  0.4614980000000  0.5554490000000  0.4837610000000 1.0
C      1  0.5801620000000  0.4651800000000  0.5670070000000 1.0
C      1  0.4824710000000  0.4251910000000  0.4557160000000 1.0
C      1  0.5076280000000  0.4076770000000  0.5501720000000 1.0
C      1  0.5572150000000  0.4041060000000  0.4885520000000 1.0
C      1  0.4498860000000  0.5298850000000  0.5531550000000 1.0
C      1  0.4877300000000  0.5274730000000  0.5140530000000 1.0
C      1  0.4929310000000  0.5640150000000  0.4769050000000 1.0
C      1  0.5404600000000  0.5316140000000  0.4699270000000 1.0
C      1  0.5894550000000  0.5403670000000  0.5167880000000 1.0
C      1  0.5163060000000  0.5546220000000  0.4099180000000 1.0
C      1  0.5399240000000  0.5112180000000  0.3914570000000 1.0
C      1  0.5314950000000  0.4317880000000  0.4268640000000 1.0
C      1  0.5553590000000  0.5424750000000  0.5171490000000 1.0
C      1  0.5534750000000  0.5967850000000  0.4916970000000 1.0
C      1  0.5104540000000  0.4545520000000  0.4305200000000 1.0
C      1  0.3965850000000  0.4926360000000  0.4798780000000 1.0
C      1  0.4596150000000  0.4444540000000  0.4214820000000 1.0
C      1  0.5540270000000  0.4668720000000  0.5837000000000 1.0
C      1  0.5121950000000  0.4154510000000  0.4690670000000 1.0
C      1  0.5960960000000  0.5015360000000  0.4627630000000 1.0
C      1  0.4854800000000  0.5803670000000  0.5041450000000 1.0
C      1  0.4770000000000  0.5583940000000  0.5227030000000 1.0
C      1  0.5570930000000  0.5717720000000  0.5723370000000 1.0
C      1  0.4660780000000  0.4314740000000  0.5295980000000 1.0
C      1  0.5365670000000  0.5337890000000  0.4064830000000 1.0
C      1  0.5717610000000  0.4769600000000  0.4863200000000 1.0
C      1  0.5366220000000  0.3917940000000  0.5126480000000 1.0
C      1  0.4461180000000  0.5810230000000  0.4972610000000 1.0
C      1  0.4029110000000  0.4927590000000  0.5450890000000 1.0
C      1  0.4986210000000  0.5412850000000  0.5989170000000 1.0
C      1  0.5102730000000  0.5383260000000  0.4793810000000 1.0
C      1  0.5198390000000  0.5833170000000  0.4768060000000 1.0
C      1  0.5699140000000  0.4974360000000  0.5640280000000 1.0
C      1  0.5685330000000  0.5816740000000  0.5930480000000 1.0
C      1  0.5311180000000  0.4685390000000  0.5632210000000 1.0
C      1  0.4451900000000  0.5618700000000  0.5515070000000 1.0
C      1  0.5736100000000  0.5478270000000  0.4889620000000 1.0
C      1  0.4462410000000  0.4731360000000  0.5754230000000 1.0
C      1  0.5316970000000  0.5608180000000  0.4548660000000 1.0
C      1  0.4799470000000  0.5741620000000  0.4483970000000 1.0
C      1  0.4452660000000  0.4842840000000  0.4895960000000 1.0
C      1  0.5169810000000  0.5966060000000  0.4456080000000 1.0
C      1  0.4097060000000  0.5491930000000  0.4772700000000 1.0
C      1  0.5637840000000  0.4142720000000  0.5163250000000 1.0
C      1  0.4938240000000  0.4190300000000  0.4974590000000 1.0
C      1  0.4841620000000  0.5657090000000  0.4093070000000 1.0
C      1  0.4621640000000  0.4376110000000  0.5623740000000 1.0
C      1  0.5018980000000  0.4633650000000  0.4612180000000 1.0
C      1  0.5835910000000  0.4514110000000  0.5410230000000 1.0
C      1  0.5267700000000  0.6081920000000  0.5095290000000 1.0
C      1  0.5254950000000  0.5685580000000  0.5069440000000 1.0
C      1  0.3977190000000  0.5489750000000  0.5264020000000 1.0
C      1  0.4713840000000  0.4552200000000  0.4663640000000 1.0
C      1  0.5436440000000  0.4950100000000  0.5456560000000 1.0
C      1  0.5153400000000  0.5191510000000  0.4411230000000 1.0
C      1  0.4738800000000  0.5154720000000  0.5386510000000 1.0
C      1  0.5531790000000  0.4879400000000  0.5137830000000 1.0
C      1  0.5480620000000  0.5141970000000  0.6105290000000 1.0
C      1  0.4213570000000  0.5344880000000  0.5056410000000 1.0
C      1  0.5327970000000  0.3926740000000  0.5436470000000 1.0
C      1  0.4757110000000  0.5366860000000  0.4248820000000 1.0
C      1  0.5076950000000  0.4440150000000  0.5090180000000 1.0
C      1  0.4232500000000  0.4331450000000  0.4896790000000 1.0
C      1  0.4921900000000  0.5009870000000  0.4290910000000 1.0
C      1  0.5547500000000  0.5820190000000  0.5206620000000 1.0
C      1  0.4134730000000  0.5180840000000  0.4648660000000 1.0
C      1  0.4069720000000  0.4670350000000  0.5357060000000 1.0
C      1  0.5927540000000  0.4907570000000  0.5093400000000 1.0
C      1  0.4721920000000  0.4906400000000  0.4971190000000 1.0
C      1  0.4466850000000  0.5109100000000  0.4600360000000 1.0
C      1  0.4959910000000  0.5633640000000  0.5502430000000 1.0
C      1  0.5671740000000  0.5616580000000  0.5422160000000 1.0
C      1  0.5200440000000  0.5410650000000  0.5729620000000 1.0
C      1  0.5484460000000  0.5259340000000  0.4373590000000 1.0
C      1  0.4129540000000  0.4798150000000  0.4534100000000 1.0
C      1  0.5437430000000  0.4269000000000  0.4728970000000 1.0
C      1  0.5456340000000  0.4179790000000  0.5558060000000 1.0
C      1  0.4278720000000  0.5208290000000  0.5754480000000 1.0
C      1  0.4224400000000  0.5190620000000  0.5359370000000 1.0
C      1  0.4819040000000  0.4853700000000  0.4094970000000 1.0
C      1  0.4934750000000  0.4506080000000  0.5359840000000 1.0
C      1  0.5890180000000  0.5176320000000  0.5554690000000 1.0
C      1  0.4459270000000  0.5334980000000  0.4821500000000 1.0
C      1  0.5588210000000  0.5706480000000  0.4728930000000 1.0
C      1  0.5532950000000  0.4327730000000  0.4443980000000 1.0
C      1  0.5270990000000  0.5299010000000  0.6035020000000 1.0
C      1  0.5571560000000  0.4932180000000  0.4364520000000 1.0
C      1  0.5276320000000  0.5692600000000  0.5612260000000 1.0
C      1  0.4693860000000  0.5760670000000  0.5577720000000 1.0
C      1  0.5755830000000  0.4483870000000  0.4430280000000 1.0
C      1  0.4485360000000  0.5204700000000  0.4124330000000 1.0
C      1  0.5104220000000  0.4942900000000  0.5053070000000 1.0
C      1  0.5459910000000  0.4549530000000  0.4891760000000 1.0
C      1  0.4204360000000  0.5011200000000  0.5002510000000 1.0
C      1  0.4470990000000  0.4248090000000  0.4370470000000 1.0
C      1  0.5306590000000  0.5202470000000  0.5098980000000 1.0
C      1  0.5095180000000  0.3902240000000  0.4997430000000 1.0
C      1  0.5737330000000  0.5459880000000  0.4335030000000 1.0
C      1  0.4327750000000  0.4184930000000  0.4675800000000 1.0
C      1  0.4766220000000  0.5185450000000  0.4538130000000 1.0
C      1  0.5141090000000  0.5440310000000  0.5276920000000 1.0
C      1  0.5839330000000  0.5435320000000  0.5633380000000 1.0
C      1  0.4949500000000  0.5022020000000  0.5548320000000 1.0
C      1  0.4479460000000  0.4712300000000  0.4251280000000 1.0
C      1  0.5106850000000  0.3809880000000  0.4710000000000 1.0
C      1  0.4486040000000  0.4988630000000  0.5284260000000 1.0
C      1  0.4083470000000  0.5080110000000  0.4348010000000 1.0
C      1  0.4749880000000  0.5473370000000  0.6094660000000 1.0
C      1  0.4922660000000  0.5131120000000  0.4835430000000 1.0
C      1  0.5966420000000  0.5161550000000  0.5288630000000 1.0
C      1  0.5119350000000  0.4946750000000  0.4628170000000 1.0
C      1  0.5081850000000  0.4150040000000  0.4353000000000 1.0
C      1  0.4839570000000  0.4800670000000  0.5233320000000 1.0
C      1  0.4341490000000  0.4444980000000  0.5668510000000 1.0
C      1  0.5026550000000  0.5499930000000  0.4408130000000 1.0
C      1  0.4277480000000  0.3972420000000  0.5254920000000 1.0
C      1  0.4036910000000  0.4585310000000  0.4783080000000 1.0
C      1  0.4575320000000  0.4724050000000  0.5433470000000 1.0
C      1  0.5549990000000  0.5127790000000  0.4905940000000 1.0
C      1  0.5742970000000  0.5683820000000  0.4451670000000 1.0
C      1  0.4462750000000  0.4618980000000  0.5130210000000 1.0
C      1  0.4466490000000  0.4770360000000  0.4570320000000 1.0
C      1  0.4693960000000  0.4428290000000  0.4977110000000 1.0
C      1  0.4432050000000  0.5567330000000  0.5192440000000 1.0
C      1  0.4857340000000  0.4575760000000  0.4132910000000 1.0
C      1  0.4542630000000  0.4933040000000  0.4056830000000 1.0
C      1  0.4189760000000  0.4433560000000  0.5440090000000 1.0
C      1  0.4134290000000  0.4685110000000  0.5068580000000 1.0
C      1  0.4336670000000  0.4249240000000  0.5211130000000 1.0
C      1  0.5206990000000  0.5196400000000  0.5504870000000 1.0
C      1  0.4145500000000  0.5471860000000  0.5533620000000 1.0
C      1  0.5614650000000  0.4561350000000  0.5184620000000 1.0
C      1  0.4273370000000  0.4960590000000  0.5830030000000 1.0
C      1  0.4996190000000  0.4730110000000  0.5608180000000 1.0
C      1  0.5687320000000  0.4238640000000  0.5408000000000 1.0
C      1  0.6299370000000  0.4595080000000  0.5224670000000 1.0
C      1  0.4206750000000  0.5228930000000  0.4159280000000 1.0
C      1  0.5262270000000  0.4811430000000  0.4350820000000 1.0
C      1  0.4656780000000  0.6029850000000  0.4594480000000 1.0
C      1  0.5434060000000  0.4891130000000  0.4067340000000 1.0
C      1  0.4272990000000  0.5713400000000  0.4706510000000 1.0
C      1  0.5764290000000  0.4778990000000  0.4534270000000 1.0
C      1  0.6046470000000  0.4658520000000  0.5229830000000 1.0
C      1  0.4461070000000  0.5794890000000  0.4504000000000 1.0
C      1  0.4676050000000  0.6056060000000  0.4904880000000 1.0
C      1  0.5860210000000  0.5149780000000  0.4864300000000 1.0
C      1  0.5172640000000  0.4663920000000  0.4903840000000 1.0
C      1  0.4849180000000  0.4046030000000  0.5351850000000 1.0
C      1  0.5598170000000  0.4940790000000  0.5962890000000 1.0
C      1  0.4594600000000  0.4039510000000  0.4585330000000 1.0
C      1  0.4808130000000  0.4532950000000  0.5761460000000 1.0
C      1  0.4990230000000  0.6103970000000  0.5028480000000 1.0
C      1  0.5191760000000  0.4384390000000  0.5565210000000 1.0
C      1  0.4689730000000  0.4664400000000  0.5995870000000 1.0
C      1  0.5086080000000  0.5851210000000  0.4227860000000 1.0
END
