TITL C-2847944-5688-487 0.000515008469765332 125000 -740.922254285555 0 0 133 (C1) n - 1
REM
REM in /home/bkarasulu/work/CARBON/AIRSS/Generating-Clusters/AIREBO/with-SteepDescent/Only-C1/SD-CG-opt/Try1-1.4A-POS3A/HFTN-CG
REM
REM
REM
REM
REM
REM ./C.cell (11c1c37f851c82e70ff6c80c92926a4b)
REM
REM compiler GCC version 9.2.1 20190827 (Red Hat 9.2.1-1)
REM options -cpp -mtune=generic -march=x86-64 -g -O0 -fpre-include=/usr/include/finclude/math-vector-fortran.h
REM seed -178672843 198139469 -351147810 799001661 -1111525458 -827004533 420215939 -1062113438 1517099847 -145664202 -181163913 1912623816 -785828715 1761781528 -377527757 -766785120 211293405 -253186767 1770281602 -1209357522 -1399995633 359942294 -500113565 1942801810 -2126756196 -1865524104 315172806 1885898693 -1951686745 -487950870 978532645 -1641324021 1449078522
REM
CELL 1.54180   50.00000   50.00000   50.00000   90.00000   90.00000   90.00000
LATT -1
SFAC C  
C      1  0.5675140000000  0.4687510000000  0.5362450000000 1.0
C      1  0.4532690000000  0.5164360000000  0.4782410000000 1.0
C      1  0.4612360000000  0.4159920000000  0.5486900000000 1.0
C      1  0.4589000000000  0.5402430000000  0.4218020000000 1.0
C      1  0.5735770000000  0.5623250000000  0.4634790000000 1.0
C      1  0.6079350000000  0.5129450000000  0.5434850000000 1.0
C      1  0.4242740000000  0.4670520000000  0.4960140000000 1.0
C      1  0.4351710000000  0.4868970000000  0.5873860000000 1.0
C      1  0.5693910000000  0.5462860000000  0.4419970000000 1.0
C      1  0.4011970000000  0.4812510000000  0.4916140000000 1.0
C      1  0.4314900000000  0.5195940000000  0.5043980000000 1.0
C      1  0.5418120000000  0.5699850000000  0.5032770000000 1.0
C      1  0.5758810000000  0.4877960000000  0.4786580000000 1.0
C      1  0.5793940000000  0.4337980000000  0.5159020000000 1.0
C      1  0.4126690000000  0.4989720000000  0.5255850000000 1.0
C      1  0.5655470000000  0.4661260000000  0.4466900000000 1.0
C      1  0.5475320000000  0.5821840000000  0.5568550000000 1.0
C      1  0.5590940000000  0.4454270000000  0.4728830000000 1.0
C      1  0.5141600000000  0.4705110000000  0.5825900000000 1.0
C      1  0.4060240000000  0.5168680000000  0.4600380000000 1.0
C      1  0.5871010000000  0.4843880000000  0.5167170000000 1.0
C      1  0.4728990000000  0.5442230000000  0.4764100000000 1.0
C      1  0.5068010000000  0.4371410000000  0.4741340000000 1.0
C      1  0.4751690000000  0.4199740000000  0.4419030000000 1.0
C      1  0.5127110000000  0.4402030000000  0.5825460000000 1.0
C      1  0.4737540000000  0.5227370000000  0.5288500000000 1.0
C      1  0.5661700000000  0.4055560000000  0.4244600000000 1.0
C      1  0.5160680000000  0.5979880000000  0.4389460000000 1.0
C      1  0.5539190000000  0.5380710000000  0.5238800000000 1.0
C      1  0.4289290000000  0.5120560000000  0.5760740000000 1.0
C      1  0.4537980000000  0.4363430000000  0.5670960000000 1.0
C      1  0.5529770000000  0.5709800000000  0.5330850000000 1.0
C      1  0.4377800000000  0.5758340000000  0.4965530000000 1.0
C      1  0.4451820000000  0.5635650000000  0.5433140000000 1.0
C      1  0.4521150000000  0.5118190000000  0.4241540000000 1.0
C      1  0.5154850000000  0.4392820000000  0.4212510000000 1.0
C      1  0.4810970000000  0.4969900000000  0.4803840000000 1.0
C      1  0.5676270000000  0.5082320000000  0.5311560000000 1.0
C      1  0.4736940000000  0.5933000000000  0.4639080000000 1.0
C      1  0.4484550000000  0.4711050000000  0.5178910000000 1.0
C      1  0.5621920000000  0.4265160000000  0.4477300000000 1.0
C      1  0.5114440000000  0.5269960000000  0.5897520000000 1.0
C      1  0.5006060000000  0.4955630000000  0.3773500000000 1.0
C      1  0.4891840000000  0.4076060000000  0.5502380000000 1.0
C      1  0.4355540000000  0.5253330000000  0.4506050000000 1.0
C      1  0.4932200000000  0.4483050000000  0.5196430000000 1.0
C      1  0.5453110000000  0.5427680000000  0.5625620000000 1.0
C      1  0.5447050000000  0.4845760000000  0.5785170000000 1.0
C      1  0.5827360000000  0.5386390000000  0.5057830000000 1.0
C      1  0.5889310000000  0.5546740000000  0.4853210000000 1.0
C      1  0.5296740000000  0.5440800000000  0.4455310000000 1.0
C      1  0.5180810000000  0.4915450000000  0.5367860000000 1.0
C      1  0.5342830000000  0.4350450000000  0.4925560000000 1.0
C      1  0.4112610000000  0.5145390000000  0.5542390000000 1.0
C      1  0.5504520000000  0.5781060000000  0.4723750000000 1.0
C      1  0.4580120000000  0.5702470000000  0.4477150000000 1.0
C      1  0.4876470000000  0.4637370000000  0.4832240000000 1.0
C      1  0.5467660000000  0.4327270000000  0.4180270000000 1.0
C      1  0.5843060000000  0.5067980000000  0.5583210000000 1.0
C      1  0.5201310000000  0.4818460000000  0.4494780000000 1.0
C      1  0.4297640000000  0.4422330000000  0.4782840000000 1.0
C      1  0.4566710000000  0.4615850000000  0.4693160000000 1.0
C      1  0.5500900000000  0.5203670000000  0.4355220000000 1.0
C      1  0.5003020000000  0.4016340000000  0.5240940000000 1.0
C      1  0.4211310000000  0.4372780000000  0.5299630000000 1.0
C      1  0.3943340000000  0.4931350000000  0.4650650000000 1.0
C      1  0.4902090000000  0.4861640000000  0.5649400000000 1.0
C      1  0.5028010000000  0.5768970000000  0.4760200000000 1.0
C      1  0.4727400000000  0.4628540000000  0.4166670000000 1.0
C      1  0.4119000000000  0.4698180000000  0.5336940000000 1.0
C      1  0.4476060000000  0.5373560000000  0.5247200000000 1.0
C      1  0.4567300000000  0.5561730000000  0.5689240000000 1.0
C      1  0.5355240000000  0.4287870000000  0.5414230000000 1.0
C      1  0.5726340000000  0.4959660000000  0.5795480000000 1.0
C      1  0.5773140000000  0.4588690000000  0.4964820000000 1.0
C      1  0.5291000000000  0.5385570000000  0.5006280000000 1.0
C      1  0.4642950000000  0.5732830000000  0.4869310000000 1.0
C      1  0.5156090000000  0.4744070000000  0.4994500000000 1.0
C      1  0.4838840000000  0.4385130000000  0.4219210000000 1.0
C      1  0.4550410000000  0.4291820000000  0.4607410000000 1.0
C      1  0.4957010000000  0.5003020000000  0.4498460000000 1.0
C      1  0.4913490000000  0.4758610000000  0.5323150000000 1.0
C      1  0.4726710000000  0.4947940000000  0.5133110000000 1.0
C      1  0.5449830000000  0.4034390000000  0.4991320000000 1.0
C      1  0.4466740000000  0.4872880000000  0.4626550000000 1.0
C      1  0.5546850000000  0.5008590000000  0.5005880000000 1.0
C      1  0.4204080000000  0.5626330000000  0.4782230000000 1.0
C      1  0.5238980000000  0.5219560000000  0.4134770000000 1.0
C      1  0.5565060000000  0.4183540000000  0.5226120000000 1.0
C      1  0.5397990000000  0.4709860000000  0.5494580000000 1.0
C      1  0.4353180000000  0.5825480000000  0.5242050000000 1.0
C      1  0.4520130000000  0.4243070000000  0.4948980000000 1.0
C      1  0.5361230000000  0.4862160000000  0.4761510000000 1.0
C      1  0.5245390000000  0.5309280000000  0.5394700000000 1.0
C      1  0.5337080000000  0.4551680000000  0.5199730000000 1.0
C      1  0.5270000000000  0.5717720000000  0.4536780000000 1.0
C      1  0.5073760000000  0.5552270000000  0.5869570000000 1.0
C      1  0.5312860000000  0.5427320000000  0.3921160000000 1.0
C      1  0.4717790000000  0.5136000000000  0.5579100000000 1.0
C      1  0.4668580000000  0.4805860000000  0.5872160000000 1.0
C      1  0.4527990000000  0.5278340000000  0.5730710000000 1.0
C      1  0.4806320000000  0.5468430000000  0.4446520000000 1.0
C      1  0.5093270000000  0.4531850000000  0.4488950000000 1.0
C      1  0.6020720000000  0.5146230000000  0.5120930000000 1.0
C      1  0.5006410000000  0.5033000000000  0.4024100000000 1.0
C      1  0.5093250000000  0.6089340000000  0.4853610000000 1.0
C      1  0.5142810000000  0.4227300000000  0.5604930000000 1.0
C      1  0.5930920000000  0.4625440000000  0.4345200000000 1.0
C      1  0.4667360000000  0.4494920000000  0.5059400000000 1.0
C      1  0.5370080000000  0.6013590000000  0.4915130000000 1.0
C      1  0.5328640000000  0.5661300000000  0.5777420000000 1.0
C      1  0.5115540000000  0.5124580000000  0.5618980000000 1.0
C      1  0.5394750000000  0.4647970000000  0.4266510000000 1.0
C      1  0.5241510000000  0.5061340000000  0.5083290000000 1.0
C      1  0.5569940000000  0.4971470000000  0.4518620000000 1.0
C      1  0.4437560000000  0.4176100000000  0.5248360000000 1.0
C      1  0.4848040000000  0.5636550000000  0.5704250000000 1.0
C      1  0.4987530000000  0.6112020000000  0.4561000000000 1.0
C      1  0.6020280000000  0.4999790000000  0.4830460000000 1.0
C      1  0.4335300000000  0.5572340000000  0.4533440000000 1.0
C      1  0.4962570000000  0.4118680000000  0.4583160000000 1.0
C      1  0.4932840000000  0.5683210000000  0.5434130000000 1.0
C      1  0.4995300000000  0.5515750000000  0.4945410000000 1.0
C      1  0.5215550000000  0.4997450000000  0.5982990000000 1.0
C      1  0.4089300000000  0.5362370000000  0.4870270000000 1.0
C      1  0.4779820000000  0.4938710000000  0.4221810000000 1.0
C      1  0.4398560000000  0.4587610000000  0.5478240000000 1.0
C      1  0.4981180000000  0.5428570000000  0.5253940000000 1.0
C      1  0.4162550000000  0.5370770000000  0.5369660000000 1.0
C      1  0.3932090000000  0.5102600000000  0.5011870000000 1.0
C      1  0.5032080000000  0.5288750000000  0.4395600000000 1.0
C      1  0.5083220000000  0.4254480000000  0.5123020000000 1.0
C      1  0.4470310000000  0.4564350000000  0.5869880000000 1.0
END
