TITL C-2848504-8560-114 0.00169189742509835 125000 -841.631212188075 0 0 159 (C1) n - 1
REM
REM in /home/bkarasulu/work/CARBON/AIRSS/Generating-Clusters/AIREBO/with-SteepDescent/Only-C1/SD-CG-opt/Try1-1.4A-POS3A/HFTN-CG
REM
REM
REM
REM
REM
REM ./C.cell (11c1c37f851c82e70ff6c80c92926a4b)
REM
REM compiler GCC version 9.2.1 20190827 (Red Hat 9.2.1-1)
REM options -cpp -mtune=generic -march=x86-64 -g -O0 -fpre-include=/usr/include/finclude/math-vector-fortran.h
REM seed -356454078 -2082825088 -1291360230 1790677038 218083810 912031724 801922429 599762763 103973966 -1139978526 740008604 1482072301 -1995715456 -1146210717 -183863279 2107830009 -1204343332 -499295559 1061996940 -1862807423 -368020605 -1926753483 -1695100125 1327280103 -801525511 -1215224034 1494545706 -757097296 2107607991 -771771230 584597224 1533218060 -523150101
REM
CELL 1.54180   50.00000   50.00000   50.00000   90.00000   90.00000   90.00000
LATT -1
SFAC C  
C      1  0.5217130000000  0.5654770000000  0.4894480000000 1.0
C      1  0.6008680000000  0.4527240000000  0.5173090000000 1.0
C      1  0.4663480000000  0.5008040000000  0.4638280000000 1.0
C      1  0.4528420000000  0.4846260000000  0.5188830000000 1.0
C      1  0.4433500000000  0.5921130000000  0.4770080000000 1.0
C      1  0.4782610000000  0.5073580000000  0.4114520000000 1.0
C      1  0.5278460000000  0.4888800000000  0.4252200000000 1.0
C      1  0.5246360000000  0.4708620000000  0.5496310000000 1.0
C      1  0.5714660000000  0.5462820000000  0.4815940000000 1.0
C      1  0.5085670000000  0.4073670000000  0.4863660000000 1.0
C      1  0.5742490000000  0.4938390000000  0.4289310000000 1.0
C      1  0.5517020000000  0.5337120000000  0.5936790000000 1.0
C      1  0.4033050000000  0.5364520000000  0.5259040000000 1.0
C      1  0.4968700000000  0.4070740000000  0.5504070000000 1.0
C      1  0.5203960000000  0.4264980000000  0.5191350000000 1.0
C      1  0.3896830000000  0.5100960000000  0.5226710000000 1.0
C      1  0.4389540000000  0.4742260000000  0.4368080000000 1.0
C      1  0.4913610000000  0.4792770000000  0.4938980000000 1.0
C      1  0.5420090000000  0.5863690000000  0.5212500000000 1.0
C      1  0.5404510000000  0.5305410000000  0.5186140000000 1.0
C      1  0.4591280000000  0.5271470000000  0.5740670000000 1.0
C      1  0.5200070000000  0.5371950000000  0.4085670000000 1.0
C      1  0.4268520000000  0.4459630000000  0.5102530000000 1.0
C      1  0.3981290000000  0.4854130000000  0.5161980000000 1.0
C      1  0.5177510000000  0.5348720000000  0.5918560000000 1.0
C      1  0.4629680000000  0.4692390000000  0.4780660000000 1.0
C      1  0.5465420000000  0.5675310000000  0.4436400000000 1.0
C      1  0.4743250000000  0.4183170000000  0.5713190000000 1.0
C      1  0.5072040000000  0.4500940000000  0.5701690000000 1.0
C      1  0.4888890000000  0.4805870000000  0.4494910000000 1.0
C      1  0.4415840000000  0.5506750000000  0.4523990000000 1.0
C      1  0.4989770000000  0.5406940000000  0.4513030000000 1.0
C      1  0.4756050000000  0.5660440000000  0.5766270000000 1.0
C      1  0.4210300000000  0.4492260000000  0.4397740000000 1.0
C      1  0.4572770000000  0.4440370000000  0.5002130000000 1.0
C      1  0.5019410000000  0.4619430000000  0.3960750000000 1.0
C      1  0.4840000000000  0.4991540000000  0.5190270000000 1.0
C      1  0.4384500000000  0.5749930000000  0.5059960000000 1.0
C      1  0.4915970000000  0.5541950000000  0.4798020000000 1.0
C      1  0.5410330000000  0.4103860000000  0.5394390000000 1.0
C      1  0.5082890000000  0.4378250000000  0.4741510000000 1.0
C      1  0.4586320000000  0.4336210000000  0.5474580000000 1.0
C      1  0.4495100000000  0.6071420000000  0.5072330000000 1.0
C      1  0.4324080000000  0.4551050000000  0.4712720000000 1.0
C      1  0.4523470000000  0.4876970000000  0.4085870000000 1.0
C      1  0.4933770000000  0.4060250000000  0.5165460000000 1.0
C      1  0.5602730000000  0.5088710000000  0.5189860000000 1.0
C      1  0.5512080000000  0.4289590000000  0.5049680000000 1.0
C      1  0.5913230000000  0.5045730000000  0.5080920000000 1.0
C      1  0.5086260000000  0.5671590000000  0.4322570000000 1.0
C      1  0.4403290000000  0.3945240000000  0.5192780000000 1.0
C      1  0.5386640000000  0.4030310000000  0.4924480000000 1.0
C      1  0.4612490000000  0.5870560000000  0.5575510000000 1.0
C      1  0.4349410000000  0.4219800000000  0.5297110000000 1.0
C      1  0.5419830000000  0.4953820000000  0.5655800000000 1.0
C      1  0.5263230000000  0.4634010000000  0.4832030000000 1.0
C      1  0.4690800000000  0.4623300000000  0.4339930000000 1.0
C      1  0.4795030000000  0.5942080000000  0.5088430000000 1.0
C      1  0.5113290000000  0.4881860000000  0.3998270000000 1.0
C      1  0.4412000000000  0.5683250000000  0.5374640000000 1.0
C      1  0.5009050000000  0.5115330000000  0.6043710000000 1.0
C      1  0.4272410000000  0.4949170000000  0.4578370000000 1.0
C      1  0.5015990000000  0.4545140000000  0.5148260000000 1.0
C      1  0.5344520000000  0.5190420000000  0.4292790000000 1.0
C      1  0.5862450000000  0.4455660000000  0.4952990000000 1.0
C      1  0.5665960000000  0.4209190000000  0.5407530000000 1.0
C      1  0.5657950000000  0.5065180000000  0.4582140000000 1.0
C      1  0.4699780000000  0.5468860000000  0.4346410000000 1.0
C      1  0.4383960000000  0.4897540000000  0.4895720000000 1.0
C      1  0.5441620000000  0.4899820000000  0.4718080000000 1.0
C      1  0.5129690000000  0.4392980000000  0.4346880000000 1.0
C      1  0.5274860000000  0.4280830000000  0.5805770000000 1.0
C      1  0.5269950000000  0.5246080000000  0.4619000000000 1.0
C      1  0.4221450000000  0.5287710000000  0.4999100000000 1.0
C      1  0.5652090000000  0.4276880000000  0.4753610000000 1.0
C      1  0.4491020000000  0.5530350000000  0.4823050000000 1.0
C      1  0.5869050000000  0.5158280000000  0.5391040000000 1.0
C      1  0.4077740000000  0.4644080000000  0.4928260000000 1.0
C      1  0.5109120000000  0.5825010000000  0.5677300000000 1.0
C      1  0.5292230000000  0.5716310000000  0.5459950000000 1.0
C      1  0.5175440000000  0.4689130000000  0.4507800000000 1.0
C      1  0.5798070000000  0.5433130000000  0.4306480000000 1.0
C      1  0.5037980000000  0.5752550000000  0.5237090000000 1.0
C      1  0.5749660000000  0.5442530000000  0.5467480000000 1.0
C      1  0.5991550000000  0.4728090000000  0.4574930000000 1.0
C      1  0.4901760000000  0.4199620000000  0.4400060000000 1.0
C      1  0.5393980000000  0.4806360000000  0.5936290000000 1.0
C      1  0.5258010000000  0.4420650000000  0.4045370000000 1.0
C      1  0.5164630000000  0.5019230000000  0.4853190000000 1.0
C      1  0.4725250000000  0.5799500000000  0.4432950000000 1.0
C      1  0.5684740000000  0.5242140000000  0.5734390000000 1.0
C      1  0.4624890000000  0.4060980000000  0.4755440000000 1.0
C      1  0.5252490000000  0.4064680000000  0.5626470000000 1.0
C      1  0.4616460000000  0.5233730000000  0.5273880000000 1.0
C      1  0.5511430000000  0.4456040000000  0.4274370000000 1.0
C      1  0.4898690000000  0.5990500000000  0.5564630000000 1.0
C      1  0.4245120000000  0.4720920000000  0.5329040000000 1.0
C      1  0.4772970000000  0.4439420000000  0.4604030000000 1.0
C      1  0.4798500000000  0.5061030000000  0.5583880000000 1.0
C      1  0.4983540000000  0.4648950000000  0.5994830000000 1.0
C      1  0.5573140000000  0.5387520000000  0.4557510000000 1.0
C      1  0.4686730000000  0.4804960000000  0.5778780000000 1.0
C      1  0.5026010000000  0.5617400000000  0.5871350000000 1.0
C      1  0.4228330000000  0.4972000000000  0.5558380000000 1.0
C      1  0.4766470000000  0.5852510000000  0.4761650000000 1.0
C      1  0.5884910000000  0.4675580000000  0.5426690000000 1.0
C      1  0.5123640000000  0.5169950000000  0.5132040000000 1.0
C      1  0.5183380000000  0.6019520000000  0.5083930000000 1.0
C      1  0.5743270000000  0.4940470000000  0.5586630000000 1.0
C      1  0.5805530000000  0.5611730000000  0.5219480000000 1.0
C      1  0.4876190000000  0.5456990000000  0.4055930000000 1.0
C      1  0.4195560000000  0.5469810000000  0.5463080000000 1.0
C      1  0.4930610000000  0.5479130000000  0.5290470000000 1.0
C      1  0.5001260000000  0.5174600000000  0.3908690000000 1.0
C      1  0.4738880000000  0.4615300000000  0.4026980000000 1.0
C      1  0.4279380000000  0.5087510000000  0.4204510000000 1.0
C      1  0.5549570000000  0.4751000000000  0.4220470000000 1.0
C      1  0.5509120000000  0.4525020000000  0.5594130000000 1.0
C      1  0.4529790000000  0.5198540000000  0.4886310000000 1.0
C      1  0.4958750000000  0.5094890000000  0.4383200000000 1.0
C      1  0.4838600000000  0.5774970000000  0.4130450000000 1.0
C      1  0.4650800000000  0.4117760000000  0.5055290000000 1.0
C      1  0.4147020000000  0.5731530000000  0.4817040000000 1.0
C      1  0.5252620000000  0.5870070000000  0.4531890000000 1.0
C      1  0.4906760000000  0.4400730000000  0.5421870000000 1.0
C      1  0.4712840000000  0.5077740000000  0.5972350000000 1.0
C      1  0.4796200000000  0.5365320000000  0.5016240000000 1.0
C      1  0.5751610000000  0.4494870000000  0.4512330000000 1.0
C      1  0.4964950000000  0.4826140000000  0.5435810000000 1.0
C      1  0.5473160000000  0.4518180000000  0.5897010000000 1.0
C      1  0.4302380000000  0.5272990000000  0.5632370000000 1.0
C      1  0.4300000000000  0.4481970000000  0.5548000000000 1.0
C      1  0.5326880000000  0.4644270000000  0.5166150000000 1.0
C      1  0.4332860000000  0.5104840000000  0.5263320000000 1.0
C      1  0.5975120000000  0.5264710000000  0.4874790000000 1.0
C      1  0.5649180000000  0.5206650000000  0.4209600000000 1.0
C      1  0.4099900000000  0.5432110000000  0.4754430000000 1.0
C      1  0.4402280000000  0.4934700000000  0.5835950000000 1.0
C      1  0.4746710000000  0.4500420000000  0.5800770000000 1.0
C      1  0.6025340000000  0.5542530000000  0.5053170000000 1.0
C      1  0.4568410000000  0.5155780000000  0.4365460000000 1.0
C      1  0.5688250000000  0.4790570000000  0.5079360000000 1.0
C      1  0.5092310000000  0.5948600000000  0.4777450000000 1.0
C      1  0.5948430000000  0.4991720000000  0.4673610000000 1.0
C      1  0.5624120000000  0.4519300000000  0.5274190000000 1.0
C      1  0.4476190000000  0.4275490000000  0.4630080000000 1.0
C      1  0.4959920000000  0.6131610000000  0.5314970000000 1.0
C      1  0.5038980000000  0.5217790000000  0.5453000000000 1.0
C      1  0.5518800000000  0.5589560000000  0.5038100000000 1.0
C      1  0.5375600000000  0.5631400000000  0.4141880000000 1.0
C      1  0.5144030000000  0.4863370000000  0.6056880000000 1.0
C      1  0.4874900000000  0.4026560000000  0.4639540000000 1.0
C      1  0.4204870000000  0.5261800000000  0.4487000000000 1.0
C      1  0.5381730000000  0.4355010000000  0.4572000000000 1.0
C      1  0.5276960000000  0.5228580000000  0.5637860000000 1.0
C      1  0.4019320000000  0.4802050000000  0.4657910000000 1.0
C      1  0.4665620000000  0.5484860000000  0.5489470000000 1.0
C      1  0.5423250000000  0.5446230000000  0.5474600000000 1.0
C      1  0.5658900000000  0.4671950000000  0.4787380000000 1.0
END
