TITL C-2848499-1157-68 -0.00248529114257783 125000 -908.311237984566 0 0 160 (C1) n - 1
REM
REM in /home/bkarasulu/work/CARBON/AIRSS/Generating-Clusters/AIREBO/with-SteepDescent/Only-C1/SD-CG-opt/Try1-1.4A-POS3A/HFTN-CG
REM
REM
REM
REM
REM
REM ./C.cell (11c1c37f851c82e70ff6c80c92926a4b)
REM
REM compiler GCC version 9.2.1 20190827 (Red Hat 9.2.1-1)
REM options -cpp -mtune=generic -march=x86-64 -g -O0 -fpre-include=/usr/include/finclude/math-vector-fortran.h
REM seed -861474832 1187062712 -1307098636 -304808474 -998706426 642783093 -432912188 -1599098900 1650183436 1682894250 1245605673 991013657 -474477835 1911831620 2054469053 -1982625088 2127365562 666090132 -1183294386 -2116007698 -648648871 1552510440 -1321213971 35527383 618803108 255443711 1194265571 -1426287349 1004684536 421058479 760396894 -1220706088 1376998418
REM
CELL 1.54180   50.00000   50.00000   50.00000   90.00000   90.00000   90.00000
LATT -1
SFAC C  
C      1  0.4265980000000  0.4999550000000  0.6011200000000 1.0
C      1  0.4646260000000  0.5590250000000  0.4521660000000 1.0
C      1  0.4530130000000  0.5323730000000  0.5138230000000 1.0
C      1  0.4997060000000  0.5016920000000  0.6187230000000 1.0
C      1  0.5664250000000  0.4489610000000  0.5177970000000 1.0
C      1  0.5783180000000  0.4478530000000  0.5916100000000 1.0
C      1  0.4022730000000  0.4417040000000  0.4908910000000 1.0
C      1  0.5401370000000  0.5141430000000  0.4083420000000 1.0
C      1  0.5429950000000  0.4586520000000  0.4242160000000 1.0
C      1  0.3775960000000  0.4309910000000  0.4872910000000 1.0
C      1  0.5281910000000  0.4081820000000  0.5605870000000 1.0
C      1  0.5412960000000  0.5623600000000  0.4232410000000 1.0
C      1  0.4099650000000  0.5089740000000  0.4948090000000 1.0
C      1  0.4445000000000  0.4089960000000  0.4377200000000 1.0
C      1  0.5592480000000  0.4876110000000  0.4184080000000 1.0
C      1  0.4610730000000  0.4173760000000  0.4815610000000 1.0
C      1  0.5738580000000  0.5421300000000  0.4804300000000 1.0
C      1  0.5534370000000  0.4043130000000  0.5157420000000 1.0
C      1  0.5218760000000  0.5129920000000  0.6297370000000 1.0
C      1  0.5968100000000  0.5146900000000  0.5226630000000 1.0
C      1  0.5332340000000  0.5394110000000  0.5014400000000 1.0
C      1  0.4636870000000  0.4650530000000  0.5975730000000 1.0
C      1  0.5794820000000  0.5365950000000  0.4282490000000 1.0
C      1  0.5155750000000  0.4855980000000  0.4880990000000 1.0
C      1  0.5327830000000  0.6326570000000  0.5483000000000 1.0
C      1  0.4328560000000  0.5277630000000  0.5631950000000 1.0
C      1  0.4690050000000  0.5809880000000  0.5299610000000 1.0
C      1  0.4122510000000  0.5516000000000  0.5177550000000 1.0
C      1  0.4640520000000  0.4181730000000  0.5441550000000 1.0
C      1  0.4741550000000  0.5580380000000  0.5089520000000 1.0
C      1  0.4897850000000  0.6050190000000  0.4960010000000 1.0
C      1  0.4121560000000  0.5212850000000  0.5190330000000 1.0
C      1  0.4796780000000  0.5744460000000  0.5582600000000 1.0
C      1  0.4566670000000  0.5580600000000  0.6004940000000 1.0
C      1  0.4529280000000  0.5700200000000  0.5757920000000 1.0
C      1  0.4570270000000  0.4313360000000  0.4270610000000 1.0
C      1  0.4740960000000  0.4573230000000  0.4949890000000 1.0
C      1  0.5093560000000  0.4672740000000  0.5902170000000 1.0
C      1  0.5161270000000  0.3834160000000  0.5605940000000 1.0
C      1  0.5639380000000  0.4955000000000  0.5108950000000 1.0
C      1  0.5038920000000  0.4056030000000  0.4985800000000 1.0
C      1  0.5974080000000  0.4891020000000  0.5089630000000 1.0
C      1  0.5127670000000  0.4697930000000  0.4420360000000 1.0
C      1  0.4014830000000  0.5061960000000  0.4495320000000 1.0
C      1  0.4109630000000  0.4608440000000  0.4728920000000 1.0
C      1  0.5172170000000  0.6028030000000  0.4813690000000 1.0
C      1  0.4389280000000  0.5916950000000  0.5263830000000 1.0
C      1  0.4852090000000  0.5368690000000  0.4880150000000 1.0
C      1  0.4505160000000  0.4839270000000  0.5339260000000 1.0
C      1  0.5338470000000  0.4585360000000  0.4871380000000 1.0
C      1  0.4813960000000  0.5225160000000  0.4283620000000 1.0
C      1  0.5814660000000  0.5237890000000  0.4570240000000 1.0
C      1  0.4922090000000  0.4309140000000  0.4835550000000 1.0
C      1  0.4974290000000  0.3761130000000  0.5419080000000 1.0
C      1  0.5260580000000  0.4473420000000  0.5182080000000 1.0
C      1  0.5072320000000  0.5230010000000  0.4504690000000 1.0
C      1  0.5389610000000  0.5975550000000  0.5000400000000 1.0
C      1  0.4653300000000  0.4218740000000  0.5112780000000 1.0
C      1  0.5482800000000  0.4799000000000  0.4671850000000 1.0
C      1  0.5665820000000  0.5305960000000  0.5622940000000 1.0
C      1  0.4811270000000  0.4438950000000  0.4474940000000 1.0
C      1  0.5015660000000  0.4706210000000  0.5416920000000 1.0
C      1  0.5077460000000  0.5774270000000  0.5392160000000 1.0
C      1  0.5088770000000  0.4315620000000  0.3619090000000 1.0
C      1  0.4050140000000  0.5281770000000  0.4723550000000 1.0
C      1  0.4756880000000  0.4850970000000  0.5573860000000 1.0
C      1  0.5708020000000  0.4438190000000  0.4902680000000 1.0
C      1  0.4877170000000  0.5496580000000  0.5771870000000 1.0
C      1  0.5922400000000  0.5591410000000  0.4979760000000 1.0
C      1  0.5573280000000  0.4401870000000  0.4423690000000 1.0
C      1  0.5140710000000  0.4331710000000  0.5468100000000 1.0
C      1  0.4715960000000  0.5153270000000  0.4663030000000 1.0
C      1  0.5018720000000  0.3838090000000  0.4759220000000 1.0
C      1  0.4324830000000  0.5582420000000  0.5603440000000 1.0
C      1  0.4646100000000  0.6070940000000  0.5102050000000 1.0
C      1  0.5011800000000  0.5766190000000  0.5068320000000 1.0
C      1  0.4343640000000  0.5079870000000  0.4547790000000 1.0
C      1  0.5143160000000  0.4472640000000  0.3821710000000 1.0
C      1  0.4840720000000  0.4536810000000  0.5838580000000 1.0
C      1  0.5453280000000  0.4736440000000  0.5279260000000 1.0
C      1  0.4757910000000  0.5002920000000  0.5205170000000 1.0
C      1  0.5442220000000  0.4317930000000  0.4726010000000 1.0
C      1  0.4644420000000  0.5164960000000  0.5648190000000 1.0
C      1  0.5018310000000  0.5447560000000  0.4173990000000 1.0
C      1  0.4457160000000  0.5372340000000  0.4637850000000 1.0
C      1  0.4278120000000  0.4869120000000  0.4812620000000 1.0
C      1  0.4542190000000  0.5787840000000  0.4348570000000 1.0
C      1  0.4976580000000  0.4852950000000  0.4158140000000 1.0
C      1  0.5697170000000  0.4929410000000  0.4483170000000 1.0
C      1  0.4958130000000  0.4155210000000  0.4392500000000 1.0
C      1  0.4493260000000  0.5111900000000  0.4273840000000 1.0
C      1  0.4571080000000  0.4971830000000  0.5990100000000 1.0
C      1  0.5617480000000  0.3787810000000  0.5119950000000 1.0
C      1  0.5225000000000  0.6021430000000  0.5460120000000 1.0
C      1  0.5103930000000  0.5209580000000  0.4008790000000 1.0
C      1  0.5632980000000  0.4252230000000  0.5328720000000 1.0
C      1  0.4150950000000  0.5147530000000  0.5842260000000 1.0
C      1  0.5888910000000  0.5464260000000  0.5696800000000 1.0
C      1  0.4852370000000  0.3986610000000  0.5256100000000 1.0
C      1  0.5497410000000  0.5615330000000  0.4726620000000 1.0
C      1  0.4586320000000  0.3990980000000  0.4603070000000 1.0
C      1  0.4605110000000  0.5061740000000  0.4934900000000 1.0
C      1  0.5470080000000  0.5092910000000  0.6190280000000 1.0
C      1  0.4322440000000  0.4223780000000  0.5333990000000 1.0
C      1  0.4975490000000  0.4623690000000  0.4708720000000 1.0
C      1  0.5360620000000  0.4703860000000  0.5934500000000 1.0
C      1  0.4172330000000  0.4329400000000  0.5133600000000 1.0
C      1  0.5128220000000  0.5391830000000  0.5716020000000 1.0
C      1  0.4862360000000  0.3922360000000  0.4536560000000 1.0
C      1  0.4889240000000  0.4943030000000  0.5873320000000 1.0
C      1  0.4838510000000  0.4469350000000  0.5248940000000 1.0
C      1  0.5330090000000  0.5097820000000  0.4616750000000 1.0
C      1  0.5250950000000  0.5514190000000  0.5443280000000 1.0
C      1  0.5528860000000  0.5082030000000  0.5693860000000 1.0
C      1  0.4969780000000  0.5531350000000  0.4605740000000 1.0
C      1  0.5937590000000  0.5677540000000  0.5523830000000 1.0
C      1  0.4490600000000  0.5491520000000  0.3924290000000 1.0
C      1  0.4572050000000  0.4870060000000  0.3834390000000 1.0
C      1  0.5516630000000  0.4257140000000  0.5579600000000 1.0
C      1  0.5308090000000  0.4600650000000  0.5555130000000 1.0
C      1  0.5178420000000  0.5629510000000  0.4845710000000 1.0
C      1  0.4391540000000  0.4884690000000  0.4044090000000 1.0
C      1  0.4701510000000  0.5284510000000  0.5961340000000 1.0
C      1  0.5308690000000  0.4988200000000  0.5456720000000 1.0
C      1  0.5110260000000  0.5242400000000  0.5347410000000 1.0
C      1  0.5098990000000  0.5699740000000  0.4340110000000 1.0
C      1  0.5317420000000  0.4194190000000  0.5003390000000 1.0
C      1  0.6095580000000  0.4852630000000  0.4841930000000 1.0
C      1  0.5992030000000  0.4966060000000  0.4626000000000 1.0
C      1  0.4125130000000  0.4758850000000  0.4460840000000 1.0
C      1  0.5513960000000  0.5679290000000  0.5052890000000 1.0
C      1  0.5397100000000  0.6134440000000  0.5227360000000 1.0
C      1  0.4773080000000  0.5255450000000  0.5377030000000 1.0
C      1  0.4361030000000  0.5128550000000  0.5359490000000 1.0
C      1  0.4808800000000  0.4935790000000  0.4442250000000 1.0
C      1  0.4471820000000  0.6031730000000  0.4439560000000 1.0
C      1  0.5185350000000  0.4613700000000  0.4040740000000 1.0
C      1  0.4515940000000  0.5716550000000  0.4077270000000 1.0
C      1  0.4515230000000  0.4760480000000  0.5004640000000 1.0
C      1  0.5459580000000  0.5784710000000  0.4482110000000 1.0
C      1  0.5545270000000  0.5441300000000  0.5371590000000 1.0
C      1  0.5486930000000  0.4958880000000  0.5942120000000 1.0
C      1  0.4302130000000  0.5431890000000  0.4910010000000 1.0
C      1  0.5051080000000  0.5214190000000  0.5037300000000 1.0
C      1  0.5207560000000  0.5946150000000  0.4547940000000 1.0
C      1  0.4371590000000  0.4732270000000  0.4304230000000 1.0
C      1  0.5536130000000  0.4490630000000  0.5782810000000 1.0
C      1  0.4228790000000  0.5697070000000  0.5362240000000 1.0
C      1  0.5815080000000  0.4375650000000  0.4611710000000 1.0
C      1  0.5772710000000  0.5664870000000  0.5253740000000 1.0
C      1  0.5701210000000  0.5289380000000  0.5116140000000 1.0
C      1  0.4841740000000  0.5032030000000  0.3934460000000 1.0
C      1  0.4636370000000  0.4684290000000  0.4399480000000 1.0
C      1  0.4574930000000  0.5242590000000  0.3970770000000 1.0
C      1  0.4840600000000  0.4387040000000  0.5579880000000 1.0
C      1  0.5312110000000  0.4952660000000  0.4346510000000 1.0
C      1  0.5133010000000  0.5110460000000  0.5721290000000 1.0
C      1  0.5409600000000  0.5085700000000  0.4933260000000 1.0
C      1  0.5552790000000  0.5400750000000  0.4161290000000 1.0
C      1  0.5038510000000  0.4897610000000  0.5161580000000 1.0
END
