TITL C-2848500-1637-1 -0.000883090781853871 125000 -338.417918266266 0 0 62 (C1) n - 1
REM
REM in /home/bkarasulu/work/CARBON/AIRSS/Generating-Clusters/AIREBO/with-SteepDescent/Only-C1/SD-CG-opt/Try1-1.4A-POS3A/HFTN-CG
REM
REM
REM
REM
REM
REM ./C.cell (11c1c37f851c82e70ff6c80c92926a4b)
REM
REM compiler GCC version 9.2.1 20190827 (Red Hat 9.2.1-1)
REM options -cpp -mtune=generic -march=x86-64 -g -O0 -fpre-include=/usr/include/finclude/math-vector-fortran.h
REM seed 1375908155 -1005811681 576023479 1266522336 627712217 1832816066 1861294814 1657052185 -1074859195 856385649 -977172393 310522538 -444134178 -1226251678 -47077339 1456519278 187189958 -1131460180 823737860 -2110382634 -1463259617 -1272107538 685650306 910653695 -976211726 1880628808 -1296844292 1696745957 -2029075655 1189972683 453995028 1361596973 1718945898
REM
CELL 1.54180   50.00000   50.00000   50.00000   90.00000   90.00000   90.00000
LATT -1
SFAC C  
C      1  0.4394500000000  0.5111750000000  0.5195560000000 1.0
C      1  0.4818860000000  0.5398500000000  0.5757350000000 1.0
C      1  0.5209040000000  0.4548260000000  0.4809440000000 1.0
C      1  0.4627380000000  0.5114130000000  0.5443590000000 1.0
C      1  0.5211600000000  0.4997090000000  0.5039090000000 1.0
C      1  0.5108340000000  0.5302940000000  0.4655640000000 1.0
C      1  0.5054500000000  0.5298090000000  0.5057460000000 1.0
C      1  0.4488670000000  0.5112040000000  0.4904630000000 1.0
C      1  0.5056550000000  0.5020240000000  0.4737320000000 1.0
C      1  0.5146290000000  0.5433880000000  0.5530360000000 1.0
C      1  0.4734460000000  0.4769180000000  0.5975120000000 1.0
C      1  0.4141350000000  0.5459590000000  0.4841560000000 1.0
C      1  0.5605890000000  0.5073590000000  0.4454130000000 1.0
C      1  0.5461540000000  0.4339490000000  0.4715200000000 1.0
C      1  0.5490090000000  0.5212000000000  0.5359210000000 1.0
C      1  0.5218140000000  0.4394230000000  0.4506450000000 1.0
C      1  0.5126810000000  0.4836410000000  0.5326510000000 1.0
C      1  0.4654360000000  0.4655420000000  0.5033200000000 1.0
C      1  0.4922970000000  0.4549870000000  0.4503760000000 1.0
C      1  0.4493620000000  0.4554440000000  0.4681320000000 1.0
C      1  0.5223350000000  0.4791340000000  0.4607150000000 1.0
C      1  0.5605790000000  0.4574490000000  0.4841060000000 1.0
C      1  0.4500810000000  0.4633080000000  0.5272220000000 1.0
C      1  0.5325140000000  0.5019420000000  0.5746130000000 1.0
C      1  0.4959740000000  0.4357860000000  0.5152800000000 1.0
C      1  0.5058670000000  0.5179070000000  0.5714830000000 1.0
C      1  0.5133490000000  0.4963700000000  0.4165250000000 1.0
C      1  0.4902220000000  0.5540430000000  0.4682470000000 1.0
C      1  0.5089180000000  0.4617630000000  0.5066720000000 1.0
C      1  0.4803330000000  0.5578160000000  0.4404580000000 1.0
C      1  0.4894740000000  0.4878580000000  0.5003550000000 1.0
C      1  0.4812440000000  0.4277400000000  0.4917420000000 1.0
C      1  0.5532100000000  0.4841000000000  0.4646920000000 1.0
C      1  0.4965200000000  0.5440910000000  0.4219570000000 1.0
C      1  0.4740020000000  0.4406730000000  0.4668110000000 1.0
C      1  0.5027530000000  0.4340060000000  0.5431090000000 1.0
C      1  0.4291040000000  0.5258510000000  0.4729740000000 1.0
C      1  0.5026940000000  0.5493470000000  0.5294370000000 1.0
C      1  0.5038270000000  0.5753300000000  0.4907220000000 1.0
C      1  0.5310490000000  0.5675070000000  0.4971750000000 1.0
C      1  0.5388390000000  0.5299820000000  0.4459030000000 1.0
C      1  0.4411640000000  0.4867490000000  0.5391960000000 1.0
C      1  0.4493770000000  0.4817340000000  0.4823910000000 1.0
C      1  0.4828780000000  0.4713300000000  0.5724000000000 1.0
C      1  0.5522260000000  0.4952460000000  0.4937240000000 1.0
C      1  0.4759780000000  0.5250220000000  0.4911810000000 1.0
C      1  0.4282930000000  0.5197200000000  0.4462320000000 1.0
C      1  0.5302840000000  0.4400760000000  0.5487420000000 1.0
C      1  0.4745080000000  0.5572460000000  0.5319900000000 1.0
C      1  0.4657080000000  0.5403860000000  0.5530020000000 1.0
C      1  0.5452930000000  0.4980830000000  0.5507110000000 1.0
C      1  0.4907570000000  0.4945290000000  0.5537520000000 1.0
C      1  0.5391000000000  0.5428550000000  0.4772300000000 1.0
C      1  0.5422150000000  0.4674000000000  0.5371400000000 1.0
C      1  0.5123610000000  0.4728410000000  0.4320170000000 1.0
C      1  0.5601900000000  0.4604180000000  0.5114880000000 1.0
C      1  0.5380790000000  0.5369050000000  0.5106940000000 1.0
C      1  0.5153400000000  0.5235070000000  0.4248990000000 1.0
C      1  0.5758480000000  0.4992350000000  0.5047180000000 1.0
C      1  0.4590170000000  0.5737330000000  0.4343750000000 1.0
C      1  0.4772160000000  0.5573150000000  0.4996490000000 1.0
C      1  0.4847790000000  0.4455570000000  0.5615800000000 1.0
END
