TITL C-2848501-3133-603 0.000603485709555397 125000 -215.496552492001 0 0 39 (C1) n - 1
REM
REM in /home/bkarasulu/work/CARBON/AIRSS/Generating-Clusters/AIREBO/with-SteepDescent/Only-C1/SD-CG-opt/Try1-1.4A-POS3A/HFTN-CG
REM
REM
REM
REM
REM
REM ./C.cell (11c1c37f851c82e70ff6c80c92926a4b)
REM
REM compiler GCC version 9.2.1 20190827 (Red Hat 9.2.1-1)
REM options -cpp -mtune=generic -march=x86-64 -g -O0 -fpre-include=/usr/include/finclude/math-vector-fortran.h
REM seed -1414181616 -391118524 1284423946 -722120677 -1443914844 1827071200 407772723 811672799 -1425281311 451364362 -1798230886 -1061038743 -1893058031 1036098274 1315701194 413781021 -1880010411 1542307007 435464162 -187335952 675845953 862264211 -177197741 -656083051 -1099975931 1353250931 -538427860 -1682127919 -1676592273 626192471 -1889183377 -1224343434 319636021
REM
CELL 1.54180   50.00000   50.00000   50.00000   90.00000   90.00000   90.00000
LATT -1
SFAC C  
C      1  0.4444220000000  0.4832100000000  0.4956050000000 1.0
C      1  0.4738530000000  0.5161810000000  0.5531830000000 1.0
C      1  0.4412930000000  0.5064360000000  0.5069540000000 1.0
C      1  0.4698980000000  0.5425200000000  0.4854030000000 1.0
C      1  0.4670690000000  0.4679400000000  0.4813350000000 1.0
C      1  0.5187250000000  0.5408420000000  0.4853670000000 1.0
C      1  0.5170460000000  0.4347840000000  0.4756970000000 1.0
C      1  0.4850140000000  0.5168010000000  0.4783660000000 1.0
C      1  0.4999030000000  0.5274270000000  0.5070400000000 1.0
C      1  0.5103380000000  0.4132980000000  0.4973940000000 1.0
C      1  0.5454550000000  0.4920720000000  0.5132520000000 1.0
C      1  0.5225770000000  0.4543100000000  0.5359050000000 1.0
C      1  0.4577530000000  0.4426770000000  0.4673590000000 1.0
C      1  0.5043000000000  0.4695950000000  0.4423170000000 1.0
C      1  0.4496250000000  0.5253520000000  0.5325380000000 1.0
C      1  0.4963160000000  0.4815900000000  0.5232450000000 1.0
C      1  0.5204940000000  0.5270440000000  0.5450950000000 1.0
C      1  0.5082080000000  0.5639430000000  0.4636660000000 1.0
C      1  0.5482560000000  0.4671020000000  0.4630830000000 1.0
C      1  0.5153990000000  0.4452880000000  0.5079960000000 1.0
C      1  0.4471430000000  0.5370290000000  0.5007020000000 1.0
C      1  0.4968870000000  0.4683500000000  0.4952000000000 1.0
C      1  0.4929470000000  0.4942630000000  0.5544520000000 1.0
C      1  0.5452630000000  0.4842640000000  0.4873100000000 1.0
C      1  0.5391930000000  0.4781440000000  0.5396240000000 1.0
C      1  0.5156080000000  0.4905980000000  0.4233730000000 1.0
C      1  0.5164660000000  0.4878890000000  0.4754220000000 1.0
C      1  0.4874440000000  0.5685630000000  0.5428610000000 1.0
C      1  0.5170760000000  0.5054080000000  0.5206420000000 1.0
C      1  0.5170850000000  0.5068690000000  0.4489210000000 1.0
C      1  0.5134700000000  0.5327560000000  0.4552900000000 1.0
C      1  0.4803460000000  0.5388200000000  0.5291210000000 1.0
C      1  0.4995350000000  0.5697300000000  0.5126860000000 1.0
C      1  0.4965160000000  0.4608250000000  0.5507450000000 1.0
C      1  0.4847020000000  0.4881140000000  0.4630290000000 1.0
C      1  0.5237360000000  0.4533340000000  0.4563720000000 1.0
C      1  0.5164650000000  0.5534250000000  0.5377820000000 1.0
C      1  0.5265470000000  0.4975740000000  0.5584730000000 1.0
C      1  0.4876280000000  0.5656310000000  0.4871930000000 1.0
END
