TITL C-2847959-7740-518 0.00446624721443292 125000 -995.214716835549 0 0 188 (C1) n - 1
REM
REM in /home/bkarasulu/work/CARBON/AIRSS/Generating-Clusters/AIREBO/with-SteepDescent/Only-C1/SD-CG-opt/Try1-1.4A-POS3A/HFTN-CG
REM
REM
REM
REM
REM
REM ./C.cell (11c1c37f851c82e70ff6c80c92926a4b)
REM
REM compiler GCC version 9.2.1 20190827 (Red Hat 9.2.1-1)
REM options -cpp -mtune=generic -march=x86-64 -g -O0 -fpre-include=/usr/include/finclude/math-vector-fortran.h
REM seed 1318839745 -2103440996 1214803857 512752709 1855066920 -298900967 -1879222339 1174109502 -998549444 -886140664 -461409098 1968427342 2088915356 -803940824 532281524 258695654 1084237419 -2014760032 -2019621791 -39084018 -1799524897 665794503 -1117794764 -1749818831 -709208158 1172462842 -1448069982 7518165 1322131979 -1371532888 1955444110 1182116522 -1908799185
REM
CELL 1.54180   50.00000   50.00000   50.00000   90.00000   90.00000   90.00000
LATT -1
SFAC C  
C      1  0.5209010000000  0.5320720000000  0.4435170000000 1.0
C      1  0.5304700000000  0.5082920000000  0.6189470000000 1.0
C      1  0.4042910000000  0.5159040000000  0.4501210000000 1.0
C      1  0.5455250000000  0.5524320000000  0.5798240000000 1.0
C      1  0.5336830000000  0.5685470000000  0.4907830000000 1.0
C      1  0.4986500000000  0.5492420000000  0.5590790000000 1.0
C      1  0.4451420000000  0.5293930000000  0.6008200000000 1.0
C      1  0.4574860000000  0.5609950000000  0.3965840000000 1.0
C      1  0.4801410000000  0.4704060000000  0.4101760000000 1.0
C      1  0.4563170000000  0.5447890000000  0.4738310000000 1.0
C      1  0.5233510000000  0.5420630000000  0.4049810000000 1.0
C      1  0.5574020000000  0.4662630000000  0.5773610000000 1.0
C      1  0.5037060000000  0.5253480000000  0.6065020000000 1.0
C      1  0.5188670000000  0.4328080000000  0.4731570000000 1.0
C      1  0.5379930000000  0.4631800000000  0.5291240000000 1.0
C      1  0.4241250000000  0.5499690000000  0.4719050000000 1.0
C      1  0.5730990000000  0.5273200000000  0.5067670000000 1.0
C      1  0.5334730000000  0.5221920000000  0.5699110000000 1.0
C      1  0.4889640000000  0.5376030000000  0.4331510000000 1.0
C      1  0.5314930000000  0.4892020000000  0.5473270000000 1.0
C      1  0.5013720000000  0.3809300000000  0.5574840000000 1.0
C      1  0.5646380000000  0.4367290000000  0.5808990000000 1.0
C      1  0.4105830000000  0.5435180000000  0.4985560000000 1.0
C      1  0.5596690000000  0.4665870000000  0.4879410000000 1.0
C      1  0.4989980000000  0.3942380000000  0.4527450000000 1.0
C      1  0.4203180000000  0.5013410000000  0.5436110000000 1.0
C      1  0.4836110000000  0.6025010000000  0.4837140000000 1.0
C      1  0.5096940000000  0.4764050000000  0.6078610000000 1.0
C      1  0.4489740000000  0.5959780000000  0.5577510000000 1.0
C      1  0.6039290000000  0.5717670000000  0.4795980000000 1.0
C      1  0.5427280000000  0.4678390000000  0.4059570000000 1.0
C      1  0.5493220000000  0.5329380000000  0.4248300000000 1.0
C      1  0.5255270000000  0.4971770000000  0.5871960000000 1.0
C      1  0.4571600000000  0.5445560000000  0.4232760000000 1.0
C      1  0.5210060000000  0.4667950000000  0.4783400000000 1.0
C      1  0.5443290000000  0.4196400000000  0.5749670000000 1.0
C      1  0.5870480000000  0.4454730000000  0.5089790000000 1.0
C      1  0.4971550000000  0.5213150000000  0.4052090000000 1.0
C      1  0.4559180000000  0.4138850000000  0.5448950000000 1.0
C      1  0.5288970000000  0.4317700000000  0.5259650000000 1.0
C      1  0.4597520000000  0.6085200000000  0.5005440000000 1.0
C      1  0.5148200000000  0.5715830000000  0.5156600000000 1.0
C      1  0.4942040000000  0.3818230000000  0.5136270000000 1.0
C      1  0.6073660000000  0.5114920000000  0.5336500000000 1.0
C      1  0.5303720000000  0.5731520000000  0.5635370000000 1.0
C      1  0.5464930000000  0.4568890000000  0.4581280000000 1.0
C      1  0.3917840000000  0.5167720000000  0.4994890000000 1.0
C      1  0.4019290000000  0.4829630000000  0.4456240000000 1.0
C      1  0.6030700000000  0.4737950000000  0.5017380000000 1.0
C      1  0.4693160000000  0.5018730000000  0.4030800000000 1.0
C      1  0.5006680000000  0.5807890000000  0.5716080000000 1.0
C      1  0.5593880000000  0.5122700000000  0.6015090000000 1.0
C      1  0.5426630000000  0.4381190000000  0.4955240000000 1.0
C      1  0.5789100000000  0.4727110000000  0.4419120000000 1.0
C      1  0.5374960000000  0.5001770000000  0.4996920000000 1.0
C      1  0.4826420000000  0.5674480000000  0.5388380000000 1.0
C      1  0.4708430000000  0.4113310000000  0.4944320000000 1.0
C      1  0.4574430000000  0.4664750000000  0.5553680000000 1.0
C      1  0.4051030000000  0.5372300000000  0.5376510000000 1.0
C      1  0.4360820000000  0.4775310000000  0.4673040000000 1.0
C      1  0.5990660000000  0.5474880000000  0.4980840000000 1.0
C      1  0.5901450000000  0.4646220000000  0.4729710000000 1.0
C      1  0.5726640000000  0.5594840000000  0.5824740000000 1.0
C      1  0.3912880000000  0.5097830000000  0.5280510000000 1.0
C      1  0.5148610000000  0.6154350000000  0.5140900000000 1.0
C      1  0.5344280000000  0.5388510000000  0.6062410000000 1.0
C      1  0.5150150000000  0.5254070000000  0.5451500000000 1.0
C      1  0.4601420000000  0.5528920000000  0.5269770000000 1.0
C      1  0.5978490000000  0.4952450000000  0.5537670000000 1.0
C      1  0.4369780000000  0.5595450000000  0.4420850000000 1.0
C      1  0.5360020000000  0.6027350000000  0.4708500000000 1.0
C      1  0.5462510000000  0.5373900000000  0.4882890000000 1.0
C      1  0.5712960000000  0.4208580000000  0.4925530000000 1.0
C      1  0.5572220000000  0.5425900000000  0.4564890000000 1.0
C      1  0.5198100000000  0.4768430000000  0.5073470000000 1.0
C      1  0.4057430000000  0.5461620000000  0.4440750000000 1.0
C      1  0.4195820000000  0.5757770000000  0.5045540000000 1.0
C      1  0.4471830000000  0.4001800000000  0.5150120000000 1.0
C      1  0.4270810000000  0.5584700000000  0.5328420000000 1.0
C      1  0.5717460000000  0.5314710000000  0.5406280000000 1.0
C      1  0.4293780000000  0.5074810000000  0.5715000000000 1.0
C      1  0.4867020000000  0.3914610000000  0.5806750000000 1.0
C      1  0.5975130000000  0.5085240000000  0.5803240000000 1.0
C      1  0.5266870000000  0.4115250000000  0.4513570000000 1.0
C      1  0.4676330000000  0.5246420000000  0.5258900000000 1.0
C      1  0.5682560000000  0.4837040000000  0.6010570000000 1.0
C      1  0.4735580000000  0.4452100000000  0.4955360000000 1.0
C      1  0.6013420000000  0.4930140000000  0.4579450000000 1.0
C      1  0.4715850000000  0.5844770000000  0.3973270000000 1.0
C      1  0.5594770000000  0.4478650000000  0.4292200000000 1.0
C      1  0.4397780000000  0.4805550000000  0.5303120000000 1.0
C      1  0.4952470000000  0.3923800000000  0.4848020000000 1.0
C      1  0.4183970000000  0.5239420000000  0.4035930000000 1.0
C      1  0.5071500000000  0.4904820000000  0.4033400000000 1.0
C      1  0.4399920000000  0.4819110000000  0.4129460000000 1.0
C      1  0.4918150000000  0.4337040000000  0.5524590000000 1.0
C      1  0.4775470000000  0.5713340000000  0.4728420000000 1.0
C      1  0.5970830000000  0.5025130000000  0.5073630000000 1.0
C      1  0.4278570000000  0.5202500000000  0.5163730000000 1.0
C      1  0.5382280000000  0.5763980000000  0.5366790000000 1.0
C      1  0.4667680000000  0.6048090000000  0.5306440000000 1.0
C      1  0.4861510000000  0.4691720000000  0.5961310000000 1.0
C      1  0.4449390000000  0.4420720000000  0.5398280000000 1.0
C      1  0.5658620000000  0.5142270000000  0.5681640000000 1.0
C      1  0.4347200000000  0.5076690000000  0.4516060000000 1.0
C      1  0.4356800000000  0.4452230000000  0.5125070000000 1.0
C      1  0.6105870000000  0.5387160000000  0.5353330000000 1.0
C      1  0.4937760000000  0.4890390000000  0.5177050000000 1.0
C      1  0.5287130000000  0.3940680000000  0.4784350000000 1.0
C      1  0.5437170000000  0.4030680000000  0.4048390000000 1.0
C      1  0.4149980000000  0.4250640000000  0.4945650000000 1.0
C      1  0.3997970000000  0.4547660000000  0.4993120000000 1.0
C      1  0.4906470000000  0.4659360000000  0.5632690000000 1.0
C      1  0.3895420000000  0.5010100000000  0.4752750000000 1.0
C      1  0.4264010000000  0.4756860000000  0.5005510000000 1.0
C      1  0.5511030000000  0.4958160000000  0.4727960000000 1.0
C      1  0.6022370000000  0.5187480000000  0.4811490000000 1.0
C      1  0.4641250000000  0.4805710000000  0.4510900000000 1.0
C      1  0.5238540000000  0.4668910000000  0.5718220000000 1.0
C      1  0.4856670000000  0.5305420000000  0.5812450000000 1.0
C      1  0.5241610000000  0.4257680000000  0.5590170000000 1.0
C      1  0.4982780000000  0.4961330000000  0.5496170000000 1.0
C      1  0.5936440000000  0.4324870000000  0.4718980000000 1.0
C      1  0.5371710000000  0.4228490000000  0.4268550000000 1.0
C      1  0.5850540000000  0.5594450000000  0.5266850000000 1.0
C      1  0.4871990000000  0.4040530000000  0.5364490000000 1.0
C      1  0.4768190000000  0.4219780000000  0.4209350000000 1.0
C      1  0.5140950000000  0.4789520000000  0.4327180000000 1.0
C      1  0.4717360000000  0.5144400000000  0.6084900000000 1.0
C      1  0.4375040000000  0.4109160000000  0.4537310000000 1.0
C      1  0.5100110000000  0.6114370000000  0.4871820000000 1.0
C      1  0.5747780000000  0.5139220000000  0.4616870000000 1.0
C      1  0.5161190000000  0.5768400000000  0.4641260000000 1.0
C      1  0.4534200000000  0.5055930000000  0.5025820000000 1.0
C      1  0.4398520000000  0.4075820000000  0.4824440000000 1.0
C      1  0.5208960000000  0.4484300000000  0.4193380000000 1.0
C      1  0.4479140000000  0.5359700000000  0.5698410000000 1.0
C      1  0.4762060000000  0.5094660000000  0.4424090000000 1.0
C      1  0.5551300000000  0.5765340000000  0.4566580000000 1.0
C      1  0.5585250000000  0.5907850000000  0.4935760000000 1.0
C      1  0.5185060000000  0.5718900000000  0.4097390000000 1.0
C      1  0.4417500000000  0.5656410000000  0.5599960000000 1.0
C      1  0.4462480000000  0.4833520000000  0.5793750000000 1.0
C      1  0.4696320000000  0.5687570000000  0.5783150000000 1.0
C      1  0.4425490000000  0.5152250000000  0.4192600000000 1.0
C      1  0.4342780000000  0.3863200000000  0.5432500000000 1.0
C      1  0.4667240000000  0.4752270000000  0.5102330000000 1.0
C      1  0.4963620000000  0.4388550000000  0.5190880000000 1.0
C      1  0.4903880000000  0.5700880000000  0.4429460000000 1.0
C      1  0.5381610000000  0.4003340000000  0.5232160000000 1.0
C      1  0.5667020000000  0.5114450000000  0.4129930000000 1.0
C      1  0.4646310000000  0.4857060000000  0.6003490000000 1.0
C      1  0.4816200000000  0.3974690000000  0.4325580000000 1.0
C      1  0.5153480000000  0.5316480000000  0.4753030000000 1.0
C      1  0.5194580000000  0.3812880000000  0.5317230000000 1.0
C      1  0.4891540000000  0.4462730000000  0.4664020000000 1.0
C      1  0.5337100000000  0.5006520000000  0.4461100000000 1.0
C      1  0.4932770000000  0.5846570000000  0.4146150000000 1.0
C      1  0.4939600000000  0.4415310000000  0.4061930000000 1.0
C      1  0.4164170000000  0.5190930000000  0.6007150000000 1.0
C      1  0.5488060000000  0.3986680000000  0.4973640000000 1.0
C      1  0.4445870000000  0.4471530000000  0.4800110000000 1.0
C      1  0.4272410000000  0.4685020000000  0.4357080000000 1.0
C      1  0.4396750000000  0.4390370000000  0.4414700000000 1.0
C      1  0.5279660000000  0.5260410000000  0.5146390000000 1.0
C      1  0.4969610000000  0.5531710000000  0.4941370000000 1.0
C      1  0.5895840000000  0.5417810000000  0.4460570000000 1.0
C      1  0.4713580000000  0.5161610000000  0.5551660000000 1.0
C      1  0.4969740000000  0.5945010000000  0.5288770000000 1.0
C      1  0.4372310000000  0.5962540000000  0.4872400000000 1.0
C      1  0.4712130000000  0.4511610000000  0.4374660000000 1.0
C      1  0.4494870000000  0.5608180000000  0.5002160000000 1.0
C      1  0.4729240000000  0.4147390000000  0.5743290000000 1.0
C      1  0.4608350000000  0.5142650000000  0.4723650000000 1.0
C      1  0.5682570000000  0.4696140000000  0.5207250000000 1.0
C      1  0.4149650000000  0.4436960000000  0.4643870000000 1.0
C      1  0.4796090000000  0.6042850000000  0.5631150000000 1.0
C      1  0.5822490000000  0.5867890000000  0.4722090000000 1.0
C      1  0.4952540000000  0.5216790000000  0.5082800000000 1.0
C      1  0.4936080000000  0.5070650000000  0.4779030000000 1.0
C      1  0.4467020000000  0.5821410000000  0.4634500000000 1.0
C      1  0.4967500000000  0.4788870000000  0.4604920000000 1.0
C      1  0.5631000000000  0.5798730000000  0.5227360000000 1.0
C      1  0.3910590000000  0.4670170000000  0.4711380000000 1.0
C      1  0.5656020000000  0.4847630000000  0.5511640000000 1.0
C      1  0.5292090000000  0.4829460000000  0.3841410000000 1.0
C      1  0.5295070000000  0.5644870000000  0.4378350000000 1.0
C      1  0.5567440000000  0.4874420000000  0.4258750000000 1.0
END
