TITL C-2848498-1409-109 -0.000169069446186268 125000 -327.655895355549 0 0 60 (C1) n - 1
REM
REM in /home/bkarasulu/work/CARBON/AIRSS/Generating-Clusters/AIREBO/with-SteepDescent/Only-C1/SD-CG-opt/Try1-1.4A-POS3A/HFTN-CG
REM
REM
REM
REM
REM
REM ./C.cell (11c1c37f851c82e70ff6c80c92926a4b)
REM
REM compiler GCC version 9.2.1 20190827 (Red Hat 9.2.1-1)
REM options -cpp -mtune=generic -march=x86-64 -g -O0 -fpre-include=/usr/include/finclude/math-vector-fortran.h
REM seed 147103680 1118792602 1369855949 -32285719 1008854463 -773735366 -1224670077 399884561 173006174 -1695587752 1270571081 -1941521578 -1684413127 -2045524226 -780003690 373913363 29216993 1522066445 -1089888079 -1839794622 -878677128 -57839945 157700888 1464492451 -1822503875 906723881 -134895627 -727981437 784927988 706443174 1734959051 150508508 169817201
REM
CELL 1.54180   50.00000   50.00000   50.00000   90.00000   90.00000   90.00000
LATT -1
SFAC C  
C      1  0.5170740000000  0.4860420000000  0.5532210000000 1.0
C      1  0.5450090000000  0.5619050000000  0.5347410000000 1.0
C      1  0.4616150000000  0.4870830000000  0.4394050000000 1.0
C      1  0.5512550000000  0.5071470000000  0.4576810000000 1.0
C      1  0.4675620000000  0.4933960000000  0.4928120000000 1.0
C      1  0.4245430000000  0.4885610000000  0.4777380000000 1.0
C      1  0.5706600000000  0.5533710000000  0.5161330000000 1.0
C      1  0.4746100000000  0.4637590000000  0.5370650000000 1.0
C      1  0.4999260000000  0.5176980000000  0.4291470000000 1.0
C      1  0.4507810000000  0.4401790000000  0.4968300000000 1.0
C      1  0.5341000000000  0.4861320000000  0.4382540000000 1.0
C      1  0.5283760000000  0.5158600000000  0.5497020000000 1.0
C      1  0.5236690000000  0.5226090000000  0.4490200000000 1.0
C      1  0.4493040000000  0.5340530000000  0.5475280000000 1.0
C      1  0.4993200000000  0.4480550000000  0.5282660000000 1.0
C      1  0.5673790000000  0.5046330000000  0.5193010000000 1.0
C      1  0.5361050000000  0.4374140000000  0.5167920000000 1.0
C      1  0.4881860000000  0.4500410000000  0.4691250000000 1.0
C      1  0.5053100000000  0.4795380000000  0.4486730000000 1.0
C      1  0.4605710000000  0.5529030000000  0.4566900000000 1.0
C      1  0.4818330000000  0.5006770000000  0.4180180000000 1.0
C      1  0.4765480000000  0.4329360000000  0.4898920000000 1.0
C      1  0.4478810000000  0.4551670000000  0.5245770000000 1.0
C      1  0.4989300000000  0.5687740000000  0.5029700000000 1.0
C      1  0.4268200000000  0.5310060000000  0.4967400000000 1.0
C      1  0.5616000000000  0.5097020000000  0.5458860000000 1.0
C      1  0.5735970000000  0.5221520000000  0.4742710000000 1.0
C      1  0.4095740000000  0.5089530000000  0.4911900000000 1.0
C      1  0.4427730000000  0.4724200000000  0.4956730000000 1.0
C      1  0.5010980000000  0.5364080000000  0.5446770000000 1.0
C      1  0.4527430000000  0.5288090000000  0.4773180000000 1.0
C      1  0.4313020000000  0.5419900000000  0.5214750000000 1.0
C      1  0.5191930000000  0.5557800000000  0.4894920000000 1.0
C      1  0.4856480000000  0.5327890000000  0.4549340000000 1.0
C      1  0.4982610000000  0.4485190000000  0.4366860000000 1.0
C      1  0.5396380000000  0.5446890000000  0.5074580000000 1.0
C      1  0.4781160000000  0.5249320000000  0.4990330000000 1.0
C      1  0.4745980000000  0.5182180000000  0.5468720000000 1.0
C      1  0.5429330000000  0.4887940000000  0.5075410000000 1.0
C      1  0.5464420000000  0.4819770000000  0.4766880000000 1.0
C      1  0.5260220000000  0.4688550000000  0.5249540000000 1.0
C      1  0.5424780000000  0.4114760000000  0.5083240000000 1.0
C      1  0.4934590000000  0.4271200000000  0.5117460000000 1.0
C      1  0.5352000000000  0.5357650000000  0.5764190000000 1.0
C      1  0.4672780000000  0.4578140000000  0.4433060000000 1.0
C      1  0.5266910000000  0.5554360000000  0.5545330000000 1.0
C      1  0.5350960000000  0.4608640000000  0.5630340000000 1.0
C      1  0.4558090000000  0.5600880000000  0.5299740000000 1.0
C      1  0.5454280000000  0.4431390000000  0.5483850000000 1.0
C      1  0.5296340000000  0.5172160000000  0.5157470000000 1.0
C      1  0.5072580000000  0.4756540000000  0.4813090000000 1.0
C      1  0.4740040000000  0.4942380000000  0.5241140000000 1.0
C      1  0.4422490000000  0.5028870000000  0.4594990000000 1.0
C      1  0.5326190000000  0.4554280000000  0.4883700000000 1.0
C      1  0.5056300000000  0.5052950000000  0.4952230000000 1.0
C      1  0.4869610000000  0.4878710000000  0.5551000000000 1.0
C      1  0.4818180000000  0.4998800000000  0.4625730000000 1.0
C      1  0.4827940000000  0.5482060000000  0.5197630000000 1.0
C      1  0.5748740000000  0.5264260000000  0.5025750000000 1.0
C      1  0.5098140000000  0.5312680000000  0.4755380000000 1.0
END
