TITL C-2848496-4490-698 -0.00153051163071219 125000 -756.374565153047 0 0 142 (C1) n - 1
REM
REM in /home/bkarasulu/work/CARBON/AIRSS/Generating-Clusters/AIREBO/with-SteepDescent/Only-C1/SD-CG-opt/Try1-1.4A-POS3A/HFTN-CG
REM
REM
REM
REM
REM
REM ./C.cell (11c1c37f851c82e70ff6c80c92926a4b)
REM
REM compiler GCC version 9.2.1 20190827 (Red Hat 9.2.1-1)
REM options -cpp -mtune=generic -march=x86-64 -g -O0 -fpre-include=/usr/include/finclude/math-vector-fortran.h
REM seed -840474634 -221288323 -363321492 -1100702425 1154859199 -1195752253 533503913 -1016846909 -1790659295 190490386 -1126374631 -881612882 -1994800370 171804932 1924923815 190804279 913428947 -1307093568 -1753648189 241171524 -749389841 545559483 567415433 1348430574 -2113457465 622649626 296851154 -740045837 1200566221 -169113959 455050924 194176684 2043827578
REM
CELL 1.54180   50.00000   50.00000   50.00000   90.00000   90.00000   90.00000
LATT -1
SFAC C  
C      1  0.4948590000000  0.5488960000000  0.5466070000000 1.0
C      1  0.4505020000000  0.5585590000000  0.5400060000000 1.0
C      1  0.4838730000000  0.5500810000000  0.4859060000000 1.0
C      1  0.5520950000000  0.4494250000000  0.4277640000000 1.0
C      1  0.4300250000000  0.4623060000000  0.5798040000000 1.0
C      1  0.5384260000000  0.5657880000000  0.5702270000000 1.0
C      1  0.5460410000000  0.6013490000000  0.4796710000000 1.0
C      1  0.4380150000000  0.5279620000000  0.4208290000000 1.0
C      1  0.5269790000000  0.5556990000000  0.5454710000000 1.0
C      1  0.5926390000000  0.5510850000000  0.5122870000000 1.0
C      1  0.5293740000000  0.4561560000000  0.4122720000000 1.0
C      1  0.5659470000000  0.4346160000000  0.4935850000000 1.0
C      1  0.4693790000000  0.5646830000000  0.5114750000000 1.0
C      1  0.4802470000000  0.4140040000000  0.5243710000000 1.0
C      1  0.4614050000000  0.5088990000000  0.4051360000000 1.0
C      1  0.4839570000000  0.4936960000000  0.4104190000000 1.0
C      1  0.3912280000000  0.5004190000000  0.4949940000000 1.0
C      1  0.4383060000000  0.4427410000000  0.5532040000000 1.0
C      1  0.5062620000000  0.4024150000000  0.5195170000000 1.0
C      1  0.5472310000000  0.5882230000000  0.5272200000000 1.0
C      1  0.5356270000000  0.4844530000000  0.5778940000000 1.0
C      1  0.5708990000000  0.5005700000000  0.4401620000000 1.0
C      1  0.4976900000000  0.4584940000000  0.4694470000000 1.0
C      1  0.5437890000000  0.5448060000000  0.5179460000000 1.0
C      1  0.5157640000000  0.5927410000000  0.5355010000000 1.0
C      1  0.5055920000000  0.5193500000000  0.5683660000000 1.0
C      1  0.4217550000000  0.4710650000000  0.5495150000000 1.0
C      1  0.5763730000000  0.4634430000000  0.4815890000000 1.0
C      1  0.5063000000000  0.5522610000000  0.4071570000000 1.0
C      1  0.5269740000000  0.5334440000000  0.4225960000000 1.0
C      1  0.4571800000000  0.4642770000000  0.5044240000000 1.0
C      1  0.5309230000000  0.4931640000000  0.3785100000000 1.0
C      1  0.4606020000000  0.5956640000000  0.5068910000000 1.0
C      1  0.5451470000000  0.5137100000000  0.5035070000000 1.0
C      1  0.4247460000000  0.4576030000000  0.4179280000000 1.0
C      1  0.4176190000000  0.4292670000000  0.4635720000000 1.0
C      1  0.5007520000000  0.5718320000000  0.5146840000000 1.0
C      1  0.5266550000000  0.5673370000000  0.4281740000000 1.0
C      1  0.5341780000000  0.4881210000000  0.4482490000000 1.0
C      1  0.5876440000000  0.4738230000000  0.5608890000000 1.0
C      1  0.5689530000000  0.5314450000000  0.4728950000000 1.0
C      1  0.5677960000000  0.4912050000000  0.5390390000000 1.0
C      1  0.4381810000000  0.5360630000000  0.5777740000000 1.0
C      1  0.5731210000000  0.5711200000000  0.5124900000000 1.0
C      1  0.5714190000000  0.4954790000000  0.4919390000000 1.0
C      1  0.4560160000000  0.4010370000000  0.4694730000000 1.0
C      1  0.4927110000000  0.5198490000000  0.4963040000000 1.0
C      1  0.5423910000000  0.5170230000000  0.5826920000000 1.0
C      1  0.5245630000000  0.4098870000000  0.4608490000000 1.0
C      1  0.4079440000000  0.4457120000000  0.4838610000000 1.0
C      1  0.5120130000000  0.5032410000000  0.4271070000000 1.0
C      1  0.4793400000000  0.4875790000000  0.5398920000000 1.0
C      1  0.5051710000000  0.4431290000000  0.4209620000000 1.0
C      1  0.4609250000000  0.5909330000000  0.5401720000000 1.0
C      1  0.4246080000000  0.4725420000000  0.5096470000000 1.0
C      1  0.5268170000000  0.5438470000000  0.5885560000000 1.0
C      1  0.5888560000000  0.5240920000000  0.4977870000000 1.0
C      1  0.5075860000000  0.5773490000000  0.4535040000000 1.0
C      1  0.5057900000000  0.4701230000000  0.5303370000000 1.0
C      1  0.4758380000000  0.4250700000000  0.4675810000000 1.0
C      1  0.4581500000000  0.4537740000000  0.4720960000000 1.0
C      1  0.4323530000000  0.4250690000000  0.5302170000000 1.0
C      1  0.4124250000000  0.4794320000000  0.4786550000000 1.0
C      1  0.5436440000000  0.4449390000000  0.5502740000000 1.0
C      1  0.4578120000000  0.5079450000000  0.4579190000000 1.0
C      1  0.4435030000000  0.5261570000000  0.4811450000000 1.0
C      1  0.5331360000000  0.4858390000000  0.4881650000000 1.0
C      1  0.4289670000000  0.5829730000000  0.5498390000000 1.0
C      1  0.4022850000000  0.4887440000000  0.5295480000000 1.0
C      1  0.4295420000000  0.5373820000000  0.5234340000000 1.0
C      1  0.5425210000000  0.5720670000000  0.4976410000000 1.0
C      1  0.5448140000000  0.5193170000000  0.4433960000000 1.0
C      1  0.4578700000000  0.5703030000000  0.4455270000000 1.0
C      1  0.4246180000000  0.5223450000000  0.5599530000000 1.0
C      1  0.4620110000000  0.5467570000000  0.4659690000000 1.0
C      1  0.4732140000000  0.4941480000000  0.5070940000000 1.0
C      1  0.5633780000000  0.4704240000000  0.4516770000000 1.0
C      1  0.4428730000000  0.4820990000000  0.4637620000000 1.0
C      1  0.4550690000000  0.4474360000000  0.4193280000000 1.0
C      1  0.4890950000000  0.5797420000000  0.5521130000000 1.0
C      1  0.5891450000000  0.4986990000000  0.4630940000000 1.0
C      1  0.5831610000000  0.5523270000000  0.4498880000000 1.0
C      1  0.4706450000000  0.4749820000000  0.5667340000000 1.0
C      1  0.4946860000000  0.4379930000000  0.4923340000000 1.0
C      1  0.4152250000000  0.5184510000000  0.4392690000000 1.0
C      1  0.4365840000000  0.4449100000000  0.4473310000000 1.0
C      1  0.5065330000000  0.5482610000000  0.6156340000000 1.0
C      1  0.4861560000000  0.5161560000000  0.5436000000000 1.0
C      1  0.4813830000000  0.4479080000000  0.5220150000000 1.0
C      1  0.4844870000000  0.4847800000000  0.4764160000000 1.0
C      1  0.5259870000000  0.4831660000000  0.4034810000000 1.0
C      1  0.5048080000000  0.5381460000000  0.5174140000000 1.0
C      1  0.5326470000000  0.4565630000000  0.5244130000000 1.0
C      1  0.5121410000000  0.4411740000000  0.5905550000000 1.0
C      1  0.4672200000000  0.5326420000000  0.4365000000000 1.0
C      1  0.4817930000000  0.4639540000000  0.4129760000000 1.0
C      1  0.4929140000000  0.5429450000000  0.5860050000000 1.0
C      1  0.5531570000000  0.5136070000000  0.5531520000000 1.0
C      1  0.5204990000000  0.4656440000000  0.5981390000000 1.0
C      1  0.4100050000000  0.5112240000000  0.4653230000000 1.0
C      1  0.5280260000000  0.5184060000000  0.5325140000000 1.0
C      1  0.5025970000000  0.6048170000000  0.5082540000000 1.0
C      1  0.5153300000000  0.5101610000000  0.4773300000000 1.0
C      1  0.5171280000000  0.4924340000000  0.5515670000000 1.0
C      1  0.5350790000000  0.5340130000000  0.4708000000000 1.0
C      1  0.4762630000000  0.4576390000000  0.4443770000000 1.0
C      1  0.4131970000000  0.5263640000000  0.4956060000000 1.0
C      1  0.5529610000000  0.5869480000000  0.5594330000000 1.0
C      1  0.4016330000000  0.5223710000000  0.5357990000000 1.0
C      1  0.5161690000000  0.5592820000000  0.4803210000000 1.0
C      1  0.6072030000000  0.4977880000000  0.5090900000000 1.0
C      1  0.4892620000000  0.4300630000000  0.5708240000000 1.0
C      1  0.4703070000000  0.4462100000000  0.5541170000000 1.0
C      1  0.4340650000000  0.5000700000000  0.5370640000000 1.0
C      1  0.6064000000000  0.4762720000000  0.4912230000000 1.0
C      1  0.5531170000000  0.4226900000000  0.5187560000000 1.0
C      1  0.5996420000000  0.4913650000000  0.5349490000000 1.0
C      1  0.5156930000000  0.4041270000000  0.4904100000000 1.0
C      1  0.5270430000000  0.4627080000000  0.4666400000000 1.0
C      1  0.5574500000000  0.4654410000000  0.5675660000000 1.0
C      1  0.4794060000000  0.5869200000000  0.4466640000000 1.0
C      1  0.5631440000000  0.5625010000000  0.4723570000000 1.0
C      1  0.4284150000000  0.4034040000000  0.4679190000000 1.0
C      1  0.4205060000000  0.4392780000000  0.5101690000000 1.0
C      1  0.5247340000000  0.4340230000000  0.5038560000000 1.0
C      1  0.5392880000000  0.4387540000000  0.4535500000000 1.0
C      1  0.4915950000000  0.5067550000000  0.4540820000000 1.0
C      1  0.5209230000000  0.4268720000000  0.5617470000000 1.0
C      1  0.4473090000000  0.5119510000000  0.5104780000000 1.0
C      1  0.5557950000000  0.4187480000000  0.4717840000000 1.0
C      1  0.5287320000000  0.4107780000000  0.5360490000000 1.0
C      1  0.5405830000000  0.5800570000000  0.4565610000000 1.0
C      1  0.5534250000000  0.4761740000000  0.5136980000000 1.0
C      1  0.4425010000000  0.5614950000000  0.4242930000000 1.0
C      1  0.4803030000000  0.5806300000000  0.5821550000000 1.0
C      1  0.4529950000000  0.4058140000000  0.5261320000000 1.0
C      1  0.4528330000000  0.4761600000000  0.5873430000000 1.0
C      1  0.4801130000000  0.5496840000000  0.4136800000000 1.0
C      1  0.5014730000000  0.4268530000000  0.4452840000000 1.0
C      1  0.4639190000000  0.5529130000000  0.5712150000000 1.0
C      1  0.6176150000000  0.5563390000000  0.5226620000000 1.0
C      1  0.6063370000000  0.4651530000000  0.5790350000000 1.0
END
