TITL C-2848499-1157-507 0.0010685852070164 125000 -843.932757711822 0 0 158 (C1) n - 1
REM
REM in /home/bkarasulu/work/CARBON/AIRSS/Generating-Clusters/AIREBO/with-SteepDescent/Only-C1/SD-CG-opt/Try1-1.4A-POS3A/HFTN-CG
REM
REM
REM
REM
REM
REM ./C.cell (11c1c37f851c82e70ff6c80c92926a4b)
REM
REM compiler GCC version 9.2.1 20190827 (Red Hat 9.2.1-1)
REM options -cpp -mtune=generic -march=x86-64 -g -O0 -fpre-include=/usr/include/finclude/math-vector-fortran.h
REM seed 1278121968 52863953 1288979956 788243674 -497687110 -1708136764 962014705 -197087159 -1101319212 353651474 1537475507 2123709301 359079480 50526019 -1633719618 -1666449084 -1466354981 -357211911 -663722736 1272308857 1484718797 -98032871 258020327 1716024529 1974383392 -196731844 1526883861 -118163186 -1699977570 -720213927 661666051 1980781656 2094638772
REM
CELL 1.54180   50.00000   50.00000   50.00000   90.00000   90.00000   90.00000
LATT -1
SFAC C  
C      1  0.4486930000000  0.3992210000000  0.4830330000000 1.0
C      1  0.4997790000000  0.4625930000000  0.5924310000000 1.0
C      1  0.5885000000000  0.4425450000000  0.4065490000000 1.0
C      1  0.5164870000000  0.5365490000000  0.5091070000000 1.0
C      1  0.4359930000000  0.4599060000000  0.5471870000000 1.0
C      1  0.4711460000000  0.4443110000000  0.5343140000000 1.0
C      1  0.4722630000000  0.4768470000000  0.4969950000000 1.0
C      1  0.5012560000000  0.4102310000000  0.5097380000000 1.0
C      1  0.5173030000000  0.4934430000000  0.5744100000000 1.0
C      1  0.5115080000000  0.4661320000000  0.3778800000000 1.0
C      1  0.4102140000000  0.5118140000000  0.4600150000000 1.0
C      1  0.5273000000000  0.4530560000000  0.4265060000000 1.0
C      1  0.4524940000000  0.5325080000000  0.4845890000000 1.0
C      1  0.4564960000000  0.5027970000000  0.5319690000000 1.0
C      1  0.5164970000000  0.5670470000000  0.4489140000000 1.0
C      1  0.4122840000000  0.5435050000000  0.4512110000000 1.0
C      1  0.4324150000000  0.5579550000000  0.4745150000000 1.0
C      1  0.4560090000000  0.5602550000000  0.4209150000000 1.0
C      1  0.5184460000000  0.5704940000000  0.4884690000000 1.0
C      1  0.5319490000000  0.5275450000000  0.4834450000000 1.0
C      1  0.3934840000000  0.5009050000000  0.5310130000000 1.0
C      1  0.4224030000000  0.4381590000000  0.5284880000000 1.0
C      1  0.4781660000000  0.4072970000000  0.5569300000000 1.0
C      1  0.6055780000000  0.5014680000000  0.5056930000000 1.0
C      1  0.4288430000000  0.4617850000000  0.4034280000000 1.0
C      1  0.5145780000000  0.4705890000000  0.5202210000000 1.0
C      1  0.5990460000000  0.5331230000000  0.5146520000000 1.0
C      1  0.4853130000000  0.5601260000000  0.4089470000000 1.0
C      1  0.4149830000000  0.5107780000000  0.5441790000000 1.0
C      1  0.5423870000000  0.5697400000000  0.4281330000000 1.0
C      1  0.4564820000000  0.5145770000000  0.4559570000000 1.0
C      1  0.5377630000000  0.5374830000000  0.4327040000000 1.0
C      1  0.4597930000000  0.5863660000000  0.5183130000000 1.0
C      1  0.5454620000000  0.4474410000000  0.5100420000000 1.0
C      1  0.5494680000000  0.5963710000000  0.4780650000000 1.0
C      1  0.5341260000000  0.4099680000000  0.5538040000000 1.0
C      1  0.5414410000000  0.4950800000000  0.4091510000000 1.0
C      1  0.5740150000000  0.4699620000000  0.4205390000000 1.0
C      1  0.5772450000000  0.5142580000000  0.5865780000000 1.0
C      1  0.4798550000000  0.4131680000000  0.4834740000000 1.0
C      1  0.5180330000000  0.4370360000000  0.4977250000000 1.0
C      1  0.4366510000000  0.5181680000000  0.5763700000000 1.0
C      1  0.5603890000000  0.4512100000000  0.4712880000000 1.0
C      1  0.5441510000000  0.4817010000000  0.5611870000000 1.0
C      1  0.4927130000000  0.4748290000000  0.5651390000000 1.0
C      1  0.4647020000000  0.5273650000000  0.4186250000000 1.0
C      1  0.5639410000000  0.5526720000000  0.4482140000000 1.0
C      1  0.4584310000000  0.4502940000000  0.5933410000000 1.0
C      1  0.5252150000000  0.5748490000000  0.5200250000000 1.0
C      1  0.4810860000000  0.5162790000000  0.6044950000000 1.0
C      1  0.5071940000000  0.5013990000000  0.4500550000000 1.0
C      1  0.4257370000000  0.4203950000000  0.4889430000000 1.0
C      1  0.4935930000000  0.6021950000000  0.4826590000000 1.0
C      1  0.5484100000000  0.5969690000000  0.5086490000000 1.0
C      1  0.4787110000000  0.4228320000000  0.4256700000000 1.0
C      1  0.4961530000000  0.5601830000000  0.5794280000000 1.0
C      1  0.5575880000000  0.4414830000000  0.4206690000000 1.0
C      1  0.4665250000000  0.5688760000000  0.5822520000000 1.0
C      1  0.4811330000000  0.5407580000000  0.5580900000000 1.0
C      1  0.5835410000000  0.5174340000000  0.4223100000000 1.0
C      1  0.4498710000000  0.4379410000000  0.4745330000000 1.0
C      1  0.5803220000000  0.4868490000000  0.5428200000000 1.0
C      1  0.5773390000000  0.4433040000000  0.5064960000000 1.0
C      1  0.5028840000000  0.4125350000000  0.5405410000000 1.0
C      1  0.5572180000000  0.4763660000000  0.4964780000000 1.0
C      1  0.5024430000000  0.5469450000000  0.4290070000000 1.0
C      1  0.5468860000000  0.5557620000000  0.4916830000000 1.0
C      1  0.5192800000000  0.4073640000000  0.4810830000000 1.0
C      1  0.5700520000000  0.4870920000000  0.5812540000000 1.0
C      1  0.4288400000000  0.4882510000000  0.5622290000000 1.0
C      1  0.4420970000000  0.4173950000000  0.5257050000000 1.0
C      1  0.4032210000000  0.5124880000000  0.4943880000000 1.0
C      1  0.4562670000000  0.5324600000000  0.5153430000000 1.0
C      1  0.4240670000000  0.4552550000000  0.4297070000000 1.0
C      1  0.4522210000000  0.4657920000000  0.5180050000000 1.0
C      1  0.3992360000000  0.4804860000000  0.5051710000000 1.0
C      1  0.4942160000000  0.4362560000000  0.6039510000000 1.0
C      1  0.5266300000000  0.4365490000000  0.5365520000000 1.0
C      1  0.4128110000000  0.4496250000000  0.5006810000000 1.0
C      1  0.4912160000000  0.5985440000000  0.5129740000000 1.0
C      1  0.5077890000000  0.4593440000000  0.4662520000000 1.0
C      1  0.5365250000000  0.5431050000000  0.5618170000000 1.0
C      1  0.5883640000000  0.5497580000000  0.5419570000000 1.0
C      1  0.5711890000000  0.4982740000000  0.4067970000000 1.0
C      1  0.5582020000000  0.5111430000000  0.5515880000000 1.0
C      1  0.5511700000000  0.4310600000000  0.4495050000000 1.0
C      1  0.5740150000000  0.4937550000000  0.4724800000000 1.0
C      1  0.5168280000000  0.6044240000000  0.5345670000000 1.0
C      1  0.4409590000000  0.5803960000000  0.4985920000000 1.0
C      1  0.4579420000000  0.4778470000000  0.5944230000000 1.0
C      1  0.4935900000000  0.5710550000000  0.5323810000000 1.0
C      1  0.5346450000000  0.4940570000000  0.4781850000000 1.0
C      1  0.4860160000000  0.5434960000000  0.5186200000000 1.0
C      1  0.5141200000000  0.4507320000000  0.6272420000000 1.0
C      1  0.4307420000000  0.4896980000000  0.5141270000000 1.0
C      1  0.5602260000000  0.4879630000000  0.4437100000000 1.0
C      1  0.5152910000000  0.4972160000000  0.5028050000000 1.0
C      1  0.4454180000000  0.4855010000000  0.4034470000000 1.0
C      1  0.4841880000000  0.5042390000000  0.5122900000000 1.0
C      1  0.5045760000000  0.5443150000000  0.4717790000000 1.0
C      1  0.5374270000000  0.5450510000000  0.5309440000000 1.0
C      1  0.5116700000000  0.5123160000000  0.6011350000000 1.0
C      1  0.4038110000000  0.5426090000000  0.4846700000000 1.0
C      1  0.4617480000000  0.4293860000000  0.5052290000000 1.0
C      1  0.4326580000000  0.5335970000000  0.5397830000000 1.0
C      1  0.4115020000000  0.4801130000000  0.4492070000000 1.0
C      1  0.5916080000000  0.4714220000000  0.5664620000000 1.0
C      1  0.4517930000000  0.5713790000000  0.4498910000000 1.0
C      1  0.5416900000000  0.5844630000000  0.5481850000000 1.0
C      1  0.5902800000000  0.4573560000000  0.4844950000000 1.0
C      1  0.4919150000000  0.5696870000000  0.3856260000000 1.0
C      1  0.4724480000000  0.5547270000000  0.4711570000000 1.0
C      1  0.5710450000000  0.5727660000000  0.5352760000000 1.0
C      1  0.4974050000000  0.5199120000000  0.5394380000000 1.0
C      1  0.5838990000000  0.4842570000000  0.5160400000000 1.0
C      1  0.5793200000000  0.5332160000000  0.5626130000000 1.0
C      1  0.4571150000000  0.4407800000000  0.5627950000000 1.0
C      1  0.4627270000000  0.4908470000000  0.5633550000000 1.0
C      1  0.5438020000000  0.4833970000000  0.5269590000000 1.0
C      1  0.5235370000000  0.4193630000000  0.4518910000000 1.0
C      1  0.4739460000000  0.5880250000000  0.4676190000000 1.0
C      1  0.4432340000000  0.5500780000000  0.5666250000000 1.0
C      1  0.5203080000000  0.5948430000000  0.4669250000000 1.0
C      1  0.5184270000000  0.4749040000000  0.4059160000000 1.0
C      1  0.5717230000000  0.5758590000000  0.4684550000000 1.0
C      1  0.5133120000000  0.4809330000000  0.6120580000000 1.0
C      1  0.5214490000000  0.5414420000000  0.5922740000000 1.0
C      1  0.4306720000000  0.4970650000000  0.4821750000000 1.0
C      1  0.4848630000000  0.4580610000000  0.4436590000000 1.0
C      1  0.4936990000000  0.4829340000000  0.4253760000000 1.0
C      1  0.4687310000000  0.5214250000000  0.5775900000000 1.0
C      1  0.4931190000000  0.4306260000000  0.4621190000000 1.0
C      1  0.4412720000000  0.4906520000000  0.4365900000000 1.0
C      1  0.5668680000000  0.5349680000000  0.5041770000000 1.0
C      1  0.5720280000000  0.5745800000000  0.5024870000000 1.0
C      1  0.6030350000000  0.4837170000000  0.4810660000000 1.0
C      1  0.5343780000000  0.5084230000000  0.4364710000000 1.0
C      1  0.4552270000000  0.4005470000000  0.5438150000000 1.0
C      1  0.4650240000000  0.4962930000000  0.6148540000000 1.0
C      1  0.4991380000000  0.4557280000000  0.5424050000000 1.0
C      1  0.5054670000000  0.4276250000000  0.4245710000000 1.0
C      1  0.4583140000000  0.4282710000000  0.4426880000000 1.0
C      1  0.4514840000000  0.4608900000000  0.4494910000000 1.0
C      1  0.4981920000000  0.4623060000000  0.4945050000000 1.0
C      1  0.4709370000000  0.4983740000000  0.4109970000000 1.0
C      1  0.5779070000000  0.5221960000000  0.4541100000000 1.0
C      1  0.4865220000000  0.5230360000000  0.4424640000000 1.0
C      1  0.5357000000000  0.4686020000000  0.4556540000000 1.0
C      1  0.4572030000000  0.4850170000000  0.4727560000000 1.0
C      1  0.4953740000000  0.5125990000000  0.4799370000000 1.0
C      1  0.5492450000000  0.5154400000000  0.5191260000000 1.0
C      1  0.4382340000000  0.5360720000000  0.4368920000000 1.0
C      1  0.5900910000000  0.5290560000000  0.4819840000000 1.0
C      1  0.5279310000000  0.5714670000000  0.5758300000000 1.0
C      1  0.5236600000000  0.5147570000000  0.5528040000000 1.0
C      1  0.4740930000000  0.4213080000000  0.5849290000000 1.0
C      1  0.3993570000000  0.4617290000000  0.4718970000000 1.0
C      1  0.4621660000000  0.5645410000000  0.5427570000000 1.0
END
