TITL C-2848505-4874-63 0.00161899612542907 125000 -823.849543817122 0 0 153 (C1) n - 1
REM
REM in /home/bkarasulu/work/CARBON/AIRSS/Generating-Clusters/AIREBO/with-SteepDescent/Only-C1/SD-CG-opt/Try1-1.4A-POS3A/HFTN-CG
REM
REM
REM
REM
REM
REM ./C.cell (11c1c37f851c82e70ff6c80c92926a4b)
REM
REM compiler GCC version 9.2.1 20190827 (Red Hat 9.2.1-1)
REM options -cpp -mtune=generic -march=x86-64 -g -O0 -fpre-include=/usr/include/finclude/math-vector-fortran.h
REM seed 631666002 -2083876313 -1184044541 632036674 1851843858 -1935738515 519978111 -1181167899 -824145016 -1529777583 91216946 -916940705 -639285066 -96731588 814922216 -1082746906 -1983233200 -1417574895 -208866015 -1714914365 -422074523 -1256512442 161753725 533575311 -644090131 1615496503 498909653 205162668 1835023179 676239757 -2094057040 -1598221824 -694186440
REM
CELL 1.54180   50.00000   50.00000   50.00000   90.00000   90.00000   90.00000
LATT -1
SFAC C  
C      1  0.4331530000000  0.4473470000000  0.5530520000000 1.0
C      1  0.5464520000000  0.4636370000000  0.5331600000000 1.0
C      1  0.5330030000000  0.4937670000000  0.4898390000000 1.0
C      1  0.4215650000000  0.4821620000000  0.4525740000000 1.0
C      1  0.5117390000000  0.4757580000000  0.4530950000000 1.0
C      1  0.4829140000000  0.4582020000000  0.4924930000000 1.0
C      1  0.4555420000000  0.4682340000000  0.5458440000000 1.0
C      1  0.4975430000000  0.5114170000000  0.4832180000000 1.0
C      1  0.4649380000000  0.5162290000000  0.5502970000000 1.0
C      1  0.4493670000000  0.4968830000000  0.5046160000000 1.0
C      1  0.4253920000000  0.5641940000000  0.5449170000000 1.0
C      1  0.4725030000000  0.3975330000000  0.5253000000000 1.0
C      1  0.4811600000000  0.5385770000000  0.4703130000000 1.0
C      1  0.4976800000000  0.5278150000000  0.5946270000000 1.0
C      1  0.5603780000000  0.4766610000000  0.4894240000000 1.0
C      1  0.4855240000000  0.4193280000000  0.4446590000000 1.0
C      1  0.4290620000000  0.5443940000000  0.4330110000000 1.0
C      1  0.4317420000000  0.5513370000000  0.5685390000000 1.0
C      1  0.4752900000000  0.5707130000000  0.4803810000000 1.0
C      1  0.4804450000000  0.4563050000000  0.4154210000000 1.0
C      1  0.5325820000000  0.5635110000000  0.5763180000000 1.0
C      1  0.5696610000000  0.5249060000000  0.4179420000000 1.0
C      1  0.4263440000000  0.5776570000000  0.4950800000000 1.0
C      1  0.4484180000000  0.4772490000000  0.4698620000000 1.0
C      1  0.4855700000000  0.5029220000000  0.3982970000000 1.0
C      1  0.4586460000000  0.5491190000000  0.5286700000000 1.0
C      1  0.5374440000000  0.5342420000000  0.4240390000000 1.0
C      1  0.5354630000000  0.5199390000000  0.5051250000000 1.0
C      1  0.4497710000000  0.4644090000000  0.5779160000000 1.0
C      1  0.4822180000000  0.5456860000000  0.5094530000000 1.0
C      1  0.5885690000000  0.5567740000000  0.5146080000000 1.0
C      1  0.5426160000000  0.4217080000000  0.5294470000000 1.0
C      1  0.4049780000000  0.4719310000000  0.4980040000000 1.0
C      1  0.4592540000000  0.3910970000000  0.5029410000000 1.0
C      1  0.5544500000000  0.5831590000000  0.5031790000000 1.0
C      1  0.4982630000000  0.3888960000000  0.5339100000000 1.0
C      1  0.4641140000000  0.4323890000000  0.4978470000000 1.0
C      1  0.4280590000000  0.5213850000000  0.4547210000000 1.0
C      1  0.5440730000000  0.5038680000000  0.4102700000000 1.0
C      1  0.5600780000000  0.5190360000000  0.5252750000000 1.0
C      1  0.4123090000000  0.5563940000000  0.5181100000000 1.0
C      1  0.5280580000000  0.4952530000000  0.5549130000000 1.0
C      1  0.5629940000000  0.5505190000000  0.4697710000000 1.0
C      1  0.5059250000000  0.5406080000000  0.4478090000000 1.0
C      1  0.4893310000000  0.5013180000000  0.5915370000000 1.0
C      1  0.5017360000000  0.5702960000000  0.5682240000000 1.0
C      1  0.4869440000000  0.5025950000000  0.5335830000000 1.0
C      1  0.5707770000000  0.5103050000000  0.5705790000000 1.0
C      1  0.4858410000000  0.4207380000000  0.5641590000000 1.0
C      1  0.5592370000000  0.4934350000000  0.5434040000000 1.0
C      1  0.5339500000000  0.4546380000000  0.4690970000000 1.0
C      1  0.4034090000000  0.5031760000000  0.4624070000000 1.0
C      1  0.5494370000000  0.5083310000000  0.5890140000000 1.0
C      1  0.4998570000000  0.5738660000000  0.4440120000000 1.0
C      1  0.5790130000000  0.4941840000000  0.4271370000000 1.0
C      1  0.5956240000000  0.4729940000000  0.5075800000000 1.0
C      1  0.5291950000000  0.5334150000000  0.5897960000000 1.0
C      1  0.5742990000000  0.5065060000000  0.4531090000000 1.0
C      1  0.4141440000000  0.5079610000000  0.5693300000000 1.0
C      1  0.5093910000000  0.5503870000000  0.4154200000000 1.0
C      1  0.5012500000000  0.5703420000000  0.5344160000000 1.0
C      1  0.5116040000000  0.5066810000000  0.4113600000000 1.0
C      1  0.4928100000000  0.4740960000000  0.3978480000000 1.0
C      1  0.5814820000000  0.4526610000000  0.4842850000000 1.0
C      1  0.5393040000000  0.5787330000000  0.4484590000000 1.0
C      1  0.5074700000000  0.4374790000000  0.4813750000000 1.0
C      1  0.4172490000000  0.4277170000000  0.5007300000000 1.0
C      1  0.4325350000000  0.5178400000000  0.4882580000000 1.0
C      1  0.4962360000000  0.5841500000000  0.5037380000000 1.0
C      1  0.5087270000000  0.4413840000000  0.6077430000000 1.0
C      1  0.5264070000000  0.5109290000000  0.4652480000000 1.0
C      1  0.5100110000000  0.5552320000000  0.4923270000000 1.0
C      1  0.4925470000000  0.5901320000000  0.4644310000000 1.0
C      1  0.4018140000000  0.4790380000000  0.5292090000000 1.0
C      1  0.5225230000000  0.4541940000000  0.5554290000000 1.0
C      1  0.4609240000000  0.4353400000000  0.4583430000000 1.0
C      1  0.5063500000000  0.4815420000000  0.5003830000000 1.0
C      1  0.5763780000000  0.4399280000000  0.4593830000000 1.0
C      1  0.3964400000000  0.5010270000000  0.4896590000000 1.0
C      1  0.5822940000000  0.5947790000000  0.4874640000000 1.0
C      1  0.5356500000000  0.4790050000000  0.5837620000000 1.0
C      1  0.4647690000000  0.5171060000000  0.4154680000000 1.0
C      1  0.4125930000000  0.5076920000000  0.5380560000000 1.0
C      1  0.4686720000000  0.5987590000000  0.5172680000000 1.0
C      1  0.4314090000000  0.4438990000000  0.4552270000000 1.0
C      1  0.4826940000000  0.5486190000000  0.5831800000000 1.0
C      1  0.5258920000000  0.4339890000000  0.4238150000000 1.0
C      1  0.5331420000000  0.5738320000000  0.4221590000000 1.0
C      1  0.4342050000000  0.4925950000000  0.5812070000000 1.0
C      1  0.5449980000000  0.5459650000000  0.5336930000000 1.0
C      1  0.5622460000000  0.4247920000000  0.5051890000000 1.0
C      1  0.4424720000000  0.4940530000000  0.4216190000000 1.0
C      1  0.5912250000000  0.4845210000000  0.5356050000000 1.0
C      1  0.5868540000000  0.5656760000000  0.4876450000000 1.0
C      1  0.4373710000000  0.4674960000000  0.5005100000000 1.0
C      1  0.4985110000000  0.3962570000000  0.5616000000000 1.0
C      1  0.4731650000000  0.5715800000000  0.5496790000000 1.0
C      1  0.5891860000000  0.4409790000000  0.5155120000000 1.0
C      1  0.5531000000000  0.4528180000000  0.5702560000000 1.0
C      1  0.5036030000000  0.5227350000000  0.5147100000000 1.0
C      1  0.4600710000000  0.5230410000000  0.4486180000000 1.0
C      1  0.5502720000000  0.5494660000000  0.5012900000000 1.0
C      1  0.5371240000000  0.4565050000000  0.5029130000000 1.0
C      1  0.5507820000000  0.4507820000000  0.4397980000000 1.0
C      1  0.5336210000000  0.4772540000000  0.4271100000000 1.0
C      1  0.4834660000000  0.4609570000000  0.4596400000000 1.0
C      1  0.5256720000000  0.5943090000000  0.5174500000000 1.0
C      1  0.4282560000000  0.5485250000000  0.4827380000000 1.0
C      1  0.4078210000000  0.5261420000000  0.5097360000000 1.0
C      1  0.5210690000000  0.4702480000000  0.3980590000000 1.0
C      1  0.5934570000000  0.5127730000000  0.5502710000000 1.0
C      1  0.5729480000000  0.5525170000000  0.4373110000000 1.0
C      1  0.5006760000000  0.4441390000000  0.5748230000000 1.0
C      1  0.5521330000000  0.5671090000000  0.5548200000000 1.0
C      1  0.4130080000000  0.4454550000000  0.4779990000000 1.0
C      1  0.5195970000000  0.4015830000000  0.5179460000000 1.0
C      1  0.4119970000000  0.5342350000000  0.5793460000000 1.0
C      1  0.4968580000000  0.4337470000000  0.4239760000000 1.0
C      1  0.5387440000000  0.5934040000000  0.4748080000000 1.0
C      1  0.5068180000000  0.5072400000000  0.4411170000000 1.0
C      1  0.4622140000000  0.5021450000000  0.5776590000000 1.0
C      1  0.5749540000000  0.4680090000000  0.4232000000000 1.0
C      1  0.4515070000000  0.5607900000000  0.4366760000000 1.0
C      1  0.5292870000000  0.5547420000000  0.4680080000000 1.0
C      1  0.5452100000000  0.4245000000000  0.4803670000000 1.0
C      1  0.5500020000000  0.5239960000000  0.4532850000000 1.0
C      1  0.5175790000000  0.4074640000000  0.4868830000000 1.0
C      1  0.5120730000000  0.4715230000000  0.6012470000000 1.0
C      1  0.5189250000000  0.5229320000000  0.5611150000000 1.0
C      1  0.4277250000000  0.4628360000000  0.4272120000000 1.0
C      1  0.4415230000000  0.4405190000000  0.5208040000000 1.0
C      1  0.5805960000000  0.4973280000000  0.4781670000000 1.0
C      1  0.5153960000000  0.5422430000000  0.5376650000000 1.0
C      1  0.4586750000000  0.5411740000000  0.5708820000000 1.0
C      1  0.4591230000000  0.4696010000000  0.4383800000000 1.0
C      1  0.5674760000000  0.4395840000000  0.5419590000000 1.0
C      1  0.4475480000000  0.5695650000000  0.4676010000000 1.0
C      1  0.6005180000000  0.5053520000000  0.4995470000000 1.0
C      1  0.4449380000000  0.5789230000000  0.5215940000000 1.0
C      1  0.5128480000000  0.6027000000000  0.4805740000000 1.0
C      1  0.4683110000000  0.5007630000000  0.4697620000000 1.0
C      1  0.4676280000000  0.4264270000000  0.5374330000000 1.0
C      1  0.4716100000000  0.4757900000000  0.5193520000000 1.0
C      1  0.5712290000000  0.5759480000000  0.5318800000000 1.0
C      1  0.4423700000000  0.5192590000000  0.5283320000000 1.0
C      1  0.5898560000000  0.5264690000000  0.5197050000000 1.0
C      1  0.4659770000000  0.4074680000000  0.4771500000000 1.0
C      1  0.4807680000000  0.4684100000000  0.5878910000000 1.0
C      1  0.4761160000000  0.5484030000000  0.4224070000000 1.0
C      1  0.4895340000000  0.4488290000000  0.5306790000000 1.0
C      1  0.5087480000000  0.4766940000000  0.5339610000000 1.0
C      1  0.4958150000000  0.4000820000000  0.4658840000000 1.0
C      1  0.5159840000000  0.4372090000000  0.5200390000000 1.0
END
