TITL C-2847950-6905-404 6.13950416430006e-05 125000 -1086.99404778914 0 0 200 (C1) n - 1
REM
REM in /home/bkarasulu/work/CARBON/AIRSS/Generating-Clusters/AIREBO/with-SteepDescent/Only-C1/SD-CG-opt/Try1-1.4A-POS3A/HFTN-CG
REM
REM
REM
REM
REM
REM ./C.cell (11c1c37f851c82e70ff6c80c92926a4b)
REM
REM compiler GCC version 9.2.1 20190827 (Red Hat 9.2.1-1)
REM options -cpp -mtune=generic -march=x86-64 -g -O0 -fpre-include=/usr/include/finclude/math-vector-fortran.h
REM seed -1241624101 -642903313 -550125032 930544512 -1196239143 -1027957699 -580611263 587236565 1294129308 1855623648 -493218680 -1393262489 1431097765 1796429315 -1140579302 -127080623 1824938745 909927329 -1311069997 -1045448825 -644106550 -1968421884 1756733441 -657940105 -1925147511 -1610404237 1383441682 -1731718219 -186398396 -1737280406 -1099791185 1929907206 733471466
REM
CELL 1.54180   50.00000   50.00000   50.00000   90.00000   90.00000   90.00000
LATT -1
SFAC C  
C      1  0.4301910000000  0.5251820000000  0.4574490000000 1.0
C      1  0.5101870000000  0.4985080000000  0.4593670000000 1.0
C      1  0.4987180000000  0.6222660000000  0.4678280000000 1.0
C      1  0.5427560000000  0.5508260000000  0.5383880000000 1.0
C      1  0.6058840000000  0.5052340000000  0.4803440000000 1.0
C      1  0.4404520000000  0.4603670000000  0.5019270000000 1.0
C      1  0.4566050000000  0.5076920000000  0.4450860000000 1.0
C      1  0.5683030000000  0.4585490000000  0.4918070000000 1.0
C      1  0.4452140000000  0.5875500000000  0.5385460000000 1.0
C      1  0.5072440000000  0.5493270000000  0.4061450000000 1.0
C      1  0.5700100000000  0.5654940000000  0.5850880000000 1.0
C      1  0.4065700000000  0.4768950000000  0.4352470000000 1.0
C      1  0.4446610000000  0.4787560000000  0.5975320000000 1.0
C      1  0.5211790000000  0.4706750000000  0.5808430000000 1.0
C      1  0.4655310000000  0.5525710000000  0.5566320000000 1.0
C      1  0.5755870000000  0.4628740000000  0.4014260000000 1.0
C      1  0.4831790000000  0.5731630000000  0.4094570000000 1.0
C      1  0.5211830000000  0.5009330000000  0.4199710000000 1.0
C      1  0.4521550000000  0.4046110000000  0.5584600000000 1.0
C      1  0.5207400000000  0.4157020000000  0.4682590000000 1.0
C      1  0.5420060000000  0.5668160000000  0.5684190000000 1.0
C      1  0.5715900000000  0.5899660000000  0.5254940000000 1.0
C      1  0.4757590000000  0.4418810000000  0.5041830000000 1.0
C      1  0.5100700000000  0.4652090000000  0.4891890000000 1.0
C      1  0.5998100000000  0.4284240000000  0.4975120000000 1.0
C      1  0.4671310000000  0.5839980000000  0.5169950000000 1.0
C      1  0.5347840000000  0.4694260000000  0.6103280000000 1.0
C      1  0.5070430000000  0.4531710000000  0.6137910000000 1.0
C      1  0.4868530000000  0.4588960000000  0.5976300000000 1.0
C      1  0.4879490000000  0.4983740000000  0.5917280000000 1.0
C      1  0.3911400000000  0.4726350000000  0.5236550000000 1.0
C      1  0.4684470000000  0.4841110000000  0.3743090000000 1.0
C      1  0.4082930000000  0.4809240000000  0.5695140000000 1.0
C      1  0.5824430000000  0.4163120000000  0.5154190000000 1.0
C      1  0.4757980000000  0.5815950000000  0.4841980000000 1.0
C      1  0.4785590000000  0.5221620000000  0.5150620000000 1.0
C      1  0.5212340000000  0.4945500000000  0.5022520000000 1.0
C      1  0.5581330000000  0.4783720000000  0.5679660000000 1.0
C      1  0.4512770000000  0.4633910000000  0.4562110000000 1.0
C      1  0.4319950000000  0.4966830000000  0.4243560000000 1.0
C      1  0.5527880000000  0.4462270000000  0.5651090000000 1.0
C      1  0.4737240000000  0.5123560000000  0.5472700000000 1.0
C      1  0.5206320000000  0.4423890000000  0.4295670000000 1.0
C      1  0.4850670000000  0.5304060000000  0.3883860000000 1.0
C      1  0.5470920000000  0.4815110000000  0.4223710000000 1.0
C      1  0.5451840000000  0.4696300000000  0.5222450000000 1.0
C      1  0.4293910000000  0.4243910000000  0.4331100000000 1.0
C      1  0.4942690000000  0.5715670000000  0.4571730000000 1.0
C      1  0.3966720000000  0.5105850000000  0.5566900000000 1.0
C      1  0.5155590000000  0.4140930000000  0.5618250000000 1.0
C      1  0.4408700000000  0.5508410000000  0.4105420000000 1.0
C      1  0.4779000000000  0.5244170000000  0.6087220000000 1.0
C      1  0.6103920000000  0.5316720000000  0.5295480000000 1.0
C      1  0.5396390000000  0.3786900000000  0.4404580000000 1.0
C      1  0.4643560000000  0.5511650000000  0.5257970000000 1.0
C      1  0.4662210000000  0.5516390000000  0.3979980000000 1.0
C      1  0.5341240000000  0.5034500000000  0.6097990000000 1.0
C      1  0.5412030000000  0.5502030000000  0.4046360000000 1.0
C      1  0.4676640000000  0.5505040000000  0.4556720000000 1.0
C      1  0.5714210000000  0.4407100000000  0.4196680000000 1.0
C      1  0.5609840000000  0.5152340000000  0.4704980000000 1.0
C      1  0.5659670000000  0.5341640000000  0.5802790000000 1.0
C      1  0.4409340000000  0.5618920000000  0.4403860000000 1.0
C      1  0.3857500000000  0.5070220000000  0.4699480000000 1.0
C      1  0.5319630000000  0.4980250000000  0.5702530000000 1.0
C      1  0.3958420000000  0.5320780000000  0.5303360000000 1.0
C      1  0.5642560000000  0.5416460000000  0.4282970000000 1.0
C      1  0.4096950000000  0.5590120000000  0.4536340000000 1.0
C      1  0.4419030000000  0.4857980000000  0.5211100000000 1.0
C      1  0.4725610000000  0.4799350000000  0.4688440000000 1.0
C      1  0.4178270000000  0.5105060000000  0.5833150000000 1.0
C      1  0.6039300000000  0.4488390000000  0.4706330000000 1.0
C      1  0.5912880000000  0.4821000000000  0.5005500000000 1.0
C      1  0.4026190000000  0.5242040000000  0.5042340000000 1.0
C      1  0.4581560000000  0.4558360000000  0.5913200000000 1.0
C      1  0.5439900000000  0.5900880000000  0.5454070000000 1.0
C      1  0.4399660000000  0.4873990000000  0.3929620000000 1.0
C      1  0.4924190000000  0.4357750000000  0.4447490000000 1.0
C      1  0.4497590000000  0.5914200000000  0.4547750000000 1.0
C      1  0.5802130000000  0.5069800000000  0.5209200000000 1.0
C      1  0.4095730000000  0.4570050000000  0.5476170000000 1.0
C      1  0.4583860000000  0.5835530000000  0.5650090000000 1.0
C      1  0.5863740000000  0.5382290000000  0.5090080000000 1.0
C      1  0.6141300000000  0.4788050000000  0.5475010000000 1.0
C      1  0.5073760000000  0.4431110000000  0.5149090000000 1.0
C      1  0.4666320000000  0.3968320000000  0.5286940000000 1.0
C      1  0.4696120000000  0.5081830000000  0.4177350000000 1.0
C      1  0.4211600000000  0.5747330000000  0.5309160000000 1.0
C      1  0.4756430000000  0.5831030000000  0.4343180000000 1.0
C      1  0.5016890000000  0.5135030000000  0.5649270000000 1.0
C      1  0.4914010000000  0.5554450000000  0.6053910000000 1.0
C      1  0.4694180000000  0.4449870000000  0.5374540000000 1.0
C      1  0.5863740000000  0.4441500000000  0.4422970000000 1.0
C      1  0.4189360000000  0.5419790000000  0.5704870000000 1.0
C      1  0.6014780000000  0.5068030000000  0.5478250000000 1.0
C      1  0.4858010000000  0.4091710000000  0.5603790000000 1.0
C      1  0.5328410000000  0.4053290000000  0.5405150000000 1.0
C      1  0.4016910000000  0.4771620000000  0.4665870000000 1.0
C      1  0.5475630000000  0.4259980000000  0.4228860000000 1.0
C      1  0.5201500000000  0.4435460000000  0.5644920000000 1.0
C      1  0.5271430000000  0.4042600000000  0.4392210000000 1.0
C      1  0.5105290000000  0.5268110000000  0.4311080000000 1.0
C      1  0.5242160000000  0.4644200000000  0.4044410000000 1.0
C      1  0.4982230000000  0.4025000000000  0.4235970000000 1.0
C      1  0.4639690000000  0.3827480000000  0.5056520000000 1.0
C      1  0.4273520000000  0.5406800000000  0.4876190000000 1.0
C      1  0.5418530000000  0.5274070000000  0.5619960000000 1.0
C      1  0.4404770000000  0.5331790000000  0.5169840000000 1.0
C      1  0.5823860000000  0.4517800000000  0.6089970000000 1.0
C      1  0.5937930000000  0.5369010000000  0.4774750000000 1.0
C      1  0.4483380000000  0.4357730000000  0.4114110000000 1.0
C      1  0.4913530000000  0.5056350000000  0.3783190000000 1.0
C      1  0.3701670000000  0.4624160000000  0.5024240000000 1.0
C      1  0.5083310000000  0.5376410000000  0.4732830000000 1.0
C      1  0.5391210000000  0.4400400000000  0.5118480000000 1.0
C      1  0.5295450000000  0.5844830000000  0.4918900000000 1.0
C      1  0.5585070000000  0.4275410000000  0.5368300000000 1.0
C      1  0.5468850000000  0.6068200000000  0.5094090000000 1.0
C      1  0.5226480000000  0.5711850000000  0.4486380000000 1.0
C      1  0.4728100000000  0.5107300000000  0.4835060000000 1.0
C      1  0.4594490000000  0.5518520000000  0.4862300000000 1.0
C      1  0.5810010000000  0.5575850000000  0.4536530000000 1.0
C      1  0.4197290000000  0.5704830000000  0.5021280000000 1.0
C      1  0.3970430000000  0.5313980000000  0.4617880000000 1.0
C      1  0.5078610000000  0.3943780000000  0.4881680000000 1.0
C      1  0.5338060000000  0.5443760000000  0.4432300000000 1.0
C      1  0.4906940000000  0.5806430000000  0.5670180000000 1.0
C      1  0.4658790000000  0.4120880000000  0.4626160000000 1.0
C      1  0.5214860000000  0.6056470000000  0.5314880000000 1.0
C      1  0.6171750000000  0.4509310000000  0.5079400000000 1.0
C      1  0.5585860000000  0.4520310000000  0.5978730000000 1.0
C      1  0.5407670000000  0.5917690000000  0.4543140000000 1.0
C      1  0.5364080000000  0.4991520000000  0.4635550000000 1.0
C      1  0.4920510000000  0.5475870000000  0.4973430000000 1.0
C      1  0.5295810000000  0.5260920000000  0.4926510000000 1.0
C      1  0.4586370000000  0.4590610000000  0.3951010000000 1.0
C      1  0.5669590000000  0.5849010000000  0.4644610000000 1.0
C      1  0.4409930000000  0.4310670000000  0.4588560000000 1.0
C      1  0.5777630000000  0.4878240000000  0.5890850000000 1.0
C      1  0.5630640000000  0.5113110000000  0.6042450000000 1.0
C      1  0.4893720000000  0.4911460000000  0.5136290000000 1.0
C      1  0.5442350000000  0.5567970000000  0.4933840000000 1.0
C      1  0.4948690000000  0.4142640000000  0.5278650000000 1.0
C      1  0.5727630000000  0.4919860000000  0.4103890000000 1.0
C      1  0.4132550000000  0.4937410000000  0.5322430000000 1.0
C      1  0.6045430000000  0.4600490000000  0.5310780000000 1.0
C      1  0.4911090000000  0.6044770000000  0.5299060000000 1.0
C      1  0.4493600000000  0.5273870000000  0.5656250000000 1.0
C      1  0.4318200000000  0.5186780000000  0.5408300000000 1.0
C      1  0.4268790000000  0.4563270000000  0.4759850000000 1.0
C      1  0.4994310000000  0.4601480000000  0.5432460000000 1.0
C      1  0.4501250000000  0.5114590000000  0.5939390000000 1.0
C      1  0.5452740000000  0.4351480000000  0.4815460000000 1.0
C      1  0.4836920000000  0.4759190000000  0.5683400000000 1.0
C      1  0.5807140000000  0.5138830000000  0.4265090000000 1.0
C      1  0.4579120000000  0.4366300000000  0.5683660000000 1.0
C      1  0.4907700000000  0.4288870000000  0.4778150000000 1.0
C      1  0.5541080000000  0.5035290000000  0.4994060000000 1.0
C      1  0.5499150000000  0.4747630000000  0.4515300000000 1.0
C      1  0.4371960000000  0.4633070000000  0.4283690000000 1.0
C      1  0.4244970000000  0.4996810000000  0.4779370000000 1.0
C      1  0.5039260000000  0.5783240000000  0.5030170000000 1.0
C      1  0.5895960000000  0.5128890000000  0.5749830000000 1.0
C      1  0.4767490000000  0.4829550000000  0.4077290000000 1.0
C      1  0.4960550000000  0.5469970000000  0.5666510000000 1.0
C      1  0.5135530000000  0.5454610000000  0.5236900000000 1.0
C      1  0.5032430000000  0.4926680000000  0.6175880000000 1.0
C      1  0.5859160000000  0.5043840000000  0.4554360000000 1.0
C      1  0.5248390000000  0.6110930000000  0.4712080000000 1.0
C      1  0.5549090000000  0.5434040000000  0.4670210000000 1.0
C      1  0.5142790000000  0.4931970000000  0.3887330000000 1.0
C      1  0.5799140000000  0.4715520000000  0.4626110000000 1.0
C      1  0.5001120000000  0.5722760000000  0.5360770000000 1.0
C      1  0.5008660000000  0.4665550000000  0.4564670000000 1.0
C      1  0.4860830000000  0.5219530000000  0.4542630000000 1.0
C      1  0.4797840000000  0.3909570000000  0.4835700000000 1.0
C      1  0.4455980000000  0.5068920000000  0.4986240000000 1.0
C      1  0.5646120000000  0.5577260000000  0.5173970000000 1.0
C      1  0.5320100000000  0.4526660000000  0.4582630000000 1.0
C      1  0.3766490000000  0.4602220000000  0.4781500000000 1.0
C      1  0.6205730000000  0.4749000000000  0.4848380000000 1.0
C      1  0.5000930000000  0.4760380000000  0.4238170000000 1.0
C      1  0.4742480000000  0.6102550000000  0.4690340000000 1.0
C      1  0.4629070000000  0.4840980000000  0.5427000000000 1.0
C      1  0.4097420000000  0.5612130000000  0.5539440000000 1.0
C      1  0.4712120000000  0.4178230000000  0.4290590000000 1.0
C      1  0.5205590000000  0.4843590000000  0.5346870000000 1.0
C      1  0.4237470000000  0.5296650000000  0.4238590000000 1.0
C      1  0.4244200000000  0.5777790000000  0.4729100000000 1.0
C      1  0.4359960000000  0.4472030000000  0.5285280000000 1.0
C      1  0.4301980000000  0.4301920000000  0.5535660000000 1.0
C      1  0.5208130000000  0.5176650000000  0.5371220000000 1.0
C      1  0.5618800000000  0.4887490000000  0.5399810000000 1.0
C      1  0.5129110000000  0.5300420000000  0.6091100000000 1.0
C      1  0.4719420000000  0.4727500000000  0.4985690000000 1.0
C      1  0.5692860000000  0.5877940000000  0.4916410000000 1.0
C      1  0.5194640000000  0.3993880000000  0.5138480000000 1.0
C      1  0.5755050000000  0.4545450000000  0.5248190000000 1.0
C      1  0.3905760000000  0.4966970000000  0.4995670000000 1.0
C      1  0.5197400000000  0.5552430000000  0.5865980000000 1.0
END
