TITL C-2847958-8115-639 -0.00016218220120822 125000 -728.761193716814 0 0 138 (C1) n - 1
REM
REM in /home/bkarasulu/work/CARBON/AIRSS/Generating-Clusters/AIREBO/with-SteepDescent/Only-C1/SD-CG-opt/Try1-1.4A-POS3A/HFTN-CG
REM
REM
REM
REM
REM
REM ./C.cell (11c1c37f851c82e70ff6c80c92926a4b)
REM
REM compiler GCC version 9.2.1 20190827 (Red Hat 9.2.1-1)
REM options -cpp -mtune=generic -march=x86-64 -g -O0 -fpre-include=/usr/include/finclude/math-vector-fortran.h
REM seed 1022608240 400800236 -1034112251 1337996297 -1869184500 -2125250626 1215421893 -1044856463 -452910144 1517767674 801731911 -24899685 -1759221463 1885754867 591939322 -1570652643 1325795854 41493206 -2005910820 -1527677868 -445727221 2045178333 -1852665391 -1825050788 -2047430451 173543394 668489926 514539183 -117642740 1384161238 -2112854697 -1512512144 2046083142
REM
CELL 1.54180   50.00000   50.00000   50.00000   90.00000   90.00000   90.00000
LATT -1
SFAC C  
C      1  0.4766500000000  0.4243110000000  0.5459030000000 1.0
C      1  0.4572160000000  0.5209880000000  0.5783080000000 1.0
C      1  0.5371860000000  0.4454660000000  0.4413110000000 1.0
C      1  0.4851410000000  0.6045000000000  0.5120320000000 1.0
C      1  0.5247780000000  0.5480400000000  0.4927060000000 1.0
C      1  0.5433720000000  0.5236420000000  0.5073930000000 1.0
C      1  0.4686050000000  0.4133800000000  0.4651810000000 1.0
C      1  0.4646500000000  0.4745580000000  0.4514780000000 1.0
C      1  0.5199750000000  0.5432830000000  0.4188530000000 1.0
C      1  0.4203950000000  0.4731590000000  0.4613280000000 1.0
C      1  0.4447620000000  0.5317750000000  0.5060690000000 1.0
C      1  0.4566710000000  0.5733370000000  0.5074090000000 1.0
C      1  0.4263470000000  0.5488330000000  0.5247300000000 1.0
C      1  0.4632810000000  0.5286670000000  0.5457350000000 1.0
C      1  0.5323850000000  0.5735630000000  0.5321370000000 1.0
C      1  0.4454260000000  0.5080080000000  0.5262710000000 1.0
C      1  0.4764100000000  0.4978790000000  0.5518220000000 1.0
C      1  0.4397420000000  0.4632810000000  0.4871880000000 1.0
C      1  0.4995360000000  0.4000230000000  0.4677730000000 1.0
C      1  0.5512790000000  0.4670480000000  0.5089440000000 1.0
C      1  0.5468120000000  0.5400710000000  0.5710000000000 1.0
C      1  0.5343360000000  0.4181380000000  0.4749400000000 1.0
C      1  0.5755020000000  0.4596560000000  0.4316570000000 1.0
C      1  0.5196040000000  0.5396330000000  0.5890270000000 1.0
C      1  0.5837870000000  0.5134020000000  0.4955570000000 1.0
C      1  0.5993180000000  0.4779580000000  0.4861930000000 1.0
C      1  0.4961100000000  0.5250570000000  0.4154690000000 1.0
C      1  0.4301370000000  0.4344920000000  0.5245030000000 1.0
C      1  0.5541220000000  0.5005220000000  0.5494810000000 1.0
C      1  0.4847640000000  0.5297620000000  0.4989290000000 1.0
C      1  0.4544310000000  0.4723050000000  0.5523640000000 1.0
C      1  0.5133000000000  0.5381920000000  0.5496310000000 1.0
C      1  0.4242970000000  0.4627920000000  0.5398140000000 1.0
C      1  0.4871740000000  0.5122010000000  0.4424830000000 1.0
C      1  0.5162490000000  0.4544630000000  0.4813430000000 1.0
C      1  0.5192860000000  0.5684890000000  0.4356760000000 1.0
C      1  0.6012220000000  0.5485850000000  0.4989560000000 1.0
C      1  0.4197510000000  0.4861670000000  0.5645280000000 1.0
C      1  0.5615680000000  0.5099990000000  0.4390540000000 1.0
C      1  0.5766920000000  0.5427910000000  0.5535580000000 1.0
C      1  0.5677690000000  0.5493000000000  0.4887930000000 1.0
C      1  0.4553660000000  0.5507950000000  0.4819670000000 1.0
C      1  0.5596500000000  0.4199830000000  0.4866990000000 1.0
C      1  0.3990130000000  0.5168880000000  0.4945960000000 1.0
C      1  0.5302310000000  0.4434530000000  0.5214750000000 1.0
C      1  0.5845630000000  0.5348010000000  0.5220030000000 1.0
C      1  0.4813100000000  0.4663390000000  0.4967390000000 1.0
C      1  0.4197260000000  0.5606780000000  0.4479970000000 1.0
C      1  0.4545370000000  0.4907170000000  0.4757450000000 1.0
C      1  0.4606020000000  0.5306390000000  0.4539290000000 1.0
C      1  0.4765710000000  0.5995940000000  0.4616320000000 1.0
C      1  0.5512630000000  0.5227360000000  0.4745590000000 1.0
C      1  0.3968780000000  0.5011400000000  0.5187020000000 1.0
C      1  0.5330190000000  0.4937480000000  0.4674820000000 1.0
C      1  0.4436110000000  0.5555850000000  0.5528830000000 1.0
C      1  0.5418900000000  0.4617570000000  0.4674500000000 1.0
C      1  0.5208730000000  0.4812860000000  0.4014120000000 1.0
C      1  0.4489870000000  0.4912170000000  0.5800970000000 1.0
C      1  0.4464700000000  0.4280630000000  0.4445160000000 1.0
C      1  0.5196260000000  0.4193220000000  0.4474960000000 1.0
C      1  0.4080220000000  0.5447970000000  0.4980480000000 1.0
C      1  0.4225630000000  0.5563450000000  0.4749520000000 1.0
C      1  0.4875610000000  0.5282890000000  0.5917960000000 1.0
C      1  0.5176120000000  0.5088970000000  0.4908010000000 1.0
C      1  0.5962410000000  0.4905330000000  0.5176440000000 1.0
C      1  0.5014660000000  0.5858430000000  0.4957740000000 1.0
C      1  0.4896590000000  0.4340220000000  0.4504700000000 1.0
C      1  0.5841960000000  0.4675120000000  0.4578370000000 1.0
C      1  0.4876280000000  0.5609200000000  0.4856200000000 1.0
C      1  0.4796850000000  0.5125120000000  0.4754530000000 1.0
C      1  0.4814530000000  0.4281900000000  0.5124610000000 1.0
C      1  0.4960750000000  0.4401020000000  0.4218520000000 1.0
C      1  0.5592450000000  0.4302220000000  0.5333010000000 1.0
C      1  0.4797720000000  0.4464620000000  0.5717380000000 1.0
C      1  0.4966550000000  0.5014850000000  0.3947190000000 1.0
C      1  0.5191570000000  0.4175820000000  0.5405680000000 1.0
C      1  0.5111510000000  0.3930210000000  0.4955610000000 1.0
C      1  0.4825500000000  0.5949890000000  0.5391030000000 1.0
C      1  0.4947850000000  0.4689100000000  0.4178020000000 1.0
C      1  0.5570820000000  0.4085890000000  0.5131000000000 1.0
C      1  0.4068410000000  0.5033570000000  0.4702040000000 1.0
C      1  0.5374690000000  0.4932580000000  0.4277850000000 1.0
C      1  0.4646190000000  0.4938750000000  0.5073780000000 1.0
C      1  0.5560950000000  0.5520800000000  0.5206150000000 1.0
C      1  0.5630140000000  0.4977970000000  0.5175050000000 1.0
C      1  0.5287260000000  0.5866200000000  0.5023030000000 1.0
C      1  0.5104800000000  0.5499010000000  0.5213390000000 1.0
C      1  0.5065980000000  0.4885580000000  0.5415640000000 1.0
C      1  0.5449020000000  0.5695420000000  0.4509870000000 1.0
C      1  0.4553840000000  0.4498770000000  0.5097930000000 1.0
C      1  0.4027390000000  0.4722970000000  0.5175190000000 1.0
C      1  0.5808180000000  0.4499410000000  0.5333280000000 1.0
C      1  0.4342300000000  0.5106010000000  0.4621210000000 1.0
C      1  0.4563090000000  0.5212800000000  0.4153790000000 1.0
C      1  0.4993320000000  0.5589700000000  0.5697330000000 1.0
C      1  0.5690560000000  0.4519780000000  0.4841840000000 1.0
C      1  0.5703270000000  0.5155260000000  0.5718130000000 1.0
C      1  0.4419650000000  0.5478370000000  0.4312740000000 1.0
C      1  0.4650150000000  0.5998470000000  0.4878400000000 1.0
C      1  0.4750620000000  0.4705160000000  0.5902640000000 1.0
C      1  0.5446880000000  0.5718730000000  0.4808640000000 1.0
C      1  0.4078770000000  0.4634140000000  0.4916360000000 1.0
C      1  0.5840560000000  0.5607420000000  0.4612230000000 1.0
C      1  0.4880690000000  0.5506820000000  0.4531990000000 1.0
C      1  0.4356700000000  0.4125320000000  0.5069860000000 1.0
C      1  0.5293320000000  0.3982160000000  0.5197340000000 1.0
C      1  0.5218760000000  0.4568660000000  0.5872540000000 1.0
C      1  0.4597330000000  0.4133890000000  0.4942630000000 1.0
C      1  0.5547640000000  0.5687730000000  0.5569360000000 1.0
C      1  0.5272250000000  0.5065010000000  0.5900560000000 1.0
C      1  0.4804590000000  0.4570020000000  0.5401240000000 1.0
C      1  0.5830180000000  0.5009480000000  0.4638960000000 1.0
C      1  0.5455180000000  0.4633840000000  0.4171940000000 1.0
C      1  0.4913610000000  0.4644540000000  0.4643030000000 1.0
C      1  0.4765140000000  0.5495100000000  0.5222990000000 1.0
C      1  0.4963990000000  0.5016800000000  0.5118960000000 1.0
C      1  0.4950960000000  0.5829110000000  0.4482920000000 1.0
C      1  0.5261310000000  0.4643570000000  0.5553250000000 1.0
C      1  0.4187710000000  0.5023140000000  0.5385190000000 1.0
C      1  0.4676890000000  0.5533000000000  0.5767880000000 1.0
C      1  0.5933380000000  0.4525860000000  0.5079750000000 1.0
C      1  0.4677270000000  0.4994300000000  0.4035730000000 1.0
C      1  0.5401470000000  0.5357060000000  0.4451550000000 1.0
C      1  0.5541060000000  0.4685510000000  0.5431720000000 1.0
C      1  0.5239750000000  0.5108600000000  0.5562270000000 1.0
C      1  0.5134120000000  0.5318620000000  0.4658300000000 1.0
C      1  0.5058680000000  0.5835110000000  0.5511880000000 1.0
C      1  0.5088810000000  0.4861070000000  0.4447680000000 1.0
C      1  0.4405330000000  0.4562570000000  0.4396130000000 1.0
C      1  0.4618450000000  0.4732320000000  0.4187740000000 1.0
C      1  0.4576120000000  0.5804360000000  0.5388600000000 1.0
C      1  0.5074740000000  0.4806250000000  0.5999570000000 1.0
C      1  0.4896120000000  0.4984740000000  0.5801500000000 1.0
C      1  0.5028750000000  0.4629540000000  0.5195020000000 1.0
C      1  0.5114080000000  0.4269080000000  0.4984700000000 1.0
C      1  0.5105550000000  0.4356680000000  0.5636310000000 1.0
C      1  0.4744740000000  0.5493770000000  0.4214340000000 1.0
C      1  0.5561540000000  0.5052700000000  0.5964980000000 1.0
END
