TITL C-2847950-6905-313 -0.000459122294771519 125000 -755.642187801818 0 0 135 (C1) n - 1
REM
REM in /home/bkarasulu/work/CARBON/AIRSS/Generating-Clusters/AIREBO/with-SteepDescent/Only-C1/SD-CG-opt/Try1-1.4A-POS3A/HFTN-CG
REM
REM
REM
REM
REM
REM ./C.cell (11c1c37f851c82e70ff6c80c92926a4b)
REM
REM compiler GCC version 9.2.1 20190827 (Red Hat 9.2.1-1)
REM options -cpp -mtune=generic -march=x86-64 -g -O0 -fpre-include=/usr/include/finclude/math-vector-fortran.h
REM seed 1218074014 1452257171 808013770 -784474204 -335728619 -1473157878 731126663 1138460921 -232065969 -409985479 933615670 -122623844 897183862 -2064746379 1676314847 718862989 -973509690 783867237 -1539349647 -1868293037 810775881 1649426143 -716253382 -1334055934 107361206 1604559313 -1433975921 -1953423110 -900903424 1626180781 1805234975 1751789811 -1793408475
REM
CELL 1.54180   50.00000   50.00000   50.00000   90.00000   90.00000   90.00000
LATT -1
SFAC C  
C      1  0.6116430000000  0.4935600000000  0.4655010000000 1.0
C      1  0.3888650000000  0.5311060000000  0.5158410000000 1.0
C      1  0.4192050000000  0.4882980000000  0.4495090000000 1.0
C      1  0.5766060000000  0.5248500000000  0.4822910000000 1.0
C      1  0.5595590000000  0.4227240000000  0.5689550000000 1.0
C      1  0.3981150000000  0.5004850000000  0.5102490000000 1.0
C      1  0.5785370000000  0.4697650000000  0.5069860000000 1.0
C      1  0.5018530000000  0.6168620000000  0.4953140000000 1.0
C      1  0.4211510000000  0.5305360000000  0.5229110000000 1.0
C      1  0.5036220000000  0.5790820000000  0.4323590000000 1.0
C      1  0.5008000000000  0.4779310000000  0.5193700000000 1.0
C      1  0.4335660000000  0.5236200000000  0.4950650000000 1.0
C      1  0.5760170000000  0.4279580000000  0.4811970000000 1.0
C      1  0.4738030000000  0.4171190000000  0.4712810000000 1.0
C      1  0.4727950000000  0.4554430000000  0.5024950000000 1.0
C      1  0.4735390000000  0.4248900000000  0.5412180000000 1.0
C      1  0.4433360000000  0.5273650000000  0.4366660000000 1.0
C      1  0.5051380000000  0.4672880000000  0.4068570000000 1.0
C      1  0.5467330000000  0.5167240000000  0.4929670000000 1.0
C      1  0.4049960000000  0.5453910000000  0.4637000000000 1.0
C      1  0.5574990000000  0.4789900000000  0.4824420000000 1.0
C      1  0.4529810000000  0.4792330000000  0.5802160000000 1.0
C      1  0.5030730000000  0.4035180000000  0.4348220000000 1.0
C      1  0.5417960000000  0.3883790000000  0.4817750000000 1.0
C      1  0.5491280000000  0.4976920000000  0.5703830000000 1.0
C      1  0.5142470000000  0.4625710000000  0.5968970000000 1.0
C      1  0.4879160000000  0.4742170000000  0.5506150000000 1.0
C      1  0.5129000000000  0.5346740000000  0.6382950000000 1.0
C      1  0.4825550000000  0.4489930000000  0.4278480000000 1.0
C      1  0.5256520000000  0.4670260000000  0.5398520000000 1.0
C      1  0.4332870000000  0.4585030000000  0.5334890000000 1.0
C      1  0.4080770000000  0.4948280000000  0.4813760000000 1.0
C      1  0.5097820000000  0.5422240000000  0.5234700000000 1.0
C      1  0.5342600000000  0.4676940000000  0.4060900000000 1.0
C      1  0.4853270000000  0.5587570000000  0.4506320000000 1.0
C      1  0.5355150000000  0.4613240000000  0.4670600000000 1.0
C      1  0.5304210000000  0.5564480000000  0.5670890000000 1.0
C      1  0.4404580000000  0.5392230000000  0.4060980000000 1.0
C      1  0.4760200000000  0.4207220000000  0.4375670000000 1.0
C      1  0.5466770000000  0.4476910000000  0.4218130000000 1.0
C      1  0.4229950000000  0.5192850000000  0.4630250000000 1.0
C      1  0.5824020000000  0.5036170000000  0.5052540000000 1.0
C      1  0.4543030000000  0.5090230000000  0.5175950000000 1.0
C      1  0.4919020000000  0.4697940000000  0.4814830000000 1.0
C      1  0.4547480000000  0.5594770000000  0.4001400000000 1.0
C      1  0.5485480000000  0.5287070000000  0.5693370000000 1.0
C      1  0.4252530000000  0.4470140000000  0.4720160000000 1.0
C      1  0.4788570000000  0.4512980000000  0.3952470000000 1.0
C      1  0.4924940000000  0.4463030000000  0.5788960000000 1.0
C      1  0.4380140000000  0.5726970000000  0.5046770000000 1.0
C      1  0.4831800000000  0.6103990000000  0.5510660000000 1.0
C      1  0.4933390000000  0.4451260000000  0.5243380000000 1.0
C      1  0.5446530000000  0.5440580000000  0.4369350000000 1.0
C      1  0.5353510000000  0.4583520000000  0.5083540000000 1.0
C      1  0.5613990000000  0.4294570000000  0.5356730000000 1.0
C      1  0.5610640000000  0.4453080000000  0.5868850000000 1.0
C      1  0.4624330000000  0.5690130000000  0.5692430000000 1.0
C      1  0.4663990000000  0.5391080000000  0.5278660000000 1.0
C      1  0.4284140000000  0.4728810000000  0.4912430000000 1.0
C      1  0.4141150000000  0.5719550000000  0.4804970000000 1.0
C      1  0.4442920000000  0.5226140000000  0.5674860000000 1.0
C      1  0.5717360000000  0.4379110000000  0.5079300000000 1.0
C      1  0.5839500000000  0.4740830000000  0.4622520000000 1.0
C      1  0.5015560000000  0.5186420000000  0.6203780000000 1.0
C      1  0.4136080000000  0.4861720000000  0.5316520000000 1.0
C      1  0.4941840000000  0.6061520000000  0.5231290000000 1.0
C      1  0.5323790000000  0.4206920000000  0.5515160000000 1.0
C      1  0.4782330000000  0.5030730000000  0.5404900000000 1.0
C      1  0.5490020000000  0.5119590000000  0.4275650000000 1.0
C      1  0.4406310000000  0.5633700000000  0.4660350000000 1.0
C      1  0.6025870000000  0.5076010000000  0.5278780000000 1.0
C      1  0.5325610000000  0.5003050000000  0.5407680000000 1.0
C      1  0.5701320000000  0.4770970000000  0.5568080000000 1.0
C      1  0.5225380000000  0.5863120000000  0.5106050000000 1.0
C      1  0.5591670000000  0.5563960000000  0.5234430000000 1.0
C      1  0.4739980000000  0.5254600000000  0.4692010000000 1.0
C      1  0.5541120000000  0.4129950000000  0.4652630000000 1.0
C      1  0.5775210000000  0.5668180000000  0.5048790000000 1.0
C      1  0.4886860000000  0.5256340000000  0.5060030000000 1.0
C      1  0.5579650000000  0.5528070000000  0.5505450000000 1.0
C      1  0.4297540000000  0.4570310000000  0.4399080000000 1.0
C      1  0.5066540000000  0.5158630000000  0.5401720000000 1.0
C      1  0.5089620000000  0.5710070000000  0.5587480000000 1.0
C      1  0.4511200000000  0.5423520000000  0.4796040000000 1.0
C      1  0.5049290000000  0.4316690000000  0.5529140000000 1.0
C      1  0.4687800000000  0.5048250000000  0.4356320000000 1.0
C      1  0.4577930000000  0.4840970000000  0.4967110000000 1.0
C      1  0.4568500000000  0.4315350000000  0.4938250000000 1.0
C      1  0.4895690000000  0.5517170000000  0.4841980000000 1.0
C      1  0.5230410000000  0.5067710000000  0.4747740000000 1.0
C      1  0.5184860000000  0.3931130000000  0.4908210000000 1.0
C      1  0.5204710000000  0.6111310000000  0.4793380000000 1.0
C      1  0.5141850000000  0.4478200000000  0.4870160000000 1.0
C      1  0.4994440000000  0.4994270000000  0.4959000000000 1.0
C      1  0.5120860000000  0.4795170000000  0.5685620000000 1.0
C      1  0.4575520000000  0.5448010000000  0.5566290000000 1.0
C      1  0.4691680000000  0.5655230000000  0.5078720000000 1.0
C      1  0.4719180000000  0.5741700000000  0.4233460000000 1.0
C      1  0.4928410000000  0.5281860000000  0.4412790000000 1.0
C      1  0.4805150000000  0.4706610000000  0.4526680000000 1.0
C      1  0.4641170000000  0.4517110000000  0.5770350000000 1.0
C      1  0.5886080000000  0.4815510000000  0.5372940000000 1.0
C      1  0.4084450000000  0.5591640000000  0.5146310000000 1.0
C      1  0.5220430000000  0.5217500000000  0.4461210000000 1.0
C      1  0.4966190000000  0.4862210000000  0.4296570000000 1.0
C      1  0.4552680000000  0.5059760000000  0.5873430000000 1.0
C      1  0.5761670000000  0.5548630000000  0.4803210000000 1.0
C      1  0.5581820000000  0.5659200000000  0.4594110000000 1.0
C      1  0.5326710000000  0.5840830000000  0.4713870000000 1.0
C      1  0.5455710000000  0.4682550000000  0.5870600000000 1.0
C      1  0.4520610000000  0.4388320000000  0.5540380000000 1.0
C      1  0.4556670000000  0.4781580000000  0.5483260000000 1.0
C      1  0.5052500000000  0.4943600000000  0.5982100000000 1.0
C      1  0.4289700000000  0.4421280000000  0.5057350000000 1.0
C      1  0.4768980000000  0.5116790000000  0.6028200000000 1.0
C      1  0.5445830000000  0.4902520000000  0.5118370000000 1.0
C      1  0.5907460000000  0.5131210000000  0.4592900000000 1.0
C      1  0.4470580000000  0.5602240000000  0.4393430000000 1.0
C      1  0.5464400000000  0.4403260000000  0.4478250000000 1.0
C      1  0.5219460000000  0.4098100000000  0.4546010000000 1.0
C      1  0.4431680000000  0.4844900000000  0.4263280000000 1.0
C      1  0.5041620000000  0.4196670000000  0.4793630000000 1.0
C      1  0.5373430000000  0.5423240000000  0.5081120000000 1.0
C      1  0.5717250000000  0.4989240000000  0.4419900000000 1.0
C      1  0.4314670000000  0.5094350000000  0.5433690000000 1.0
C      1  0.4843730000000  0.5860180000000  0.5657940000000 1.0
C      1  0.5192880000000  0.5617650000000  0.4899110000000 1.0
C      1  0.5185040000000  0.4829520000000  0.4532150000000 1.0
C      1  0.5526120000000  0.4564650000000  0.5494940000000 1.0
C      1  0.4962970000000  0.5724490000000  0.5272110000000 1.0
C      1  0.4514910000000  0.4368130000000  0.4548320000000 1.0
C      1  0.5320110000000  0.5749130000000  0.4392720000000 1.0
C      1  0.5915630000000  0.4441650000000  0.4654310000000 1.0
C      1  0.4636020000000  0.4944460000000  0.4680380000000 1.0
C      1  0.5448200000000  0.4929060000000  0.4032860000000 1.0
END
