TITL C-2847952-8118-122 0.00551139608350327 125000 -150.789858202951 0 0 27 (C1) n - 1
REM
REM in /home/bkarasulu/work/CARBON/AIRSS/Generating-Clusters/AIREBO/with-SteepDescent/Only-C1/SD-CG-opt/Try1-1.4A-POS3A/HFTN-CG
REM
REM
REM
REM
REM
REM ./C.cell (11c1c37f851c82e70ff6c80c92926a4b)
REM
REM compiler GCC version 9.2.1 20190827 (Red Hat 9.2.1-1)
REM options -cpp -mtune=generic -march=x86-64 -g -O0 -fpre-include=/usr/include/finclude/math-vector-fortran.h
REM seed 1744470098 1775281872 -1400987443 1510585831 2095946807 -145942789 425575396 400888186 -1434453568 1541191905 -1458356742 1457558607 196715722 1862342788 -1162483671 1237316068 -1191387062 532527287 1866033248 -935244575 -589037420 -472402661 -2123716676 -706782843 -1264240739 -1557405858 1253422844 340891751 -629613681 -845673679 2090579809 1580378861 -1970070889
REM
CELL 1.54180   50.00000   50.00000   50.00000   90.00000   90.00000   90.00000
LATT -1
SFAC C  
C      1  0.4679600000000  0.4656250000000  0.5742770000000 1.0
C      1  0.4510390000000  0.4502340000000  0.5158770000000 1.0
C      1  0.4788130000000  0.5551950000000  0.4936900000000 1.0
C      1  0.5505200000000  0.5096690000000  0.5298040000000 1.0
C      1  0.5062070000000  0.5568540000000  0.4921260000000 1.0
C      1  0.5375140000000  0.5046930000000  0.4310830000000 1.0
C      1  0.4979430000000  0.4557540000000  0.5358710000000 1.0
C      1  0.4620030000000  0.5116340000000  0.5133300000000 1.0
C      1  0.4774640000000  0.4989040000000  0.5371200000000 1.0
C      1  0.5012150000000  0.4653050000000  0.5078170000000 1.0
C      1  0.4703120000000  0.4726610000000  0.5124660000000 1.0
C      1  0.4981490000000  0.4843710000000  0.4608930000000 1.0
C      1  0.4801830000000  0.4717630000000  0.5512090000000 1.0
C      1  0.5312450000000  0.5165820000000  0.5508040000000 1.0
C      1  0.5479560000000  0.5135400000000  0.4082300000000 1.0
C      1  0.5578830000000  0.5198880000000  0.3848170000000 1.0
C      1  0.4615880000000  0.5388960000000  0.5073850000000 1.0
C      1  0.4708050000000  0.4892300000000  0.4646440000000 1.0
C      1  0.4611010000000  0.4932480000000  0.4904320000000 1.0
C      1  0.5158070000000  0.5414140000000  0.5365420000000 1.0
C      1  0.5413900000000  0.5194470000000  0.5039310000000 1.0
C      1  0.5235270000000  0.5420350000000  0.5084830000000 1.0
C      1  0.4349500000000  0.4303840000000  0.5167440000000 1.0
C      1  0.5358010000000  0.5004330000000  0.4842430000000 1.0
C      1  0.4989120000000  0.5160590000000  0.5461710000000 1.0
C      1  0.5256260000000  0.4980490000000  0.4547530000000 1.0
C      1  0.5140870000000  0.4781350000000  0.4872600000000 1.0
END
