TITL C-2847956-8218-75 8.39336115810133e-05 125000 -903.269345011499 0 0 171 (C1) n - 1
REM
REM in /home/bkarasulu/work/CARBON/AIRSS/Generating-Clusters/AIREBO/with-SteepDescent/Only-C1/SD-CG-opt/Try1-1.4A-POS3A/HFTN-CG
REM
REM
REM
REM
REM
REM ./C.cell (11c1c37f851c82e70ff6c80c92926a4b)
REM
REM compiler GCC version 9.2.1 20190827 (Red Hat 9.2.1-1)
REM options -cpp -mtune=generic -march=x86-64 -g -O0 -fpre-include=/usr/include/finclude/math-vector-fortran.h
REM seed 1134815989 1807766767 23652698 2075589315 -121003838 1255763121 -911706577 1117462924 533640403 1870587894 1384708183 695277712 -1172992008 -2136871189 602252903 89764587 878236339 34189409 1458733952 209663379 1058186647 1486274322 691498008 1706303441 -700568477 466242940 -1085050523 852280068 1156264169 1967215464 -1011437234 2061148897 -488031217
REM
CELL 1.54180   50.00000   50.00000   50.00000   90.00000   90.00000   90.00000
LATT -1
SFAC C  
C      1  0.5394110000000  0.5250750000000  0.6112760000000 1.0
C      1  0.4577260000000  0.4629970000000  0.5690600000000 1.0
C      1  0.5659290000000  0.4227720000000  0.4524870000000 1.0
C      1  0.5000740000000  0.5526790000000  0.4231910000000 1.0
C      1  0.5275050000000  0.5241590000000  0.3974960000000 1.0
C      1  0.4603410000000  0.5819500000000  0.5661780000000 1.0
C      1  0.4980870000000  0.5012460000000  0.5517700000000 1.0
C      1  0.4288240000000  0.4191370000000  0.5137520000000 1.0
C      1  0.5143150000000  0.4467630000000  0.4191210000000 1.0
C      1  0.4281760000000  0.4722940000000  0.6080520000000 1.0
C      1  0.4428570000000  0.4369760000000  0.4575120000000 1.0
C      1  0.5687410000000  0.4713500000000  0.5205850000000 1.0
C      1  0.4665740000000  0.6081160000000  0.4733430000000 1.0
C      1  0.5845330000000  0.4409270000000  0.4612210000000 1.0
C      1  0.3994050000000  0.4806280000000  0.4848120000000 1.0
C      1  0.5316220000000  0.5531160000000  0.4242590000000 1.0
C      1  0.5241140000000  0.4024900000000  0.5564280000000 1.0
C      1  0.3928770000000  0.4828100000000  0.5255850000000 1.0
C      1  0.4427220000000  0.6079040000000  0.4592410000000 1.0
C      1  0.4624140000000  0.4317970000000  0.4231920000000 1.0
C      1  0.5424960000000  0.5480450000000  0.6013850000000 1.0
C      1  0.5370570000000  0.4217970000000  0.5822920000000 1.0
C      1  0.5074600000000  0.5447140000000  0.5274990000000 1.0
C      1  0.5116280000000  0.4406930000000  0.5171970000000 1.0
C      1  0.4302070000000  0.5313730000000  0.5172280000000 1.0
C      1  0.5931540000000  0.5382050000000  0.5609830000000 1.0
C      1  0.5559490000000  0.5035170000000  0.5008600000000 1.0
C      1  0.4708020000000  0.5058830000000  0.5031440000000 1.0
C      1  0.4278660000000  0.5394690000000  0.4734580000000 1.0
C      1  0.5272060000000  0.5646210000000  0.4665090000000 1.0
C      1  0.5768900000000  0.5502940000000  0.5029400000000 1.0
C      1  0.4796370000000  0.5773730000000  0.4227460000000 1.0
C      1  0.5749040000000  0.5765790000000  0.5163500000000 1.0
C      1  0.4792520000000  0.4961320000000  0.6038040000000 1.0
C      1  0.4526210000000  0.5251660000000  0.5393300000000 1.0
C      1  0.5772560000000  0.5568240000000  0.4536260000000 1.0
C      1  0.5756860000000  0.4840500000000  0.4367870000000 1.0
C      1  0.4354620000000  0.4507000000000  0.5507000000000 1.0
C      1  0.5095820000000  0.4357300000000  0.4724610000000 1.0
C      1  0.4716040000000  0.5664060000000  0.5124790000000 1.0
C      1  0.5301860000000  0.5575570000000  0.5054160000000 1.0
C      1  0.4845830000000  0.4508810000000  0.5819860000000 1.0
C      1  0.5341340000000  0.4101580000000  0.4541180000000 1.0
C      1  0.4217890000000  0.5085860000000  0.4409620000000 1.0
C      1  0.5118610000000  0.4083000000000  0.5276720000000 1.0
C      1  0.5426280000000  0.4083710000000  0.4870060000000 1.0
C      1  0.5091900000000  0.5254810000000  0.4995070000000 1.0
C      1  0.4565710000000  0.5315480000000  0.4568980000000 1.0
C      1  0.4690840000000  0.5549120000000  0.5388610000000 1.0
C      1  0.5181340000000  0.4899930000000  0.4770740000000 1.0
C      1  0.5401430000000  0.4667380000000  0.4421160000000 1.0
C      1  0.4632470000000  0.4553890000000  0.5067770000000 1.0
C      1  0.4103140000000  0.4564380000000  0.5385480000000 1.0
C      1  0.5613280000000  0.5926930000000  0.4953960000000 1.0
C      1  0.5624640000000  0.4869460000000  0.5906580000000 1.0
C      1  0.5245690000000  0.5030080000000  0.5140800000000 1.0
C      1  0.5076330000000  0.4304600000000  0.5675680000000 1.0
C      1  0.4126110000000  0.5162610000000  0.5601890000000 1.0
C      1  0.5184300000000  0.4766490000000  0.4101380000000 1.0
C      1  0.5769880000000  0.5323850000000  0.4275210000000 1.0
C      1  0.4608640000000  0.4026060000000  0.4665700000000 1.0
C      1  0.4150070000000  0.5144360000000  0.4081600000000 1.0
C      1  0.5836360000000  0.4866020000000  0.4938870000000 1.0
C      1  0.6115930000000  0.4375960000000  0.4630110000000 1.0
C      1  0.4321300000000  0.4147850000000  0.4809320000000 1.0
C      1  0.4921610000000  0.4825750000000  0.4564170000000 1.0
C      1  0.4462280000000  0.5879130000000  0.5080050000000 1.0
C      1  0.5060270000000  0.5196390000000  0.4681490000000 1.0
C      1  0.4746470000000  0.5797880000000  0.4813380000000 1.0
C      1  0.4933370000000  0.4069660000000  0.4779690000000 1.0
C      1  0.4603170000000  0.4757300000000  0.4466420000000 1.0
C      1  0.6065670000000  0.5344620000000  0.5079390000000 1.0
C      1  0.5958390000000  0.5438060000000  0.4761850000000 1.0
C      1  0.5062350000000  0.5469810000000  0.4543750000000 1.0
C      1  0.5506820000000  0.5464770000000  0.4816160000000 1.0
C      1  0.5055360000000  0.5889230000000  0.4388690000000 1.0
C      1  0.4674980000000  0.4532090000000  0.4671990000000 1.0
C      1  0.5915360000000  0.5120820000000  0.4728030000000 1.0
C      1  0.5718620000000  0.4691790000000  0.4671520000000 1.0
C      1  0.4691940000000  0.4909330000000  0.3830150000000 1.0
C      1  0.4852790000000  0.5589300000000  0.5682200000000 1.0
C      1  0.5538330000000  0.4600180000000  0.4944840000000 1.0
C      1  0.4781740000000  0.4149890000000  0.4400260000000 1.0
C      1  0.4952830000000  0.4942180000000  0.3924780000000 1.0
C      1  0.5479880000000  0.5152930000000  0.5642430000000 1.0
C      1  0.5611160000000  0.5464400000000  0.5597860000000 1.0
C      1  0.4736090000000  0.4258040000000  0.5618000000000 1.0
C      1  0.5331620000000  0.5611930000000  0.5723410000000 1.0
C      1  0.4498420000000  0.4736420000000  0.3997840000000 1.0
C      1  0.4448870000000  0.4811710000000  0.5899320000000 1.0
C      1  0.5249660000000  0.4774670000000  0.5986330000000 1.0
C      1  0.4193060000000  0.5027100000000  0.5334790000000 1.0
C      1  0.4405190000000  0.5139120000000  0.4899320000000 1.0
C      1  0.5418620000000  0.5180710000000  0.5347030000000 1.0
C      1  0.5498590000000  0.5427300000000  0.4418790000000 1.0
C      1  0.4043940000000  0.4322090000000  0.5210820000000 1.0
C      1  0.4333690000000  0.5368430000000  0.4253550000000 1.0
C      1  0.5424310000000  0.4348480000000  0.4334210000000 1.0
C      1  0.5068520000000  0.5430740000000  0.5839820000000 1.0
C      1  0.4019200000000  0.4515730000000  0.4575360000000 1.0
C      1  0.4688190000000  0.4287750000000  0.4865290000000 1.0
C      1  0.4868990000000  0.4016280000000  0.5103140000000 1.0
C      1  0.4696920000000  0.4681290000000  0.5376340000000 1.0
C      1  0.4701920000000  0.6044000000000  0.5245000000000 1.0
C      1  0.4491570000000  0.4914910000000  0.5425190000000 1.0
C      1  0.5352170000000  0.5876410000000  0.5354040000000 1.0
C      1  0.5758750000000  0.4490620000000  0.5395050000000 1.0
C      1  0.5512140000000  0.5171760000000  0.4112470000000 1.0
C      1  0.5024880000000  0.4734320000000  0.5378410000000 1.0
C      1  0.5399170000000  0.4732670000000  0.5703490000000 1.0
C      1  0.5500090000000  0.4867600000000  0.4176730000000 1.0
C      1  0.4382940000000  0.5602860000000  0.5518520000000 1.0
C      1  0.5459990000000  0.4910730000000  0.4642470000000 1.0
C      1  0.4982650000000  0.5382920000000  0.6132050000000 1.0
C      1  0.5849400000000  0.4951510000000  0.5830710000000 1.0
C      1  0.6093640000000  0.4942250000000  0.5147670000000 1.0
C      1  0.4953310000000  0.4709170000000  0.6011600000000 1.0
C      1  0.4331710000000  0.5821310000000  0.4564500000000 1.0
C      1  0.4943680000000  0.5550600000000  0.4916510000000 1.0
C      1  0.4703780000000  0.5005230000000  0.5651180000000 1.0
C      1  0.5351030000000  0.5969100000000  0.5082970000000 1.0
C      1  0.4266880000000  0.5632870000000  0.5196040000000 1.0
C      1  0.3879650000000  0.5113770000000  0.4619860000000 1.0
C      1  0.5420210000000  0.4284910000000  0.5438020000000 1.0
C      1  0.5062910000000  0.4186260000000  0.4365060000000 1.0
C      1  0.5146820000000  0.4727610000000  0.5062190000000 1.0
C      1  0.5646980000000  0.4355710000000  0.5681330000000 1.0
C      1  0.5640480000000  0.5272220000000  0.5184780000000 1.0
C      1  0.5110270000000  0.5082190000000  0.6031380000000 1.0
C      1  0.4555090000000  0.4590100000000  0.4216060000000 1.0
C      1  0.5893090000000  0.4594340000000  0.5658420000000 1.0
C      1  0.5036780000000  0.4974010000000  0.4311370000000 1.0
C      1  0.6044790000000  0.5191710000000  0.5372340000000 1.0
C      1  0.4504280000000  0.5645620000000  0.4352100000000 1.0
C      1  0.4372090000000  0.5312040000000  0.5694060000000 1.0
C      1  0.5097910000000  0.4555450000000  0.4512380000000 1.0
C      1  0.4362490000000  0.4656180000000  0.4887690000000 1.0
C      1  0.4541040000000  0.5128450000000  0.5901850000000 1.0
C      1  0.4504210000000  0.4258830000000  0.5369100000000 1.0
C      1  0.4462300000000  0.5064760000000  0.4028610000000 1.0
C      1  0.5623960000000  0.4878500000000  0.5501730000000 1.0
C      1  0.5618990000000  0.5844240000000  0.4665850000000 1.0
C      1  0.4016070000000  0.4835730000000  0.4520770000000 1.0
C      1  0.6158290000000  0.5065090000000  0.4506790000000 1.0
C      1  0.5170190000000  0.5151550000000  0.5703960000000 1.0
C      1  0.5520130000000  0.4166400000000  0.5186350000000 1.0
C      1  0.4758360000000  0.5584220000000  0.4568780000000 1.0
C      1  0.4799380000000  0.4316940000000  0.5245820000000 1.0
C      1  0.4307330000000  0.5680810000000  0.4851440000000 1.0
C      1  0.3901950000000  0.5117960000000  0.5079500000000 1.0
C      1  0.4002590000000  0.5225510000000  0.4839280000000 1.0
C      1  0.5136060000000  0.5830790000000  0.4905410000000 1.0
C      1  0.4142130000000  0.4435740000000  0.4840540000000 1.0
C      1  0.4236980000000  0.4909730000000  0.5018720000000 1.0
C      1  0.5234430000000  0.4556620000000  0.5523580000000 1.0
C      1  0.5352720000000  0.5936550000000  0.4507570000000 1.0
C      1  0.5596170000000  0.5192290000000  0.4644360000000 1.0
C      1  0.5606490000000  0.5752200000000  0.5416090000000 1.0
C      1  0.3900460000000  0.4562920000000  0.5043450000000 1.0
C      1  0.5953610000000  0.4898360000000  0.5518050000000 1.0
C      1  0.5101330000000  0.5712710000000  0.5485690000000 1.0
C      1  0.4796620000000  0.4783060000000  0.4877630000000 1.0
C      1  0.4848730000000  0.5194130000000  0.5301930000000 1.0
C      1  0.4387030000000  0.4911020000000  0.4647640000000 1.0
C      1  0.4649940000000  0.5249220000000  0.4244290000000 1.0
C      1  0.4824960000000  0.5919140000000  0.5458490000000 1.0
C      1  0.4772780000000  0.5200740000000  0.4760380000000 1.0
C      1  0.5925550000000  0.5062340000000  0.4333650000000 1.0
C      1  0.5326800000000  0.4397610000000  0.4927940000000 1.0
C      1  0.4962070000000  0.5229970000000  0.4107670000000 1.0
C      1  0.5188670000000  0.3854280000000  0.4789120000000 1.0
END
