TITL C-2847954-6904-691 0.001286216742933 125000 -456.324095046033 0 0 86 (C1) n - 1
REM
REM in /home/bkarasulu/work/CARBON/AIRSS/Generating-Clusters/AIREBO/with-SteepDescent/Only-C1/SD-CG-opt/Try1-1.4A-POS3A/HFTN-CG
REM
REM
REM
REM
REM
REM ./C.cell (11c1c37f851c82e70ff6c80c92926a4b)
REM
REM compiler GCC version 9.2.1 20190827 (Red Hat 9.2.1-1)
REM options -cpp -mtune=generic -march=x86-64 -g -O0 -fpre-include=/usr/include/finclude/math-vector-fortran.h
REM seed 90685876 -423561430 35154526 1317176461 -347013765 502151161 -164438472 1165397087 -842285794 -1128361748 646294712 -417042903 1946824558 -370324986 -662680407 -1138741359 1414265522 803919943 1655758946 -335599691 1840272173 1376053396 -421142678 1632972292 1671112993 -1630191178 -1662727660 -1625151781 -575583021 659783602 785368727 -1026015289 -854676826
REM
CELL 1.54180   50.00000   50.00000   50.00000   90.00000   90.00000   90.00000
LATT -1
SFAC C  
C      1  0.4139130000000  0.4631750000000  0.4862760000000 1.0
C      1  0.4985700000000  0.5558350000000  0.5530100000000 1.0
C      1  0.5576380000000  0.5489450000000  0.5444680000000 1.0
C      1  0.5866020000000  0.4674550000000  0.5135900000000 1.0
C      1  0.5030820000000  0.4701750000000  0.5757310000000 1.0
C      1  0.4891960000000  0.4991310000000  0.5357590000000 1.0
C      1  0.5313920000000  0.5648910000000  0.5518850000000 1.0
C      1  0.5305400000000  0.5200730000000  0.4797120000000 1.0
C      1  0.5175680000000  0.4743310000000  0.4507590000000 1.0
C      1  0.5226020000000  0.4758160000000  0.5514990000000 1.0
C      1  0.4715290000000  0.4453850000000  0.5385390000000 1.0
C      1  0.4954100000000  0.4340700000000  0.5250420000000 1.0
C      1  0.5034130000000  0.4697220000000  0.4997170000000 1.0
C      1  0.4477370000000  0.4701570000000  0.5663830000000 1.0
C      1  0.5658600000000  0.4523820000000  0.5270960000000 1.0
C      1  0.4885910000000  0.4537260000000  0.4190600000000 1.0
C      1  0.5771490000000  0.4929570000000  0.5060990000000 1.0
C      1  0.4671840000000  0.6097700000000  0.4930210000000 1.0
C      1  0.4568620000000  0.5635040000000  0.5313290000000 1.0
C      1  0.5622200000000  0.5013520000000  0.5340020000000 1.0
C      1  0.4510490000000  0.5318090000000  0.5076760000000 1.0
C      1  0.5034080000000  0.4929190000000  0.4168060000000 1.0
C      1  0.4284100000000  0.5085380000000  0.5072250000000 1.0
C      1  0.4878320000000  0.5137600000000  0.5627820000000 1.0
C      1  0.5407580000000  0.4815080000000  0.5165230000000 1.0
C      1  0.5236290000000  0.4225030000000  0.4900980000000 1.0
C      1  0.4335780000000  0.5570660000000  0.4734080000000 1.0
C      1  0.4808390000000  0.4869040000000  0.5106940000000 1.0
C      1  0.5232670000000  0.5535830000000  0.4525530000000 1.0
C      1  0.4480270000000  0.5353290000000  0.4555680000000 1.0
C      1  0.4745570000000  0.5809380000000  0.5002910000000 1.0
C      1  0.5691990000000  0.5451570000000  0.4682510000000 1.0
C      1  0.5541300000000  0.5299620000000  0.5209070000000 1.0
C      1  0.5566380000000  0.4773890000000  0.4458120000000 1.0
C      1  0.5215230000000  0.4551150000000  0.5245330000000 1.0
C      1  0.5162390000000  0.4370120000000  0.4646940000000 1.0
C      1  0.4767180000000  0.4111630000000  0.4880310000000 1.0
C      1  0.5556320000000  0.4943580000000  0.5642680000000 1.0
C      1  0.5231850000000  0.4806130000000  0.4778770000000 1.0
C      1  0.5312740000000  0.4965030000000  0.4335310000000 1.0
C      1  0.5228200000000  0.5327220000000  0.5588200000000 1.0
C      1  0.4736700000000  0.4798540000000  0.4278530000000 1.0
C      1  0.4690650000000  0.4803490000000  0.4585310000000 1.0
C      1  0.4551810000000  0.4668670000000  0.5190660000000 1.0
C      1  0.5582540000000  0.4617900000000  0.4771500000000 1.0
C      1  0.4642720000000  0.5576850000000  0.4400840000000 1.0
C      1  0.5713010000000  0.5201270000000  0.4664270000000 1.0
C      1  0.5175430000000  0.5803400000000  0.5278810000000 1.0
C      1  0.4467190000000  0.5156400000000  0.5359030000000 1.0
C      1  0.4927830000000  0.5630710000000  0.4537540000000 1.0
C      1  0.5090930000000  0.4499800000000  0.4359080000000 1.0
C      1  0.4270330000000  0.4491580000000  0.5119870000000 1.0
C      1  0.4861420000000  0.5788130000000  0.5312490000000 1.0
C      1  0.5355080000000  0.5087090000000  0.5771750000000 1.0
C      1  0.4442860000000  0.5067830000000  0.4280530000000 1.0
C      1  0.4767390000000  0.5129350000000  0.4234540000000 1.0
C      1  0.5453280000000  0.4438020000000  0.5030260000000 1.0
C      1  0.4509490000000  0.4368250000000  0.5644940000000 1.0
C      1  0.5335800000000  0.4316540000000  0.5448300000000 1.0
C      1  0.4996000000000  0.4162890000000  0.5040820000000 1.0
C      1  0.4318370000000  0.5063370000000  0.4553550000000 1.0
C      1  0.5455830000000  0.5564020000000  0.5071910000000 1.0
C      1  0.4534330000000  0.4681500000000  0.4851260000000 1.0
C      1  0.5200680000000  0.5058290000000  0.5405060000000 1.0
C      1  0.5536990000000  0.4952200000000  0.4814690000000 1.0
C      1  0.5313840000000  0.5110350000000  0.5106450000000 1.0
C      1  0.4785160000000  0.4561750000000  0.5700200000000 1.0
C      1  0.5426410000000  0.5623860000000  0.4738490000000 1.0
C      1  0.4618480000000  0.4364570000000  0.4760830000000 1.0
C      1  0.5274710000000  0.5829050000000  0.4969050000000 1.0
C      1  0.4738550000000  0.5356130000000  0.5407830000000 1.0
C      1  0.4741390000000  0.5128630000000  0.4943450000000 1.0
C      1  0.4987090000000  0.5700060000000  0.4835970000000 1.0
C      1  0.4289010000000  0.4910160000000  0.4812470000000 1.0
C      1  0.4892480000000  0.4562640000000  0.4723660000000 1.0
C      1  0.5454490000000  0.4457940000000  0.4511270000000 1.0
C      1  0.5235140000000  0.5219170000000  0.4492180000000 1.0
C      1  0.4918770000000  0.5296870000000  0.4468360000000 1.0
C      1  0.4449450000000  0.4857410000000  0.5430590000000 1.0
C      1  0.4702500000000  0.5113660000000  0.4649770000000 1.0
C      1  0.4306910000000  0.4355440000000  0.4833900000000 1.0
C      1  0.5151800000000  0.5449640000000  0.4971310000000 1.0
C      1  0.5548040000000  0.4650010000000  0.5500040000000 1.0
C      1  0.4905630000000  0.5335680000000  0.5112130000000 1.0
C      1  0.4479380000000  0.5615730000000  0.5000950000000 1.0
C      1  0.5066400000000  0.4998130000000  0.5792280000000 1.0
END
