TITL C-2848508-1660-313 0.00102071753854798 125000 -1055.47500388268 0 0 198 (C1) n - 1
REM
REM in /home/bkarasulu/work/CARBON/AIRSS/Generating-Clusters/AIREBO/with-SteepDescent/Only-C1/SD-CG-opt/Try1-1.4A-POS3A/HFTN-CG
REM
REM
REM
REM
REM
REM ./C.cell (11c1c37f851c82e70ff6c80c92926a4b)
REM
REM compiler GCC version 9.2.1 20190827 (Red Hat 9.2.1-1)
REM options -cpp -mtune=generic -march=x86-64 -g -O0 -fpre-include=/usr/include/finclude/math-vector-fortran.h
REM seed 418895348 106873499 -838034754 1088183969 -906068953 -165983075 1596716208 1169444421 696041591 -332259684 1344685481 679750103 1411763070 -792776020 -1168065961 -1666392282 1187421272 1224429692 -127127295 -70608701 -739200253 -1137110600 -590599351 1778373370 -1905692339 878627001 461043245 -782932110 952126038 -644969193 -412444465 313648379 176872531
REM
CELL 1.54180   50.00000   50.00000   50.00000   90.00000   90.00000   90.00000
LATT -1
SFAC C  
C      1  0.5062040000000  0.5571480000000  0.4264410000000 1.0
C      1  0.4966990000000  0.5552420000000  0.5162920000000 1.0
C      1  0.5652660000000  0.5142970000000  0.4139180000000 1.0
C      1  0.5184850000000  0.4019940000000  0.5435410000000 1.0
C      1  0.5723640000000  0.5259110000000  0.5031370000000 1.0
C      1  0.5386130000000  0.5022160000000  0.4704500000000 1.0
C      1  0.4314400000000  0.5499750000000  0.5398560000000 1.0
C      1  0.5589140000000  0.5557250000000  0.5110460000000 1.0
C      1  0.5896200000000  0.4685530000000  0.4233240000000 1.0
C      1  0.5865590000000  0.4825840000000  0.5096640000000 1.0
C      1  0.4024960000000  0.5219080000000  0.4263550000000 1.0
C      1  0.4960910000000  0.4566260000000  0.4191340000000 1.0
C      1  0.5706660000000  0.4911990000000  0.4655970000000 1.0
C      1  0.5203050000000  0.4784860000000  0.4195260000000 1.0
C      1  0.4577660000000  0.4844420000000  0.6139020000000 1.0
C      1  0.5622870000000  0.5796440000000  0.4411700000000 1.0
C      1  0.3924140000000  0.4773220000000  0.4480610000000 1.0
C      1  0.5399580000000  0.5397030000000  0.6098820000000 1.0
C      1  0.5462200000000  0.5025390000000  0.5036000000000 1.0
C      1  0.5506080000000  0.5206360000000  0.5447340000000 1.0
C      1  0.5545910000000  0.5879370000000  0.5341000000000 1.0
C      1  0.5360440000000  0.6025750000000  0.5500510000000 1.0
C      1  0.4741760000000  0.3936180000000  0.4793480000000 1.0
C      1  0.5880460000000  0.4453320000000  0.5455890000000 1.0
C      1  0.5137780000000  0.4997540000000  0.3977150000000 1.0
C      1  0.5635580000000  0.4840790000000  0.5900980000000 1.0
C      1  0.4916810000000  0.4862890000000  0.4795790000000 1.0
C      1  0.4686430000000  0.4928410000000  0.4333520000000 1.0
C      1  0.4633470000000  0.4857040000000  0.4945220000000 1.0
C      1  0.5602540000000  0.4600360000000  0.4743780000000 1.0
C      1  0.5107610000000  0.3896370000000  0.5021420000000 1.0
C      1  0.5830980000000  0.5247050000000  0.5354140000000 1.0
C      1  0.5477370000000  0.5331430000000  0.3915940000000 1.0
C      1  0.5361120000000  0.4644120000000  0.4983940000000 1.0
C      1  0.4898630000000  0.4888230000000  0.6181140000000 1.0
C      1  0.4133340000000  0.4716680000000  0.5670260000000 1.0
C      1  0.5552800000000  0.4804240000000  0.3837600000000 1.0
C      1  0.5948380000000  0.5182070000000  0.5666680000000 1.0
C      1  0.5750160000000  0.4543730000000  0.5770930000000 1.0
C      1  0.4484300000000  0.4065450000000  0.4768880000000 1.0
C      1  0.4614020000000  0.5375880000000  0.4069560000000 1.0
C      1  0.5502780000000  0.3860180000000  0.4982610000000 1.0
C      1  0.6003970000000  0.5299440000000  0.4868550000000 1.0
C      1  0.4490400000000  0.5158400000000  0.5601920000000 1.0
C      1  0.4917840000000  0.4696270000000  0.5188430000000 1.0
C      1  0.5058090000000  0.5162870000000  0.5193210000000 1.0
C      1  0.5096230000000  0.5885170000000  0.5669160000000 1.0
C      1  0.4463150000000  0.4505370000000  0.5071990000000 1.0
C      1  0.5077840000000  0.5980000000000  0.5343170000000 1.0
C      1  0.4751290000000  0.6095140000000  0.4655010000000 1.0
C      1  0.4687000000000  0.5654640000000  0.5117750000000 1.0
C      1  0.4201920000000  0.4636040000000  0.4379880000000 1.0
C      1  0.4819690000000  0.5517350000000  0.4497090000000 1.0
C      1  0.5408130000000  0.3945740000000  0.5288170000000 1.0
C      1  0.5290390000000  0.4652980000000  0.5317610000000 1.0
C      1  0.5070670000000  0.4409280000000  0.5275710000000 1.0
C      1  0.5698230000000  0.4923020000000  0.4325700000000 1.0
C      1  0.5710120000000  0.5693620000000  0.5477010000000 1.0
C      1  0.4661780000000  0.4052430000000  0.5245080000000 1.0
C      1  0.5540580000000  0.5321430000000  0.4751610000000 1.0
C      1  0.4514130000000  0.5697790000000  0.4677970000000 1.0
C      1  0.5228750000000  0.4267690000000  0.5614750000000 1.0
C      1  0.6014420000000  0.4821240000000  0.4725930000000 1.0
C      1  0.4327840000000  0.4621070000000  0.4819640000000 1.0
C      1  0.3973700000000  0.5050610000000  0.4917670000000 1.0
C      1  0.5095190000000  0.5236990000000  0.4211840000000 1.0
C      1  0.4609400000000  0.5338090000000  0.5348990000000 1.0
C      1  0.4843230000000  0.5782330000000  0.4700810000000 1.0
C      1  0.4963350000000  0.4167720000000  0.4769840000000 1.0
C      1  0.6109950000000  0.5059510000000  0.5302460000000 1.0
C      1  0.5208430000000  0.5665880000000  0.5355480000000 1.0
C      1  0.4410010000000  0.5822420000000  0.5041370000000 1.0
C      1  0.4428090000000  0.5655570000000  0.5678740000000 1.0
C      1  0.4231710000000  0.5177210000000  0.4758230000000 1.0
C      1  0.5291430000000  0.4065000000000  0.4567870000000 1.0
C      1  0.4302980000000  0.5937280000000  0.4756080000000 1.0
C      1  0.4898380000000  0.5438140000000  0.5456250000000 1.0
C      1  0.4493150000000  0.4489500000000  0.4476500000000 1.0
C      1  0.5616770000000  0.4912150000000  0.5316900000000 1.0
C      1  0.4420300000000  0.4015360000000  0.5385160000000 1.0
C      1  0.4092380000000  0.4927830000000  0.4237710000000 1.0
C      1  0.4768970000000  0.5303120000000  0.4760200000000 1.0
C      1  0.5181540000000  0.4824210000000  0.6254110000000 1.0
C      1  0.4887510000000  0.4698640000000  0.5666490000000 1.0
C      1  0.4116230000000  0.4482170000000  0.5436490000000 1.0
C      1  0.5119540000000  0.5857670000000  0.4358140000000 1.0
C      1  0.5106450000000  0.4379710000000  0.6075740000000 1.0
C      1  0.4118000000000  0.5760460000000  0.5302980000000 1.0
C      1  0.5153510000000  0.4225350000000  0.5046770000000 1.0
C      1  0.5145740000000  0.4901030000000  0.5040950000000 1.0
C      1  0.4858000000000  0.5286310000000  0.5985430000000 1.0
C      1  0.4834520000000  0.4370890000000  0.6047940000000 1.0
C      1  0.4771350000000  0.5212890000000  0.5088130000000 1.0
C      1  0.4157200000000  0.5468020000000  0.5763060000000 1.0
C      1  0.5492310000000  0.4194680000000  0.5043120000000 1.0
C      1  0.5393250000000  0.4824360000000  0.4427860000000 1.0
C      1  0.4405890000000  0.4742050000000  0.5863930000000 1.0
C      1  0.4876760000000  0.6066090000000  0.5159350000000 1.0
C      1  0.5582420000000  0.4577260000000  0.5365090000000 1.0
C      1  0.4177550000000  0.5224300000000  0.5551110000000 1.0
C      1  0.4504850000000  0.5452780000000  0.4913600000000 1.0
C      1  0.4448020000000  0.5132010000000  0.5020250000000 1.0
C      1  0.4046880000000  0.4955210000000  0.5476020000000 1.0
C      1  0.4945780000000  0.6116510000000  0.4894240000000 1.0
C      1  0.4073570000000  0.5373690000000  0.4564470000000 1.0
C      1  0.4681220000000  0.5565300000000  0.5862240000000 1.0
C      1  0.5989540000000  0.5435080000000  0.4565290000000 1.0
C      1  0.5580610000000  0.5466860000000  0.5652860000000 1.0
C      1  0.5412730000000  0.5967810000000  0.4426670000000 1.0
C      1  0.5470470000000  0.5651740000000  0.4748320000000 1.0
C      1  0.5841760000000  0.4522590000000  0.4514820000000 1.0
C      1  0.4242620000000  0.4400390000000  0.5738030000000 1.0
C      1  0.4722230000000  0.4639360000000  0.5923060000000 1.0
C      1  0.5081670000000  0.5047090000000  0.5942470000000 1.0
C      1  0.5335770000000  0.5654130000000  0.5643670000000 1.0
C      1  0.4603310000000  0.5955910000000  0.5256640000000 1.0
C      1  0.5790650000000  0.4307850000000  0.5161380000000 1.0
C      1  0.4732440000000  0.4263280000000  0.5789680000000 1.0
C      1  0.5526540000000  0.5488500000000  0.4466290000000 1.0
C      1  0.5163550000000  0.6016700000000  0.4652830000000 1.0
C      1  0.3915660000000  0.5433240000000  0.5252560000000 1.0
C      1  0.5306360000000  0.4201200000000  0.4110130000000 1.0
C      1  0.4431490000000  0.4160650000000  0.4516690000000 1.0
C      1  0.5552480000000  0.4531700000000  0.4353080000000 1.0
C      1  0.4542230000000  0.5273270000000  0.5868860000000 1.0
C      1  0.5258120000000  0.5103440000000  0.5657170000000 1.0
C      1  0.5787040000000  0.5126960000000  0.5884190000000 1.0
C      1  0.3842010000000  0.5322180000000  0.4986240000000 1.0
C      1  0.4615060000000  0.4245060000000  0.5012390000000 1.0
C      1  0.5984530000000  0.4769370000000  0.5384730000000 1.0
C      1  0.4189410000000  0.4966340000000  0.5166640000000 1.0
C      1  0.4611560000000  0.4717320000000  0.5254780000000 1.0
C      1  0.3969110000000  0.5537380000000  0.4810790000000 1.0
C      1  0.5052730000000  0.4259780000000  0.4183180000000 1.0
C      1  0.4486680000000  0.5938500000000  0.5543570000000 1.0
C      1  0.5166620000000  0.5428500000000  0.4917090000000 1.0
C      1  0.5817030000000  0.4571870000000  0.4970630000000 1.0
C      1  0.5916460000000  0.5562640000000  0.5336680000000 1.0
C      1  0.5405840000000  0.4323000000000  0.4740280000000 1.0
C      1  0.4171520000000  0.4626690000000  0.5184600000000 1.0
C      1  0.4319180000000  0.4839460000000  0.4014650000000 1.0
C      1  0.4627120000000  0.4777980000000  0.4071580000000 1.0
C      1  0.5403580000000  0.5030040000000  0.3836330000000 1.0
C      1  0.4646310000000  0.4481700000000  0.4186730000000 1.0
C      1  0.5622600000000  0.5346050000000  0.5925060000000 1.0
C      1  0.6118630000000  0.5019530000000  0.4978000000000 1.0
C      1  0.3741060000000  0.4966830000000  0.5455710000000 1.0
C      1  0.4933530000000  0.3972470000000  0.5280660000000 1.0
C      1  0.4987640000000  0.5145440000000  0.5488610000000 1.0
C      1  0.4495140000000  0.5640350000000  0.4048320000000 1.0
C      1  0.5524900000000  0.4368180000000  0.5609610000000 1.0
C      1  0.4786840000000  0.4426650000000  0.4636030000000 1.0
C      1  0.4982290000000  0.5016860000000  0.4433150000000 1.0
C      1  0.4880780000000  0.4824010000000  0.3896490000000 1.0
C      1  0.4078210000000  0.5802170000000  0.4967800000000 1.0
C      1  0.4845240000000  0.4491480000000  0.4957330000000 1.0
C      1  0.4456370000000  0.4247260000000  0.5764170000000 1.0
C      1  0.5771760000000  0.4830010000000  0.5608230000000 1.0
C      1  0.4927720000000  0.4391210000000  0.5579270000000 1.0
C      1  0.5216370000000  0.5524500000000  0.3963420000000 1.0
C      1  0.4516180000000  0.5610040000000  0.4378120000000 1.0
C      1  0.4513830000000  0.5130240000000  0.4627270000000 1.0
C      1  0.5005340000000  0.5486750000000  0.3761860000000 1.0
C      1  0.4953240000000  0.5584450000000  0.5718450000000 1.0
C      1  0.5202320000000  0.4773940000000  0.5593450000000 1.0
C      1  0.5459440000000  0.4242010000000  0.4337460000000 1.0
C      1  0.4967530000000  0.4685770000000  0.4509910000000 1.0
C      1  0.5075040000000  0.5157120000000  0.4732210000000 1.0
C      1  0.5404370000000  0.5811800000000  0.5038960000000 1.0
C      1  0.5136750000000  0.4525960000000  0.4785490000000 1.0
C      1  0.4273770000000  0.5418700000000  0.4316130000000 1.0
C      1  0.5914230000000  0.5638260000000  0.5052120000000 1.0
C      1  0.5321640000000  0.5376510000000  0.5217190000000 1.0
C      1  0.4523460000000  0.5207450000000  0.4311430000000 1.0
C      1  0.5223880000000  0.5399840000000  0.5820540000000 1.0
C      1  0.4038570000000  0.4597990000000  0.4879880000000 1.0
C      1  0.4488890000000  0.6146960000000  0.4619180000000 1.0
C      1  0.6100230000000  0.4514460000000  0.4696340000000 1.0
C      1  0.6074560000000  0.5120480000000  0.4594420000000 1.0
C      1  0.5120660000000  0.5758580000000  0.4858800000000 1.0
C      1  0.4598740000000  0.5149650000000  0.6161700000000 1.0
C      1  0.4208490000000  0.5445170000000  0.5080080000000 1.0
C      1  0.4762040000000  0.4968310000000  0.5526050000000 1.0
C      1  0.5646610000000  0.4645390000000  0.4043690000000 1.0
C      1  0.6048380000000  0.4324690000000  0.4939410000000 1.0
C      1  0.4978280000000  0.4130240000000  0.4451320000000 1.0
C      1  0.5281780000000  0.3830810000000  0.4776350000000 1.0
C      1  0.4675650000000  0.4173530000000  0.4314890000000 1.0
C      1  0.4865240000000  0.5336070000000  0.3981750000000 1.0
C      1  0.5003120000000  0.4552560000000  0.3854020000000 1.0
C      1  0.4193640000000  0.4163700000000  0.5420080000000 1.0
C      1  0.4546450000000  0.4791810000000  0.4622990000000 1.0
C      1  0.3898050000000  0.4799470000000  0.4754860000000 1.0
C      1  0.5418540000000  0.5335330000000  0.4249710000000 1.0
C      1  0.4510020000000  0.4762610000000  0.5555540000000 1.0
C      1  0.5239110000000  0.4531670000000  0.5829420000000 1.0
C      1  0.5887470000000  0.5659470000000  0.4447070000000 1.0
C      1  0.5342910000000  0.4821810000000  0.5962740000000 1.0
END
