TITL C-2848501-3133-689 0.00269891910319878 125000 -511.306604261871 0 0 92 (C1) n - 1
REM
REM in /home/bkarasulu/work/CARBON/AIRSS/Generating-Clusters/AIREBO/with-SteepDescent/Only-C1/SD-CG-opt/Try1-1.4A-POS3A/HFTN-CG
REM
REM
REM
REM
REM
REM ./C.cell (11c1c37f851c82e70ff6c80c92926a4b)
REM
REM compiler GCC version 9.2.1 20190827 (Red Hat 9.2.1-1)
REM options -cpp -mtune=generic -march=x86-64 -g -O0 -fpre-include=/usr/include/finclude/math-vector-fortran.h
REM seed 398308755 337498905 181541313 -1546366426 257796918 -283627645 -1733176077 722867004 -1781440898 -953225290 1759051235 820239464 1187546037 -978162261 -1714863955 -1796802876 1667321532 2104863639 227235094 608282779 -1815429881 343723019 -697851883 1257336226 1588911727 50273122 1127129305 -109101092 -227758584 -1040050723 2074760114 2136789705 -2002943942
REM
CELL 1.54180   50.00000   50.00000   50.00000   90.00000   90.00000   90.00000
LATT -1
SFAC C  
C      1  0.4965830000000  0.4653520000000  0.4640560000000 1.0
C      1  0.4205370000000  0.4902080000000  0.5577710000000 1.0
C      1  0.5587100000000  0.5000330000000  0.5185490000000 1.0
C      1  0.4503780000000  0.4813090000000  0.4844590000000 1.0
C      1  0.4294820000000  0.4952920000000  0.4376060000000 1.0
C      1  0.5670610000000  0.4822650000000  0.5655960000000 1.0
C      1  0.4445280000000  0.5180940000000  0.4321510000000 1.0
C      1  0.4959900000000  0.4806630000000  0.5168440000000 1.0
C      1  0.5421650000000  0.4582340000000  0.4998230000000 1.0
C      1  0.4975430000000  0.5072820000000  0.5373650000000 1.0
C      1  0.5243040000000  0.5352450000000  0.5279400000000 1.0
C      1  0.4699450000000  0.4677850000000  0.5087660000000 1.0
C      1  0.5248230000000  0.5576490000000  0.5601900000000 1.0
C      1  0.5518890000000  0.4589350000000  0.4672050000000 1.0
C      1  0.5687980000000  0.4385400000000  0.5222670000000 1.0
C      1  0.5799740000000  0.5179220000000  0.5007490000000 1.0
C      1  0.5520940000000  0.5386350000000  0.5626690000000 1.0
C      1  0.4637340000000  0.4668640000000  0.5754300000000 1.0
C      1  0.5482420000000  0.4923170000000  0.4696090000000 1.0
C      1  0.5351650000000  0.5184530000000  0.4260290000000 1.0
C      1  0.5488360000000  0.4709600000000  0.4358300000000 1.0
C      1  0.4190130000000  0.5327020000000  0.4939570000000 1.0
C      1  0.5513810000000  0.5663970000000  0.5444480000000 1.0
C      1  0.4539160000000  0.5546800000000  0.5472750000000 1.0
C      1  0.5345060000000  0.5388040000000  0.4988450000000 1.0
C      1  0.4600440000000  0.4214740000000  0.5091310000000 1.0
C      1  0.5305670000000  0.5100040000000  0.5450120000000 1.0
C      1  0.5728220000000  0.5391170000000  0.4495880000000 1.0
C      1  0.4197720000000  0.4646380000000  0.5040560000000 1.0
C      1  0.5738250000000  0.5444620000000  0.4950100000000 1.0
C      1  0.4726940000000  0.5483670000000  0.5205680000000 1.0
C      1  0.4855590000000  0.5828150000000  0.5049640000000 1.0
C      1  0.4780520000000  0.5161400000000  0.5124680000000 1.0
C      1  0.5558340000000  0.5085420000000  0.5630510000000 1.0
C      1  0.5218780000000  0.4519890000000  0.5263910000000 1.0
C      1  0.5019980000000  0.5391890000000  0.4770420000000 1.0
C      1  0.4390000000000  0.5479670000000  0.4806920000000 1.0
C      1  0.4606800000000  0.5368150000000  0.5676750000000 1.0
C      1  0.4614980000000  0.4725070000000  0.6080730000000 1.0
C      1  0.4920800000000  0.5130290000000  0.4855380000000 1.0
C      1  0.4445870000000  0.4252510000000  0.4862260000000 1.0
C      1  0.5267760000000  0.4358520000000  0.4048750000000 1.0
C      1  0.5150800000000  0.4934960000000  0.4698670000000 1.0
C      1  0.5651020000000  0.4706320000000  0.5176090000000 1.0
C      1  0.4819080000000  0.5790500000000  0.4721550000000 1.0
C      1  0.4202620000000  0.4777970000000  0.4194870000000 1.0
C      1  0.5414890000000  0.5095690000000  0.4946730000000 1.0
C      1  0.4789150000000  0.4205410000000  0.4544790000000 1.0
C      1  0.5505140000000  0.4277920000000  0.4758370000000 1.0
C      1  0.5503020000000  0.5510450000000  0.4713370000000 1.0
C      1  0.4510860000000  0.5030840000000  0.5105810000000 1.0
C      1  0.4340060000000  0.4784830000000  0.5223370000000 1.0
C      1  0.4451370000000  0.4677490000000  0.5526300000000 1.0
C      1  0.5131890000000  0.4705020000000  0.4923200000000 1.0
C      1  0.5220590000000  0.4251220000000  0.4786480000000 1.0
C      1  0.5738450000000  0.4614960000000  0.5469610000000 1.0
C      1  0.5288760000000  0.4852650000000  0.5258220000000 1.0
C      1  0.4895360000000  0.4143520000000  0.5149570000000 1.0
C      1  0.4757630000000  0.4923930000000  0.4645320000000 1.0
C      1  0.5677620000000  0.4225090000000  0.4988970000000 1.0
C      1  0.4460530000000  0.5383120000000  0.4562790000000 1.0
C      1  0.4952240000000  0.5438310000000  0.4383970000000 1.0
C      1  0.4248560000000  0.4935680000000  0.4655920000000 1.0
C      1  0.4825280000000  0.4288280000000  0.5409000000000 1.0
C      1  0.5043590000000  0.4435860000000  0.5508200000000 1.0
C      1  0.5292380000000  0.5773160000000  0.4665950000000 1.0
C      1  0.4265700000000  0.5201120000000  0.5182870000000 1.0
C      1  0.5126620000000  0.4274480000000  0.5047120000000 1.0
C      1  0.4848430000000  0.5256670000000  0.5613660000000 1.0
C      1  0.5734390000000  0.5074240000000  0.4523080000000 1.0
C      1  0.4350210000000  0.4510440000000  0.4823030000000 1.0
C      1  0.5253050000000  0.5372880000000  0.4528350000000 1.0
C      1  0.5168810000000  0.4355150000000  0.4283980000000 1.0
C      1  0.5025900000000  0.4363240000000  0.4557460000000 1.0
C      1  0.5903390000000  0.5040470000000  0.4793640000000 1.0
C      1  0.4613560000000  0.5622800000000  0.4935100000000 1.0
C      1  0.5528800000000  0.4978340000000  0.4305270000000 1.0
C      1  0.4911370000000  0.4752860000000  0.5975640000000 1.0
C      1  0.5528520000000  0.5814980000000  0.5210010000000 1.0
C      1  0.4462790000000  0.4712350000000  0.6293960000000 1.0
C      1  0.4181620000000  0.5141720000000  0.5443470000000 1.0
C      1  0.4833040000000  0.6043960000000  0.5250470000000 1.0
C      1  0.4978680000000  0.4583750000000  0.5724100000000 1.0
C      1  0.4581090000000  0.4478020000000  0.5300680000000 1.0
C      1  0.5033290000000  0.5722650000000  0.4552300000000 1.0
C      1  0.5138190000000  0.5351580000000  0.4146850000000 1.0
C      1  0.4998030000000  0.5478150000000  0.5412750000000 1.0
C      1  0.4739810000000  0.5221020000000  0.4479390000000 1.0
C      1  0.5094580000000  0.5617120000000  0.5009520000000 1.0
C      1  0.5379390000000  0.5785270000000  0.4975980000000 1.0
C      1  0.4074510000000  0.5129240000000  0.4768600000000 1.0
C      1  0.5102730000000  0.5426560000000  0.3887690000000 1.0
END
