TITL C-2848507-1641-489 -0.000347551515613367 125000 -127.440916136309 0 0 25 (C1) n - 1
REM
REM in /home/bkarasulu/work/CARBON/AIRSS/Generating-Clusters/AIREBO/with-SteepDescent/Only-C1/SD-CG-opt/Try1-1.4A-POS3A/HFTN-CG
REM
REM
REM
REM
REM
REM ./C.cell (11c1c37f851c82e70ff6c80c92926a4b)
REM
REM compiler GCC version 9.2.1 20190827 (Red Hat 9.2.1-1)
REM options -cpp -mtune=generic -march=x86-64 -g -O0 -fpre-include=/usr/include/finclude/math-vector-fortran.h
REM seed 695188804 1675958803 -1927691761 547297210 994939854 -674757296 -819184547 369189541 -1126605358 -1050346270 -1445329679 -1279520750 990926745 1539416671 -2016618940 -1184982033 -561499022 -194796722 873064618 1182132753 1897951942 -84674774 -2302943 -2104232837 -164504666 -529903509 -1080248518 460555874 479250593 370575677 -1247204786 1163824639 1697349468
REM
CELL 1.54180   50.00000   50.00000   50.00000   90.00000   90.00000   90.00000
LATT -1
SFAC C  
C      1  0.5313330000000  0.4542030000000  0.5300040000000 1.0
C      1  0.4456280000000  0.5189570000000  0.4476560000000 1.0
C      1  0.5151540000000  0.4654760000000  0.4505630000000 1.0
C      1  0.4997560000000  0.4965420000000  0.5568010000000 1.0
C      1  0.4984710000000  0.5299310000000  0.5631040000000 1.0
C      1  0.5203480000000  0.5264230000000  0.5064800000000 1.0
C      1  0.5222900000000  0.4868560000000  0.5329110000000 1.0
C      1  0.5399070000000  0.4686250000000  0.5022040000000 1.0
C      1  0.5235140000000  0.4808860000000  0.4796970000000 1.0
C      1  0.5647270000000  0.5142020000000  0.5086820000000 1.0
C      1  0.4986140000000  0.4809510000000  0.5107240000000 1.0
C      1  0.4558410000000  0.4596100000000  0.4955380000000 1.0
C      1  0.4570880000000  0.5443490000000  0.4500080000000 1.0
C      1  0.4810180000000  0.4618230000000  0.5056540000000 1.0
C      1  0.4644610000000  0.5186620000000  0.5181870000000 1.0
C      1  0.5539750000000  0.4907390000000  0.5194870000000 1.0
C      1  0.5378420000000  0.4853260000000  0.4490200000000 1.0
C      1  0.4534690000000  0.5019610000000  0.4690930000000 1.0
C      1  0.5166150000000  0.5202420000000  0.5360310000000 1.0
C      1  0.4733360000000  0.5455630000000  0.4726420000000 1.0
C      1  0.5034370000000  0.5058080000000  0.4902010000000 1.0
C      1  0.4743260000000  0.5171320000000  0.4883130000000 1.0
C      1  0.4457430000000  0.4763930000000  0.4764580000000 1.0
C      1  0.5459330000000  0.5323810000000  0.4993830000000 1.0
C      1  0.4771730000000  0.5169580000000  0.5411590000000 1.0
END
