TITL C-2848507-1641-233 -0.00111074784729737 125000 -207.232323663207 0 0 37 (C1) n - 1
REM
REM in /home/bkarasulu/work/CARBON/AIRSS/Generating-Clusters/AIREBO/with-SteepDescent/Only-C1/SD-CG-opt/Try1-1.4A-POS3A/HFTN-CG
REM
REM
REM
REM
REM
REM ./C.cell (11c1c37f851c82e70ff6c80c92926a4b)
REM
REM compiler GCC version 9.2.1 20190827 (Red Hat 9.2.1-1)
REM options -cpp -mtune=generic -march=x86-64 -g -O0 -fpre-include=/usr/include/finclude/math-vector-fortran.h
REM seed -478811762 1264927106 324674880 -1175217067 -1662984384 -1712944574 -1859223860 -489889902 -2024920356 -1105248164 1423599089 -1252666213 580484751 -1046959345 -708864532 -812049741 882732366 1128452597 1272545693 -1632633334 149777258 92820989 1056629029 -1385986014 1578331031 -1923438770 724907533 1826962785 1252828761 -1674599777 -595965219 -885864620 -2047779941
REM
CELL 1.54180   50.00000   50.00000   50.00000   90.00000   90.00000   90.00000
LATT -1
SFAC C  
C      1  0.4700730000000  0.4598460000000  0.5384940000000 1.0
C      1  0.4947340000000  0.5581280000000  0.4944950000000 1.0
C      1  0.4901900000000  0.4989150000000  0.4470110000000 1.0
C      1  0.5415450000000  0.4914930000000  0.4744100000000 1.0
C      1  0.4735240000000  0.5183910000000  0.5496530000000 1.0
C      1  0.4958080000000  0.4507940000000  0.5413060000000 1.0
C      1  0.4950520000000  0.4902150000000  0.4857180000000 1.0
C      1  0.4560000000000  0.5371560000000  0.5356750000000 1.0
C      1  0.5464710000000  0.5171350000000  0.5256260000000 1.0
C      1  0.5146080000000  0.5005000000000  0.4666060000000 1.0
C      1  0.5246580000000  0.4447310000000  0.4563560000000 1.0
C      1  0.4635080000000  0.4894560000000  0.5477320000000 1.0
C      1  0.5489750000000  0.4942720000000  0.5075950000000 1.0
C      1  0.4911890000000  0.4725930000000  0.4346930000000 1.0
C      1  0.4609760000000  0.5379970000000  0.5048390000000 1.0
C      1  0.5246110000000  0.5538600000000  0.5080020000000 1.0
C      1  0.5614260000000  0.4668160000000  0.4918270000000 1.0
C      1  0.4576600000000  0.4641140000000  0.4859910000000 1.0
C      1  0.4469310000000  0.4826900000000  0.4658570000000 1.0
C      1  0.4976610000000  0.4533210000000  0.4552560000000 1.0
C      1  0.4859670000000  0.4637690000000  0.4799140000000 1.0
C      1  0.5262850000000  0.4605490000000  0.5486980000000 1.0
C      1  0.4995320000000  0.5333280000000  0.5142830000000 1.0
C      1  0.4539080000000  0.4706180000000  0.5138470000000 1.0
C      1  0.5277370000000  0.5150720000000  0.5473080000000 1.0
C      1  0.4905320000000  0.5821420000000  0.4713190000000 1.0
C      1  0.4815260000000  0.5112280000000  0.5007010000000 1.0
C      1  0.5009460000000  0.5227420000000  0.5425100000000 1.0
C      1  0.4636220000000  0.5057280000000  0.4583000000000 1.0
C      1  0.5728060000000  0.5556920000000  0.5116250000000 1.0
C      1  0.5211340000000  0.4391470000000  0.5242420000000 1.0
C      1  0.4571700000000  0.5004960000000  0.5178980000000 1.0
C      1  0.4599490000000  0.5289930000000  0.4720670000000 1.0
C      1  0.5442800000000  0.4636980000000  0.5202970000000 1.0
C      1  0.5491430000000  0.5433150000000  0.5144760000000 1.0
C      1  0.4648810000000  0.5614020000000  0.4803020000000 1.0
C      1  0.5449790000000  0.4596580000000  0.4650720000000 1.0
END
