TITL C-2847946-5639-173 0.00138922967792031 125000 -438.923893122218 0 0 80 (C1) n - 1
REM
REM in /home/bkarasulu/work/CARBON/AIRSS/Generating-Clusters/AIREBO/with-SteepDescent/Only-C1/SD-CG-opt/Try1-1.4A-POS3A/HFTN-CG
REM
REM
REM
REM
REM
REM ./C.cell (11c1c37f851c82e70ff6c80c92926a4b)
REM
REM compiler GCC version 9.2.1 20190827 (Red Hat 9.2.1-1)
REM options -cpp -mtune=generic -march=x86-64 -g -O0 -fpre-include=/usr/include/finclude/math-vector-fortran.h
REM seed 585729041 335388915 92452387 67513978 1291519775 -1865172301 703164226 534488683 -402664393 40237942 501136548 -1568489259 -1500027201 -1515586158 -316218703 955443422 357676316 1223550503 1979430063 644620294 -1233350486 359904557 2091209446 1773011337 843680480 -1829620 -352926506 527194705 451947099 1653211849 -1496862416 -70859912 1872905323
REM
CELL 1.54180   50.00000   50.00000   50.00000   90.00000   90.00000   90.00000
LATT -1
SFAC C  
C      1  0.4656310000000  0.4708260000000  0.5204130000000 1.0
C      1  0.4305440000000  0.4425170000000  0.4567800000000 1.0
C      1  0.5131620000000  0.5632560000000  0.4309990000000 1.0
C      1  0.4345730000000  0.5034270000000  0.5471680000000 1.0
C      1  0.5880380000000  0.5049510000000  0.4613100000000 1.0
C      1  0.5342770000000  0.4991040000000  0.4654270000000 1.0
C      1  0.5207620000000  0.4672590000000  0.5647650000000 1.0
C      1  0.4614970000000  0.4281940000000  0.4926820000000 1.0
C      1  0.5314680000000  0.4884210000000  0.4933500000000 1.0
C      1  0.5005160000000  0.5183930000000  0.3868790000000 1.0
C      1  0.4509830000000  0.5248920000000  0.5176850000000 1.0
C      1  0.4299740000000  0.4909640000000  0.5191160000000 1.0
C      1  0.5035600000000  0.5206240000000  0.5349750000000 1.0
C      1  0.5685880000000  0.4944050000000  0.5086080000000 1.0
C      1  0.4665890000000  0.5184770000000  0.4611440000000 1.0
C      1  0.4718990000000  0.4183240000000  0.5380150000000 1.0
C      1  0.4994280000000  0.4214640000000  0.5387740000000 1.0
C      1  0.5217560000000  0.5663330000000  0.4810520000000 1.0
C      1  0.4780620000000  0.5128520000000  0.4909010000000 1.0
C      1  0.4415230000000  0.5004750000000  0.4483350000000 1.0
C      1  0.5484000000000  0.5626750000000  0.4965260000000 1.0
C      1  0.4946290000000  0.4758290000000  0.5757900000000 1.0
C      1  0.5541800000000  0.4365980000000  0.4890330000000 1.0
C      1  0.5168190000000  0.5863020000000  0.5049840000000 1.0
C      1  0.5172690000000  0.5722560000000  0.5289960000000 1.0
C      1  0.5416800000000  0.4833850000000  0.5708530000000 1.0
C      1  0.4897540000000  0.5580660000000  0.5350470000000 1.0
C      1  0.5471750000000  0.4887140000000  0.4389840000000 1.0
C      1  0.5275340000000  0.5405930000000  0.4228430000000 1.0
C      1  0.4890950000000  0.5165360000000  0.4355960000000 1.0
C      1  0.5438640000000  0.5527880000000  0.5289380000000 1.0
C      1  0.4386200000000  0.4951000000000  0.4775940000000 1.0
C      1  0.5574980000000  0.5198980000000  0.4617690000000 1.0
C      1  0.5001930000000  0.4874420000000  0.4954850000000 1.0
C      1  0.4867290000000  0.4163270000000  0.4517500000000 1.0
C      1  0.5151290000000  0.4120550000000  0.4906580000000 1.0
C      1  0.5015480000000  0.5411610000000  0.5621080000000 1.0
C      1  0.5195380000000  0.4180560000000  0.5175350000000 1.0
C      1  0.5765470000000  0.5207580000000  0.4899370000000 1.0
C      1  0.5105290000000  0.5161730000000  0.4129750000000 1.0
C      1  0.4476640000000  0.4471840000000  0.4773490000000 1.0
C      1  0.4946220000000  0.4550690000000  0.4852290000000 1.0
C      1  0.4561100000000  0.5469580000000  0.4698770000000 1.0
C      1  0.4968070000000  0.4972110000000  0.6024560000000 1.0
C      1  0.5696610000000  0.5529010000000  0.4812180000000 1.0
C      1  0.4735710000000  0.5158400000000  0.5490800000000 1.0
C      1  0.4944790000000  0.4550340000000  0.5176930000000 1.0
C      1  0.4723380000000  0.4711120000000  0.5543160000000 1.0
C      1  0.5053550000000  0.5090280000000  0.4622130000000 1.0
C      1  0.5258190000000  0.5072160000000  0.5185790000000 1.0
C      1  0.4429380000000  0.4752180000000  0.5530220000000 1.0
C      1  0.4788120000000  0.5418840000000  0.5078360000000 1.0
C      1  0.4803220000000  0.5058730000000  0.5748260000000 1.0
C      1  0.5753730000000  0.4864260000000  0.4426850000000 1.0
C      1  0.5172210000000  0.4504090000000  0.5404090000000 1.0
C      1  0.4986750000000  0.5286320000000  0.5919750000000 1.0
C      1  0.4453670000000  0.5341470000000  0.5497660000000 1.0
C      1  0.4403520000000  0.5651400000000  0.5117110000000 1.0
C      1  0.5510970000000  0.5349330000000  0.4352850000000 1.0
C      1  0.5308390000000  0.4920310000000  0.4175770000000 1.0
C      1  0.4824730000000  0.5598690000000  0.4792020000000 1.0
C      1  0.5538250000000  0.4673600000000  0.5009260000000 1.0
C      1  0.5035050000000  0.5697800000000  0.4548590000000 1.0
C      1  0.4616730000000  0.4990930000000  0.4268820000000 1.0
C      1  0.5394410000000  0.4174530000000  0.4765160000000 1.0
C      1  0.4556610000000  0.4319090000000  0.5196490000000 1.0
C      1  0.5069140000000  0.5365280000000  0.4767270000000 1.0
C      1  0.5521950000000  0.5050120000000  0.5296490000000 1.0
C      1  0.5500300000000  0.5072250000000  0.5588360000000 1.0
C      1  0.4268460000000  0.5165610000000  0.4973920000000 1.0
C      1  0.4346340000000  0.4577520000000  0.5253670000000 1.0
C      1  0.5433230000000  0.4419140000000  0.5208830000000 1.0
C      1  0.5731920000000  0.5391920000000  0.5183290000000 1.0
C      1  0.4591050000000  0.4738190000000  0.4870050000000 1.0
C      1  0.4355820000000  0.5476850000000  0.4890250000000 1.0
C      1  0.4851670000000  0.4819760000000  0.4667140000000 1.0
C      1  0.4721390000000  0.5009880000000  0.5204920000000 1.0
C      1  0.4897320000000  0.4241930000000  0.4787190000000 1.0
C      1  0.5317320000000  0.5328550000000  0.5495610000000 1.0
C      1  0.4558550000000  0.5607200000000  0.5343910000000 1.0
END
