TITL C-2847949-8115-79 0.000734698410733205 125000 -655.011824091319 0 0 118 (C1) n - 1
REM
REM in /home/bkarasulu/work/CARBON/AIRSS/Generating-Clusters/AIREBO/with-SteepDescent/Only-C1/SD-CG-opt/Try1-1.4A-POS3A/HFTN-CG
REM
REM
REM
REM
REM
REM ./C.cell (11c1c37f851c82e70ff6c80c92926a4b)
REM
REM compiler GCC version 9.2.1 20190827 (Red Hat 9.2.1-1)
REM options -cpp -mtune=generic -march=x86-64 -g -O0 -fpre-include=/usr/include/finclude/math-vector-fortran.h
REM seed 1458786163 -284006970 -970025156 784217556 -2001938129 484743613 -2060750164 -251562997 -1972944815 -496737499 -756792576 179301853 -847958927 2079490760 1347072979 201903116 -1709398127 -19844038 -1036510793 802666104 -1582602794 -1346903496 -504309431 1103150152 1665704476 953545526 1158665278 -248453071 265948457 734514777 139647756 -1057531777 1471797649
REM
CELL 1.54180   50.00000   50.00000   50.00000   90.00000   90.00000   90.00000
LATT -1
SFAC C  
C      1  0.4813620000000  0.4927410000000  0.5245780000000 1.0
C      1  0.5245490000000  0.5251240000000  0.6050860000000 1.0
C      1  0.5272910000000  0.4700880000000  0.5862390000000 1.0
C      1  0.4578300000000  0.5777090000000  0.5063480000000 1.0
C      1  0.4936330000000  0.4707330000000  0.5884650000000 1.0
C      1  0.5199770000000  0.5030310000000  0.5841360000000 1.0
C      1  0.4638140000000  0.4031050000000  0.5090550000000 1.0
C      1  0.4860120000000  0.4917700000000  0.4196050000000 1.0
C      1  0.5351960000000  0.4401710000000  0.5776800000000 1.0
C      1  0.5261440000000  0.4194120000000  0.4563410000000 1.0
C      1  0.5130900000000  0.5385230000000  0.4481170000000 1.0
C      1  0.6060370000000  0.4586670000000  0.5147080000000 1.0
C      1  0.5516800000000  0.5385350000000  0.5706730000000 1.0
C      1  0.4628550000000  0.5845170000000  0.4764760000000 1.0
C      1  0.5869610000000  0.4910100000000  0.4816320000000 1.0
C      1  0.5836520000000  0.5772250000000  0.4431230000000 1.0
C      1  0.4510920000000  0.4717400000000  0.4930990000000 1.0
C      1  0.4896560000000  0.4392710000000  0.5235140000000 1.0
C      1  0.5373130000000  0.5087150000000  0.4590510000000 1.0
C      1  0.5280330000000  0.4221700000000  0.5496300000000 1.0
C      1  0.4248390000000  0.4931410000000  0.4431280000000 1.0
C      1  0.4828610000000  0.6241270000000  0.5695260000000 1.0
C      1  0.5152320000000  0.4597590000000  0.5497620000000 1.0
C      1  0.4914570000000  0.5559680000000  0.4351220000000 1.0
C      1  0.5745180000000  0.5562490000000  0.5193690000000 1.0
C      1  0.5922220000000  0.5398290000000  0.5006380000000 1.0
C      1  0.4121370000000  0.4869960000000  0.5307380000000 1.0
C      1  0.5901170000000  0.4623770000000  0.4916500000000 1.0
C      1  0.4644270000000  0.5307590000000  0.5140180000000 1.0
C      1  0.5287370000000  0.5867130000000  0.4906390000000 1.0
C      1  0.4870090000000  0.3963000000000  0.4934510000000 1.0
C      1  0.4616080000000  0.5378890000000  0.4553380000000 1.0
C      1  0.5474720000000  0.4987250000000  0.5353920000000 1.0
C      1  0.5124800000000  0.4047200000000  0.5038520000000 1.0
C      1  0.4797050000000  0.4681140000000  0.4750760000000 1.0
C      1  0.5919890000000  0.4668160000000  0.5371170000000 1.0
C      1  0.5501260000000  0.4929490000000  0.5746860000000 1.0
C      1  0.5055160000000  0.5253200000000  0.4115010000000 1.0
C      1  0.4250170000000  0.5477860000000  0.4902120000000 1.0
C      1  0.4547620000000  0.5401220000000  0.5516640000000 1.0
C      1  0.5579260000000  0.5705370000000  0.5352570000000 1.0
C      1  0.5087310000000  0.4669550000000  0.4886300000000 1.0
C      1  0.5177210000000  0.4915960000000  0.5411020000000 1.0
C      1  0.5268660000000  0.5037900000000  0.4269070000000 1.0
C      1  0.4888710000000  0.4626530000000  0.4159820000000 1.0
C      1  0.5388680000000  0.5277830000000  0.5198240000000 1.0
C      1  0.5137690000000  0.4940090000000  0.4744710000000 1.0
C      1  0.5296380000000  0.4169910000000  0.4856900000000 1.0
C      1  0.4900510000000  0.5086730000000  0.3903730000000 1.0
C      1  0.5368720000000  0.5491810000000  0.5461770000000 1.0
C      1  0.4331990000000  0.4956500000000  0.4165040000000 1.0
C      1  0.5036000000000  0.5131380000000  0.5101000000000 1.0
C      1  0.3763270000000  0.5260630000000  0.5493020000000 1.0
C      1  0.5347530000000  0.4513130000000  0.4481760000000 1.0
C      1  0.4520690000000  0.4921550000000  0.5642040000000 1.0
C      1  0.5058860000000  0.4013530000000  0.4480220000000 1.0
C      1  0.5003550000000  0.5469450000000  0.5081380000000 1.0
C      1  0.4349550000000  0.4864110000000  0.5129460000000 1.0
C      1  0.4641020000000  0.4461370000000  0.4205470000000 1.0
C      1  0.5663330000000  0.5577920000000  0.4519530000000 1.0
C      1  0.4755190000000  0.5081020000000  0.5779860000000 1.0
C      1  0.4994390000000  0.5073860000000  0.4466860000000 1.0
C      1  0.4676360000000  0.4690820000000  0.5809720000000 1.0
C      1  0.4141660000000  0.5164150000000  0.4543100000000 1.0
C      1  0.4581630000000  0.4145660000000  0.4598500000000 1.0
C      1  0.4666380000000  0.4631660000000  0.5298790000000 1.0
C      1  0.5336040000000  0.4486760000000  0.4822660000000 1.0
C      1  0.5056690000000  0.5871880000000  0.5409650000000 1.0
C      1  0.4718930000000  0.4989430000000  0.4647620000000 1.0
C      1  0.5647710000000  0.5009980000000  0.4437030000000 1.0
C      1  0.5311670000000  0.5833140000000  0.5227700000000 1.0
C      1  0.4775100000000  0.5259960000000  0.4829830000000 1.0
C      1  0.4587340000000  0.4357880000000  0.5484300000000 1.0
C      1  0.4303980000000  0.5364130000000  0.4650660000000 1.0
C      1  0.4887430000000  0.5728100000000  0.4951200000000 1.0
C      1  0.4483480000000  0.4471140000000  0.4618780000000 1.0
C      1  0.5461850000000  0.4502370000000  0.5477980000000 1.0
C      1  0.5851000000000  0.5092510000000  0.4609950000000 1.0
C      1  0.4998300000000  0.5103890000000  0.5606070000000 1.0
C      1  0.4574970000000  0.5054980000000  0.4121550000000 1.0
C      1  0.3981240000000  0.4241030000000  0.4620580000000 1.0
C      1  0.5102760000000  0.5341070000000  0.4788510000000 1.0
C      1  0.4003470000000  0.5139920000000  0.5479030000000 1.0
C      1  0.5045040000000  0.4695450000000  0.5188280000000 1.0
C      1  0.4561310000000  0.5699190000000  0.4549840000000 1.0
C      1  0.4620140000000  0.4426110000000  0.5036200000000 1.0
C      1  0.4296880000000  0.5266330000000  0.5457080000000 1.0
C      1  0.5020280000000  0.5899280000000  0.4708830000000 1.0
C      1  0.4213320000000  0.4908510000000  0.5613250000000 1.0
C      1  0.5339290000000  0.5031020000000  0.4983830000000 1.0
C      1  0.5458170000000  0.4770870000000  0.4361580000000 1.0
C      1  0.4743960000000  0.5296610000000  0.4249130000000 1.0
C      1  0.5072400000000  0.5554760000000  0.5384720000000 1.0
C      1  0.4524700000000  0.5049940000000  0.5327100000000 1.0
C      1  0.4935070000000  0.6057210000000  0.5542080000000 1.0
C      1  0.5441990000000  0.5357540000000  0.4769250000000 1.0
C      1  0.5606840000000  0.4887690000000  0.4961750000000 1.0
C      1  0.4446660000000  0.5534280000000  0.5095640000000 1.0
C      1  0.4450160000000  0.4197740000000  0.4905480000000 1.0
C      1  0.5859440000000  0.5281400000000  0.5319820000000 1.0
C      1  0.4789750000000  0.4475760000000  0.4513240000000 1.0
C      1  0.4443430000000  0.4794740000000  0.4604980000000 1.0
C      1  0.4824840000000  0.4000380000000  0.4646210000000 1.0
C      1  0.5383840000000  0.5570050000000  0.5024260000000 1.0
C      1  0.5570240000000  0.4575780000000  0.4990440000000 1.0
C      1  0.5412360000000  0.5547450000000  0.4418780000000 1.0
C      1  0.4923820000000  0.5819520000000  0.4431130000000 1.0
C      1  0.4222680000000  0.4283080000000  0.4690020000000 1.0
C      1  0.5779910000000  0.5364710000000  0.4732130000000 1.0
C      1  0.4584660000000  0.4106490000000  0.5357950000000 1.0
C      1  0.5668420000000  0.5152620000000  0.5551720000000 1.0
C      1  0.5610580000000  0.4689940000000  0.5308410000000 1.0
C      1  0.5102810000000  0.4179670000000  0.5289620000000 1.0
C      1  0.4568590000000  0.4436120000000  0.5752590000000 1.0
C      1  0.5073860000000  0.4468240000000  0.4343480000000 1.0
C      1  0.4846150000000  0.5323430000000  0.5415300000000 1.0
C      1  0.5225380000000  0.6159790000000  0.4787030000000 1.0
C      1  0.5442440000000  0.5422540000000  0.5961520000000 1.0
END
