TITL C-2847958-8115-163 -0.00768284380460232 125000 -291.366033703589 0 0 52 (C1) n - 1
REM
REM in /home/bkarasulu/work/CARBON/AIRSS/Generating-Clusters/AIREBO/with-SteepDescent/Only-C1/SD-CG-opt/Try1-1.4A-POS3A/HFTN-CG
REM
REM
REM
REM
REM
REM ./C.cell (11c1c37f851c82e70ff6c80c92926a4b)
REM
REM compiler GCC version 9.2.1 20190827 (Red Hat 9.2.1-1)
REM options -cpp -mtune=generic -march=x86-64 -g -O0 -fpre-include=/usr/include/finclude/math-vector-fortran.h
REM seed -1817141609 -615301538 -871071051 -1465435744 338286855 -211354731 -142666503 1037231526 326074186 343687236 -237108784 -1417423879 1521471434 -2139766988 1822565311 -1323575241 1485904994 -1437203845 1158286140 555434433 -1432557046 48345276 605633513 -124411117 1786799344 711257818 539548997 170310807 -1355326552 1611812309 131989737 1338040757 -294927252
REM
CELL 1.54180   50.00000   50.00000   50.00000   90.00000   90.00000   90.00000
LATT -1
SFAC C  
C      1  0.4406570000000  0.4699850000000  0.5298870000000 1.0
C      1  0.4382570000000  0.4548880000000  0.5018090000000 1.0
C      1  0.5525010000000  0.4892270000000  0.4245810000000 1.0
C      1  0.5220560000000  0.4667570000000  0.4373240000000 1.0
C      1  0.4998930000000  0.4246760000000  0.4770100000000 1.0
C      1  0.5305090000000  0.4964520000000  0.4496040000000 1.0
C      1  0.4670340000000  0.5683310000000  0.4751150000000 1.0
C      1  0.5375200000000  0.4537890000000  0.4937220000000 1.0
C      1  0.5019560000000  0.4722810000000  0.4634710000000 1.0
C      1  0.5588200000000  0.5411930000000  0.4955930000000 1.0
C      1  0.5343590000000  0.5489920000000  0.5364420000000 1.0
C      1  0.4957260000000  0.4568010000000  0.5809030000000 1.0
C      1  0.4908920000000  0.5526500000000  0.5236230000000 1.0
C      1  0.4083810000000  0.4954370000000  0.5980390000000 1.0
C      1  0.5001000000000  0.4329840000000  0.5912290000000 1.0
C      1  0.4977490000000  0.5167570000000  0.4909250000000 1.0
C      1  0.4932680000000  0.5330090000000  0.5696650000000 1.0
C      1  0.4937530000000  0.5034330000000  0.5669380000000 1.0
C      1  0.5559320000000  0.4561220000000  0.4729840000000 1.0
C      1  0.4704240000000  0.5117430000000  0.4952030000000 1.0
C      1  0.5055250000000  0.5457770000000  0.4962520000000 1.0
C      1  0.5117640000000  0.4894650000000  0.4147170000000 1.0
C      1  0.5384080000000  0.4594450000000  0.5215140000000 1.0
C      1  0.4640370000000  0.5444710000000  0.5597560000000 1.0
C      1  0.5770670000000  0.5038320000000  0.4674330000000 1.0
C      1  0.4933250000000  0.4594820000000  0.5122720000000 1.0
C      1  0.5059540000000  0.4757330000000  0.5572670000000 1.0
C      1  0.4723650000000  0.5045600000000  0.4355540000000 1.0
C      1  0.5353580000000  0.5479520000000  0.5079610000000 1.0
C      1  0.5667370000000  0.5116530000000  0.4422790000000 1.0
C      1  0.4645050000000  0.5532190000000  0.5332550000000 1.0
C      1  0.4291380000000  0.4773180000000  0.5530160000000 1.0
C      1  0.5384210000000  0.5245810000000  0.4362210000000 1.0
C      1  0.5013970000000  0.5424790000000  0.5948880000000 1.0
C      1  0.4738340000000  0.4821910000000  0.4520440000000 1.0
C      1  0.5080030000000  0.5471560000000  0.5454800000000 1.0
C      1  0.4943530000000  0.5619140000000  0.4726950000000 1.0
C      1  0.5762300000000  0.4760660000000  0.4734010000000 1.0
C      1  0.4962220000000  0.5129290000000  0.4221900000000 1.0
C      1  0.4669160000000  0.4592440000000  0.5151730000000 1.0
C      1  0.5130930000000  0.5003030000000  0.4757030000000 1.0
C      1  0.5046310000000  0.5567280000000  0.4471010000000 1.0
C      1  0.5456240000000  0.4487320000000  0.4472050000000 1.0
C      1  0.4243720000000  0.4472570000000  0.4810480000000 1.0
C      1  0.4177670000000  0.4870730000000  0.5750400000000 1.0
C      1  0.4480240000000  0.5246550000000  0.4859950000000 1.0
C      1  0.5125580000000  0.4652930000000  0.5319410000000 1.0
C      1  0.4814300000000  0.4836220000000  0.5873620000000 1.0
C      1  0.4458780000000  0.5510970000000  0.4787170000000 1.0
C      1  0.5067570000000  0.4507940000000  0.4850540000000 1.0
C      1  0.5128290000000  0.5353340000000  0.4308390000000 1.0
C      1  0.5776920000000  0.5241390000000  0.4865610000000 1.0
END
