TITL C-2848499-1157-643 -0.0056615635433776 125000 -459.796615949585 0 0 85 (C1) n - 1
REM
REM in /home/bkarasulu/work/CARBON/AIRSS/Generating-Clusters/AIREBO/with-SteepDescent/Only-C1/SD-CG-opt/Try1-1.4A-POS3A/HFTN-CG
REM
REM
REM
REM
REM
REM ./C.cell (11c1c37f851c82e70ff6c80c92926a4b)
REM
REM compiler GCC version 9.2.1 20190827 (Red Hat 9.2.1-1)
REM options -cpp -mtune=generic -march=x86-64 -g -O0 -fpre-include=/usr/include/finclude/math-vector-fortran.h
REM seed -1428994515 -2067061463 1086696692 -1512926709 -198190060 -598919811 1087943259 90407518 333928394 1974926325 1128744170 169932264 909050492 -50268227 -487982380 -322128413 -1572946249 735919844 1695290072 1435027770 -1678553441 -1056206838 -355877167 -1396983201 686197604 1831349934 -856615017 -253303574 1193915221 1560247786 -1992784535 -1629840695 -1606477355
REM
CELL 1.54180   50.00000   50.00000   50.00000   90.00000   90.00000   90.00000
LATT -1
SFAC C  
C      1  0.4311080000000  0.5523290000000  0.4893560000000 1.0
C      1  0.5179700000000  0.5050950000000  0.4729610000000 1.0
C      1  0.6073850000000  0.4826990000000  0.5664460000000 1.0
C      1  0.4657820000000  0.5684240000000  0.4778550000000 1.0
C      1  0.5571040000000  0.5072600000000  0.4315000000000 1.0
C      1  0.5022260000000  0.4215450000000  0.5560560000000 1.0
C      1  0.4950500000000  0.5515740000000  0.4738940000000 1.0
C      1  0.4520630000000  0.5851580000000  0.4984450000000 1.0
C      1  0.5524670000000  0.5313840000000  0.5035410000000 1.0
C      1  0.4393270000000  0.5569790000000  0.4590620000000 1.0
C      1  0.5130370000000  0.4597470000000  0.5269620000000 1.0
C      1  0.5275320000000  0.5009210000000  0.4176880000000 1.0
C      1  0.4681390000000  0.4626820000000  0.4325310000000 1.0
C      1  0.4669690000000  0.5488270000000  0.6024580000000 1.0
C      1  0.4625610000000  0.5072900000000  0.4710780000000 1.0
C      1  0.5360680000000  0.4820550000000  0.5355780000000 1.0
C      1  0.4662310000000  0.4772000000000  0.5210430000000 1.0
C      1  0.5570150000000  0.4304870000000  0.5078310000000 1.0
C      1  0.5709870000000  0.5424180000000  0.5526690000000 1.0
C      1  0.4831690000000  0.5686190000000  0.5361360000000 1.0
C      1  0.4747360000000  0.5278380000000  0.5130540000000 1.0
C      1  0.4892310000000  0.5084810000000  0.4908230000000 1.0
C      1  0.5274660000000  0.4267300000000  0.4630020000000 1.0
C      1  0.6116110000000  0.5020410000000  0.5102820000000 1.0
C      1  0.4385550000000  0.4528890000000  0.4975330000000 1.0
C      1  0.4796290000000  0.5141090000000  0.4178510000000 1.0
C      1  0.4353330000000  0.4752800000000  0.4639830000000 1.0
C      1  0.4458620000000  0.4532870000000  0.4465870000000 1.0
C      1  0.5592660000000  0.5253060000000  0.4530370000000 1.0
C      1  0.4607460000000  0.4803790000000  0.5747850000000 1.0
C      1  0.5074710000000  0.4833550000000  0.5046850000000 1.0
C      1  0.4901890000000  0.5910360000000  0.4708230000000 1.0
C      1  0.5797870000000  0.5516140000000  0.5021550000000 1.0
C      1  0.5240330000000  0.5379530000000  0.5151230000000 1.0
C      1  0.4383400000000  0.5382910000000  0.4399610000000 1.0
C      1  0.5160450000000  0.5074020000000  0.5277990000000 1.0
C      1  0.5065470000000  0.5233580000000  0.4229020000000 1.0
C      1  0.4917900000000  0.4847220000000  0.5687950000000 1.0
C      1  0.5753700000000  0.5301890000000  0.5279770000000 1.0
C      1  0.5228770000000  0.4675750000000  0.4244540000000 1.0
C      1  0.5331180000000  0.4763440000000  0.4836750000000 1.0
C      1  0.4595900000000  0.4777590000000  0.4876930000000 1.0
C      1  0.5130070000000  0.5327180000000  0.4545460000000 1.0
C      1  0.4595140000000  0.5633770000000  0.5518550000000 1.0
C      1  0.4400990000000  0.4925360000000  0.5317520000000 1.0
C      1  0.4507270000000  0.5207080000000  0.5339470000000 1.0
C      1  0.4963890000000  0.5097490000000  0.5518380000000 1.0
C      1  0.4224990000000  0.4806380000000  0.5088910000000 1.0
C      1  0.4948290000000  0.5474860000000  0.5234380000000 1.0
C      1  0.5360730000000  0.4437950000000  0.4865200000000 1.0
C      1  0.4742190000000  0.5263820000000  0.5548050000000 1.0
C      1  0.5502000000000  0.5523460000000  0.4648790000000 1.0
C      1  0.5640080000000  0.4731790000000  0.5528070000000 1.0
C      1  0.5808620000000  0.4248470000000  0.5141110000000 1.0
C      1  0.4674160000000  0.5468590000000  0.5761590000000 1.0
C      1  0.5168220000000  0.5657850000000  0.4475070000000 1.0
C      1  0.5868500000000  0.4871470000000  0.5492360000000 1.0
C      1  0.4381400000000  0.4360030000000  0.4702950000000 1.0
C      1  0.5568130000000  0.4694660000000  0.4634210000000 1.0
C      1  0.5488840000000  0.5151840000000  0.4790960000000 1.0
C      1  0.5128260000000  0.5864810000000  0.4816600000000 1.0
C      1  0.4959160000000  0.4605100000000  0.4469500000000 1.0
C      1  0.5244440000000  0.4342390000000  0.5154530000000 1.0
C      1  0.4785000000000  0.4360980000000  0.5523350000000 1.0
C      1  0.5229710000000  0.4364810000000  0.5691650000000 1.0
C      1  0.4384360000000  0.5494680000000  0.5372410000000 1.0
C      1  0.4640180000000  0.4873590000000  0.4213580000000 1.0
C      1  0.5111470000000  0.4908870000000  0.4457410000000 1.0
C      1  0.5134340000000  0.5548550000000  0.4213300000000 1.0
C      1  0.5526200000000  0.4775210000000  0.4376200000000 1.0
C      1  0.5262680000000  0.5562650000000  0.4865210000000 1.0
C      1  0.5913170000000  0.5053360000000  0.5284560000000 1.0
C      1  0.5072030000000  0.4831170000000  0.5919640000000 1.0
C      1  0.5067760000000  0.4305390000000  0.4494210000000 1.0
C      1  0.4152570000000  0.4861840000000  0.4818050000000 1.0
C      1  0.4453090000000  0.4712420000000  0.5545930000000 1.0
C      1  0.4900220000000  0.4682590000000  0.4796790000000 1.0
C      1  0.4858140000000  0.4650670000000  0.5418250000000 1.0
C      1  0.4562250000000  0.5133050000000  0.4415980000000 1.0
C      1  0.4227300000000  0.5571610000000  0.5153110000000 1.0
C      1  0.5384180000000  0.4561490000000  0.5576250000000 1.0
C      1  0.4392260000000  0.4352110000000  0.5228900000000 1.0
C      1  0.5125740000000  0.4107850000000  0.5315150000000 1.0
C      1  0.4509190000000  0.4447620000000  0.5465560000000 1.0
C      1  0.4604950000000  0.5358830000000  0.4862150000000 1.0
END
