TITL C-2847952-8118-344 0.00253861282958531 125000 -912.366179949905 0 0 166 (C1) n - 1
REM
REM in /home/bkarasulu/work/CARBON/AIRSS/Generating-Clusters/AIREBO/with-SteepDescent/Only-C1/SD-CG-opt/Try1-1.4A-POS3A/HFTN-CG
REM
REM
REM
REM
REM
REM ./C.cell (11c1c37f851c82e70ff6c80c92926a4b)
REM
REM compiler GCC version 9.2.1 20190827 (Red Hat 9.2.1-1)
REM options -cpp -mtune=generic -march=x86-64 -g -O0 -fpre-include=/usr/include/finclude/math-vector-fortran.h
REM seed 968334541 700349632 2003111814 864385472 -698265164 677576878 532109919 -75992656 -76108564 1251175170 787982860 -2039309110 -1331995533 1202594374 1493611357 -1107955627 -181192880 162733957 170796536 -787836944 55451181 -1515394904 -553081745 -383652912 1872762890 -1324469547 1364013903 -678712219 -1777395541 429306624 -949900261 1870578150 665650677
REM
CELL 1.54180   50.00000   50.00000   50.00000   90.00000   90.00000   90.00000
LATT -1
SFAC C  
C      1  0.5228220000000  0.5109900000000  0.4690720000000 1.0
C      1  0.5526720000000  0.5351760000000  0.5007420000000 1.0
C      1  0.5026520000000  0.5351580000000  0.5114690000000 1.0
C      1  0.5837700000000  0.5519690000000  0.5676260000000 1.0
C      1  0.4581040000000  0.4964600000000  0.4783980000000 1.0
C      1  0.4500370000000  0.4581590000000  0.4706400000000 1.0
C      1  0.4960720000000  0.4937560000000  0.5504920000000 1.0
C      1  0.5888540000000  0.5831240000000  0.5001360000000 1.0
C      1  0.5361540000000  0.5515980000000  0.5596100000000 1.0
C      1  0.5156500000000  0.5665080000000  0.5759290000000 1.0
C      1  0.5746090000000  0.4635290000000  0.5539250000000 1.0
C      1  0.5331000000000  0.4800950000000  0.4746130000000 1.0
C      1  0.5219710000000  0.5788150000000  0.5340940000000 1.0
C      1  0.5111500000000  0.4825340000000  0.5004720000000 1.0
C      1  0.4989780000000  0.5562720000000  0.5378700000000 1.0
C      1  0.5242550000000  0.5597930000000  0.4060250000000 1.0
C      1  0.5177900000000  0.6127170000000  0.4914420000000 1.0
C      1  0.4070580000000  0.5127170000000  0.5371730000000 1.0
C      1  0.5935070000000  0.5512020000000  0.5422040000000 1.0
C      1  0.5156340000000  0.4785490000000  0.4321290000000 1.0
C      1  0.5585750000000  0.5422530000000  0.5765800000000 1.0
C      1  0.3772730000000  0.5062690000000  0.5043410000000 1.0
C      1  0.4337490000000  0.4303640000000  0.4732570000000 1.0
C      1  0.4599950000000  0.5620990000000  0.4987770000000 1.0
C      1  0.4883130000000  0.4090710000000  0.5345250000000 1.0
C      1  0.5414540000000  0.4777310000000  0.5766580000000 1.0
C      1  0.5502550000000  0.5958650000000  0.5255410000000 1.0
C      1  0.5640990000000  0.4788820000000  0.4692400000000 1.0
C      1  0.4193820000000  0.5351430000000  0.5225750000000 1.0
C      1  0.5939140000000  0.4405090000000  0.4913250000000 1.0
C      1  0.4306950000000  0.5326330000000  0.4296840000000 1.0
C      1  0.4466780000000  0.5044650000000  0.4255770000000 1.0
C      1  0.4559430000000  0.4313670000000  0.5417820000000 1.0
C      1  0.3951800000000  0.4547880000000  0.5132670000000 1.0
C      1  0.4687980000000  0.5478380000000  0.5283820000000 1.0
C      1  0.4991530000000  0.4055850000000  0.5059100000000 1.0
C      1  0.5498860000000  0.4637770000000  0.6021290000000 1.0
C      1  0.6077260000000  0.4711300000000  0.4963250000000 1.0
C      1  0.5633770000000  0.5970470000000  0.5006490000000 1.0
C      1  0.4492190000000  0.5703440000000  0.5369500000000 1.0
C      1  0.4207390000000  0.5068830000000  0.5604060000000 1.0
C      1  0.4908580000000  0.5582720000000  0.4043780000000 1.0
C      1  0.6062020000000  0.5251070000000  0.5244740000000 1.0
C      1  0.4926950000000  0.5139720000000  0.4693190000000 1.0
C      1  0.4646740000000  0.3888700000000  0.4944670000000 1.0
C      1  0.4751210000000  0.4499620000000  0.3858030000000 1.0
C      1  0.5224850000000  0.3941520000000  0.4891730000000 1.0
C      1  0.4316630000000  0.5598890000000  0.4835270000000 1.0
C      1  0.5112710000000  0.5019070000000  0.5970690000000 1.0
C      1  0.4701680000000  0.4852500000000  0.5708280000000 1.0
C      1  0.4734900000000  0.3976470000000  0.4704710000000 1.0
C      1  0.5271390000000  0.5266100000000  0.5423050000000 1.0
C      1  0.5422950000000  0.5863810000000  0.4560260000000 1.0
C      1  0.4604370000000  0.5012990000000  0.5119730000000 1.0
C      1  0.5703380000000  0.5005950000000  0.4447600000000 1.0
C      1  0.4593920000000  0.5082060000000  0.5910730000000 1.0
C      1  0.4880920000000  0.4832380000000  0.4790610000000 1.0
C      1  0.5111170000000  0.4304890000000  0.5347310000000 1.0
C      1  0.4498140000000  0.4691280000000  0.5090470000000 1.0
C      1  0.4549550000000  0.5378990000000  0.5811710000000 1.0
C      1  0.4173640000000  0.4685560000000  0.5679020000000 1.0
C      1  0.5730880000000  0.5049390000000  0.4843480000000 1.0
C      1  0.4778960000000  0.5770770000000  0.4653810000000 1.0
C      1  0.4900950000000  0.5205520000000  0.5990850000000 1.0
C      1  0.4685560000000  0.4243780000000  0.4320050000000 1.0
C      1  0.5074690000000  0.4989890000000  0.4083590000000 1.0
C      1  0.5248910000000  0.5043500000000  0.5660080000000 1.0
C      1  0.4435020000000  0.5258850000000  0.5008340000000 1.0
C      1  0.5253970000000  0.4158200000000  0.4440500000000 1.0
C      1  0.4736900000000  0.5903980000000  0.4963880000000 1.0
C      1  0.5135610000000  0.4498750000000  0.5096340000000 1.0
C      1  0.4240880000000  0.4774250000000  0.5295350000000 1.0
C      1  0.5703560000000  0.4552600000000  0.4262060000000 1.0
C      1  0.4289310000000  0.4808090000000  0.4847040000000 1.0
C      1  0.4573970000000  0.4533940000000  0.4271340000000 1.0
C      1  0.4549950000000  0.4125030000000  0.4557990000000 1.0
C      1  0.4995780000000  0.4600930000000  0.5468930000000 1.0
C      1  0.4462650000000  0.4841880000000  0.4489810000000 1.0
C      1  0.6208360000000  0.4996910000000  0.5095330000000 1.0
C      1  0.4978160000000  0.5352980000000  0.4219310000000 1.0
C      1  0.5449220000000  0.6032690000000  0.4805860000000 1.0
C      1  0.6069300000000  0.5402590000000  0.4738540000000 1.0
C      1  0.4443530000000  0.5625650000000  0.4215780000000 1.0
C      1  0.4343390000000  0.5550300000000  0.4532900000000 1.0
C      1  0.6010440000000  0.5514800000000  0.5031410000000 1.0
C      1  0.5384760000000  0.4195130000000  0.5428910000000 1.0
C      1  0.5426780000000  0.4646070000000  0.5192420000000 1.0
C      1  0.5532800000000  0.5672730000000  0.5383730000000 1.0
C      1  0.4933030000000  0.6056700000000  0.5094430000000 1.0
C      1  0.5516170000000  0.4374930000000  0.4439580000000 1.0
C      1  0.5620900000000  0.4478120000000  0.4988900000000 1.0
C      1  0.4801330000000  0.4546200000000  0.4710420000000 1.0
C      1  0.5661250000000  0.5691780000000  0.4442670000000 1.0
C      1  0.3940530000000  0.4876980000000  0.5217510000000 1.0
C      1  0.5716590000000  0.4922240000000  0.5358780000000 1.0
C      1  0.5079690000000  0.5886050000000  0.4764040000000 1.0
C      1  0.4959210000000  0.5468840000000  0.5909030000000 1.0
C      1  0.5236100000000  0.5459070000000  0.4883120000000 1.0
C      1  0.4757800000000  0.5326360000000  0.4924250000000 1.0
C      1  0.4073840000000  0.4454610000000  0.4886110000000 1.0
C      1  0.4821130000000  0.4803670000000  0.3900000000000 1.0
C      1  0.4732920000000  0.4292020000000  0.3996210000000 1.0
C      1  0.5626720000000  0.4447160000000  0.5769960000000 1.0
C      1  0.5035510000000  0.4085170000000  0.4667220000000 1.0
C      1  0.5307710000000  0.5354200000000  0.4294670000000 1.0
C      1  0.5188970000000  0.4761460000000  0.6092510000000 1.0
C      1  0.4464580000000  0.5260980000000  0.4664390000000 1.0
C      1  0.4927900000000  0.4453340000000  0.4438560000000 1.0
C      1  0.5540100000000  0.5152230000000  0.5798560000000 1.0
C      1  0.4098790000000  0.5467960000000  0.4959070000000 1.0
C      1  0.3873390000000  0.5327920000000  0.4872400000000 1.0
C      1  0.4746630000000  0.5149380000000  0.5346750000000 1.0
C      1  0.4858030000000  0.4675490000000  0.4200650000000 1.0
C      1  0.5543560000000  0.4094140000000  0.5236320000000 1.0
C      1  0.5009110000000  0.4556590000000  0.6023110000000 1.0
C      1  0.4741730000000  0.5048520000000  0.4122310000000 1.0
C      1  0.5873920000000  0.4937320000000  0.5080880000000 1.0
C      1  0.4428580000000  0.4356560000000  0.5042740000000 1.0
C      1  0.4945880000000  0.6075540000000  0.5380720000000 1.0
C      1  0.5608100000000  0.5419350000000  0.4440030000000 1.0
C      1  0.4500830000000  0.5743270000000  0.5681840000000 1.0
C      1  0.5706660000000  0.5522530000000  0.5173990000000 1.0
C      1  0.5325990000000  0.4401730000000  0.4841540000000 1.0
C      1  0.5646550000000  0.4824910000000  0.4191090000000 1.0
C      1  0.4080700000000  0.4579000000000  0.4598080000000 1.0
C      1  0.4608930000000  0.4095830000000  0.5166790000000 1.0
C      1  0.4695490000000  0.5736150000000  0.4156980000000 1.0
C      1  0.5109720000000  0.5046900000000  0.5219400000000 1.0
C      1  0.5239740000000  0.4542880000000  0.4544450000000 1.0
C      1  0.4723540000000  0.5477170000000  0.4621450000000 1.0
C      1  0.4247220000000  0.5560710000000  0.5432440000000 1.0
C      1  0.3823760000000  0.5042090000000  0.4736600000000 1.0
C      1  0.4801790000000  0.5900610000000  0.4356440000000 1.0
C      1  0.4760030000000  0.4592730000000  0.5854220000000 1.0
C      1  0.5254440000000  0.5561380000000  0.4559300000000 1.0
C      1  0.5404820000000  0.4821450000000  0.5445090000000 1.0
C      1  0.4286900000000  0.4575290000000  0.4372870000000 1.0
C      1  0.5953540000000  0.4535560000000  0.4386270000000 1.0
C      1  0.5923480000000  0.5127020000000  0.5519640000000 1.0
C      1  0.5683490000000  0.4279070000000  0.4720360000000 1.0
C      1  0.4281360000000  0.4442420000000  0.5327060000000 1.0
C      1  0.4287520000000  0.4929120000000  0.5893240000000 1.0
C      1  0.5913450000000  0.5208310000000  0.4624610000000 1.0
C      1  0.5070890000000  0.5909220000000  0.5606800000000 1.0
C      1  0.4144810000000  0.5048820000000  0.4370410000000 1.0
C      1  0.4447990000000  0.4835810000000  0.5545530000000 1.0
C      1  0.3993900000000  0.4518890000000  0.5471410000000 1.0
C      1  0.5320780000000  0.5147620000000  0.4024740000000 1.0
C      1  0.5495470000000  0.5146990000000  0.5231190000000 1.0
C      1  0.5107120000000  0.5843970000000  0.4440760000000 1.0
C      1  0.4467650000000  0.4133860000000  0.5691550000000 1.0
C      1  0.5085250000000  0.4400480000000  0.5733330000000 1.0
C      1  0.4788440000000  0.5563810000000  0.5655590000000 1.0
C      1  0.5921930000000  0.4631470000000  0.4673660000000 1.0
C      1  0.4054620000000  0.4903160000000  0.4620130000000 1.0
C      1  0.4791320000000  0.5216410000000  0.4414000000000 1.0
C      1  0.5541330000000  0.4989600000000  0.3986180000000 1.0
C      1  0.5385110000000  0.4293230000000  0.5693800000000 1.0
C      1  0.4704360000000  0.4603590000000  0.5346270000000 1.0
C      1  0.5780610000000  0.5011650000000  0.5743070000000 1.0
C      1  0.4934060000000  0.4334860000000  0.4876860000000 1.0
C      1  0.4757780000000  0.4316990000000  0.5694000000000 1.0
C      1  0.5367430000000  0.5038410000000  0.4406200000000 1.0
C      1  0.4275720000000  0.5477810000000  0.5721470000000 1.0
C      1  0.5476160000000  0.4110550000000  0.4932550000000 1.0
C      1  0.5525190000000  0.5260680000000  0.4698210000000 1.0
END
