TITL C-2847956-8218-632 -0.00349866542384182 125000 -984.915100033182 0 0 190 (C1) n - 1
REM
REM in /home/bkarasulu/work/CARBON/AIRSS/Generating-Clusters/AIREBO/with-SteepDescent/Only-C1/SD-CG-opt/Try1-1.4A-POS3A/HFTN-CG
REM
REM
REM
REM
REM
REM ./C.cell (11c1c37f851c82e70ff6c80c92926a4b)
REM
REM compiler GCC version 9.2.1 20190827 (Red Hat 9.2.1-1)
REM options -cpp -mtune=generic -march=x86-64 -g -O0 -fpre-include=/usr/include/finclude/math-vector-fortran.h
REM seed 930672026 730603228 1005625502 -1701112096 -304972023 -845501776 616031611 -1641086273 1438476075 402738830 489091362 -815883570 770099023 -1282868337 436664130 995176453 485327321 -669136077 854785148 -436650757 -1613778096 -802366421 -1222310897 11759785 -1162831113 -1279100820 -246495121 1722071019 -274545812 1771232942 1710076524 -452587728 1041224028
REM
CELL 1.54180   50.00000   50.00000   50.00000   90.00000   90.00000   90.00000
LATT -1
SFAC C  
C      1  0.4851870000000  0.5653670000000  0.5042690000000 1.0
C      1  0.5624960000000  0.5528350000000  0.4265580000000 1.0
C      1  0.5780060000000  0.5393180000000  0.5628710000000 1.0
C      1  0.5336010000000  0.5353950000000  0.5103790000000 1.0
C      1  0.4302540000000  0.5757380000000  0.4612210000000 1.0
C      1  0.5613690000000  0.4672910000000  0.5507870000000 1.0
C      1  0.5422050000000  0.4117280000000  0.4725630000000 1.0
C      1  0.4767930000000  0.4751840000000  0.3900390000000 1.0
C      1  0.4955270000000  0.3765140000000  0.5031790000000 1.0
C      1  0.4829060000000  0.5511380000000  0.3974730000000 1.0
C      1  0.4048190000000  0.4622870000000  0.4837510000000 1.0
C      1  0.5424690000000  0.4403500000000  0.4121870000000 1.0
C      1  0.5155160000000  0.4249190000000  0.5777900000000 1.0
C      1  0.4399590000000  0.5849460000000  0.4887450000000 1.0
C      1  0.4139700000000  0.4371780000000  0.4718850000000 1.0
C      1  0.5664260000000  0.4708520000000  0.5842570000000 1.0
C      1  0.5682020000000  0.4291980000000  0.5606320000000 1.0
C      1  0.4730370000000  0.4903170000000  0.4618090000000 1.0
C      1  0.5408150000000  0.4825010000000  0.3878910000000 1.0
C      1  0.5358550000000  0.4950120000000  0.4808270000000 1.0
C      1  0.5740350000000  0.4941660000000  0.4827000000000 1.0
C      1  0.5225780000000  0.5066070000000  0.5071210000000 1.0
C      1  0.5045730000000  0.5692580000000  0.4448150000000 1.0
C      1  0.4052170000000  0.4838120000000  0.4386040000000 1.0
C      1  0.4751640000000  0.5206110000000  0.5735780000000 1.0
C      1  0.5022670000000  0.5261480000000  0.4686530000000 1.0
C      1  0.4171410000000  0.4785270000000  0.5111020000000 1.0
C      1  0.5411900000000  0.5081360000000  0.5433880000000 1.0
C      1  0.3809270000000  0.5029940000000  0.5131340000000 1.0
C      1  0.5835240000000  0.4334100000000  0.4915320000000 1.0
C      1  0.5567870000000  0.5158560000000  0.5686380000000 1.0
C      1  0.5089410000000  0.4590770000000  0.5193740000000 1.0
C      1  0.5411240000000  0.5333760000000  0.4372780000000 1.0
C      1  0.5869170000000  0.5465450000000  0.4364630000000 1.0
C      1  0.5628240000000  0.4080800000000  0.5417940000000 1.0
C      1  0.4875310000000  0.5372310000000  0.6201020000000 1.0
C      1  0.5042510000000  0.4959550000000  0.6091400000000 1.0
C      1  0.4303180000000  0.5346550000000  0.4971930000000 1.0
C      1  0.5017230000000  0.4274270000000  0.5127700000000 1.0
C      1  0.5924310000000  0.5363960000000  0.5391100000000 1.0
C      1  0.5373900000000  0.5254210000000  0.5915600000000 1.0
C      1  0.5256150000000  0.4022300000000  0.5947660000000 1.0
C      1  0.4651400000000  0.5318550000000  0.6018570000000 1.0
C      1  0.5155800000000  0.3932080000000  0.4623060000000 1.0
C      1  0.4345980000000  0.5616160000000  0.5104500000000 1.0
C      1  0.4795620000000  0.5487840000000  0.5550550000000 1.0
C      1  0.5577350000000  0.5561360000000  0.5761850000000 1.0
C      1  0.5090950000000  0.5073510000000  0.5546410000000 1.0
C      1  0.5884890000000  0.4608110000000  0.5065330000000 1.0
C      1  0.5430340000000  0.4442820000000  0.5337420000000 1.0
C      1  0.4925600000000  0.3867310000000  0.4771710000000 1.0
C      1  0.4110010000000  0.5242560000000  0.5540230000000 1.0
C      1  0.4499370000000  0.4130570000000  0.5427860000000 1.0
C      1  0.4406980000000  0.4475620000000  0.5783610000000 1.0
C      1  0.5440980000000  0.4396610000000  0.5734240000000 1.0
C      1  0.6095730000000  0.5033040000000  0.4522530000000 1.0
C      1  0.5568200000000  0.5277910000000  0.4891700000000 1.0
C      1  0.5033330000000  0.5253320000000  0.5920350000000 1.0
C      1  0.4456950000000  0.4725330000000  0.4959430000000 1.0
C      1  0.5270940000000  0.4208710000000  0.4434880000000 1.0
C      1  0.5692900000000  0.4288020000000  0.4610830000000 1.0
C      1  0.5102120000000  0.4301110000000  0.4154580000000 1.0
C      1  0.4273300000000  0.4684420000000  0.5775900000000 1.0
C      1  0.5498550000000  0.6072010000000  0.5365650000000 1.0
C      1  0.4128640000000  0.4914220000000  0.5604360000000 1.0
C      1  0.5105170000000  0.6100800000000  0.4829660000000 1.0
C      1  0.5228800000000  0.5468870000000  0.4578050000000 1.0
C      1  0.5146690000000  0.5263570000000  0.4168130000000 1.0
C      1  0.4812830000000  0.6124610000000  0.4659540000000 1.0
C      1  0.4133150000000  0.5121220000000  0.5161720000000 1.0
C      1  0.5247030000000  0.4357720000000  0.4890720000000 1.0
C      1  0.5915340000000  0.4545250000000  0.4672920000000 1.0
C      1  0.5083820000000  0.5976470000000  0.4518510000000 1.0
C      1  0.5130920000000  0.4416680000000  0.5482880000000 1.0
C      1  0.5598580000000  0.5774760000000  0.4147790000000 1.0
C      1  0.4557360000000  0.5120730000000  0.4972120000000 1.0
C      1  0.5396220000000  0.5804260000000  0.5088600000000 1.0
C      1  0.5488990000000  0.4289360000000  0.5107880000000 1.0
C      1  0.5289390000000  0.5135380000000  0.3887350000000 1.0
C      1  0.5260190000000  0.6172980000000  0.5278730000000 1.0
C      1  0.5068800000000  0.4685350000000  0.6169110000000 1.0
C      1  0.5784430000000  0.4951320000000  0.5737210000000 1.0
C      1  0.5026560000000  0.5068350000000  0.4406130000000 1.0
C      1  0.4868420000000  0.4201210000000  0.4560570000000 1.0
C      1  0.3968730000000  0.5530320000000  0.5529080000000 1.0
C      1  0.5220940000000  0.5471930000000  0.3909740000000 1.0
C      1  0.5707960000000  0.4652180000000  0.6106250000000 1.0
C      1  0.4498680000000  0.6018080000000  0.5157230000000 1.0
C      1  0.5378490000000  0.6094160000000  0.4527230000000 1.0
C      1  0.5263500000000  0.4817590000000  0.5300300000000 1.0
C      1  0.6046610000000  0.4848680000000  0.4771940000000 1.0
C      1  0.5085820000000  0.4856910000000  0.5798640000000 1.0
C      1  0.4613700000000  0.5030310000000  0.4144970000000 1.0
C      1  0.5061440000000  0.3973680000000  0.5227890000000 1.0
C      1  0.4529610000000  0.5798360000000  0.4394570000000 1.0
C      1  0.4615750000000  0.5573310000000  0.5274930000000 1.0
C      1  0.4366570000000  0.4572230000000  0.4093820000000 1.0
C      1  0.5040070000000  0.5647110000000  0.4138500000000 1.0
C      1  0.4489550000000  0.4749090000000  0.3891550000000 1.0
C      1  0.4254470000000  0.5204450000000  0.4156630000000 1.0
C      1  0.4819840000000  0.5884350000000  0.5481270000000 1.0
C      1  0.5391890000000  0.3928800000000  0.5248570000000 1.0
C      1  0.4902820000000  0.3509370000000  0.5112000000000 1.0
C      1  0.4412270000000  0.5593620000000  0.5729260000000 1.0
C      1  0.5504360000000  0.5486280000000  0.6045870000000 1.0
C      1  0.4272160000000  0.5040800000000  0.4804570000000 1.0
C      1  0.4354420000000  0.4785590000000  0.4640000000000 1.0
C      1  0.5325580000000  0.5570350000000  0.5588940000000 1.0
C      1  0.4589290000000  0.6130380000000  0.4855900000000 1.0
C      1  0.4890470000000  0.4765020000000  0.5023630000000 1.0
C      1  0.5291070000000  0.4684220000000  0.5618620000000 1.0
C      1  0.4460900000000  0.4335160000000  0.4213630000000 1.0
C      1  0.5091570000000  0.5386370000000  0.5417360000000 1.0
C      1  0.4753200000000  0.4301470000000  0.4166890000000 1.0
C      1  0.4749610000000  0.4408750000000  0.5289860000000 1.0
C      1  0.5531280000000  0.3921080000000  0.4963570000000 1.0
C      1  0.5126210000000  0.4799500000000  0.4679650000000 1.0
C      1  0.4514240000000  0.4503730000000  0.4733580000000 1.0
C      1  0.5919010000000  0.4526900000000  0.5540750000000 1.0
C      1  0.4796380000000  0.4617500000000  0.4780120000000 1.0
C      1  0.3700400000000  0.5543660000000  0.4806730000000 1.0
C      1  0.4427780000000  0.5481280000000  0.5973730000000 1.0
C      1  0.4128310000000  0.5720850000000  0.5319010000000 1.0
C      1  0.5564410000000  0.5114880000000  0.4593110000000 1.0
C      1  0.4869060000000  0.4608800000000  0.5710000000000 1.0
C      1  0.4849550000000  0.5253870000000  0.5222290000000 1.0
C      1  0.5623930000000  0.4872470000000  0.4349250000000 1.0
C      1  0.5049930000000  0.4470830000000  0.4637610000000 1.0
C      1  0.5946350000000  0.5390020000000  0.4899430000000 1.0
C      1  0.4355470000000  0.5027450000000  0.3923810000000 1.0
C      1  0.4527310000000  0.5860330000000  0.5641150000000 1.0
C      1  0.6092910000000  0.5117760000000  0.4974780000000 1.0
C      1  0.5813500000000  0.5557280000000  0.5164500000000 1.0
C      1  0.4597020000000  0.5214010000000  0.4654420000000 1.0
C      1  0.4289930000000  0.4257490000000  0.4433370000000 1.0
C      1  0.3957680000000  0.4825990000000  0.4651200000000 1.0
C      1  0.5616890000000  0.5077040000000  0.5162370000000 1.0
C      1  0.4692760000000  0.6013910000000  0.4380760000000 1.0
C      1  0.5049510000000  0.6118650000000  0.5119950000000 1.0
C      1  0.5127350000000  0.5603660000000  0.5158290000000 1.0
C      1  0.4735770000000  0.5213520000000  0.4367040000000 1.0
C      1  0.5411220000000  0.5563320000000  0.4793760000000 1.0
C      1  0.5372350000000  0.5894610000000  0.4783090000000 1.0
C      1  0.4958540000000  0.4830500000000  0.4172670000000 1.0
C      1  0.4665550000000  0.4361580000000  0.5615970000000 1.0
C      1  0.4259560000000  0.4240770000000  0.5335320000000 1.0
C      1  0.4867610000000  0.5562990000000  0.4715270000000 1.0
C      1  0.5498590000000  0.5565300000000  0.5297320000000 1.0
C      1  0.5962430000000  0.4864050000000  0.5532840000000 1.0
C      1  0.4341340000000  0.5941580000000  0.5399360000000 1.0
C      1  0.6130400000000  0.4800620000000  0.5098010000000 1.0
C      1  0.3936120000000  0.5091740000000  0.4817840000000 1.0
C      1  0.4877050000000  0.4119480000000  0.5708690000000 1.0
C      1  0.5434950000000  0.4639450000000  0.4923400000000 1.0
C      1  0.5775180000000  0.4105850000000  0.5112340000000 1.0
C      1  0.5038480000000  0.4501190000000  0.5974080000000 1.0
C      1  0.5349890000000  0.4534720000000  0.4490640000000 1.0
C      1  0.4402520000000  0.5281350000000  0.4369440000000 1.0
C      1  0.4436030000000  0.4204810000000  0.4720590000000 1.0
C      1  0.3851430000000  0.5372950000000  0.4933180000000 1.0
C      1  0.4684010000000  0.4034510000000  0.4710320000000 1.0
C      1  0.4663620000000  0.4684890000000  0.4410390000000 1.0
C      1  0.5712120000000  0.5881630000000  0.5188170000000 1.0
C      1  0.4555530000000  0.4994770000000  0.5564450000000 1.0
C      1  0.4799590000000  0.4034040000000  0.5430380000000 1.0
C      1  0.5081650000000  0.4869850000000  0.3864980000000 1.0
C      1  0.5870800000000  0.5262830000000  0.4594210000000 1.0
C      1  0.5938380000000  0.5048890000000  0.5269780000000 1.0
C      1  0.4906530000000  0.5087680000000  0.4955970000000 1.0
C      1  0.5635730000000  0.4745880000000  0.5176420000000 1.0
C      1  0.3990320000000  0.5426730000000  0.5205940000000 1.0
C      1  0.4401000000000  0.5410910000000  0.5483010000000 1.0
C      1  0.4933730000000  0.4541880000000  0.4325880000000 1.0
C      1  0.5302670000000  0.4869880000000  0.4411630000000 1.0
C      1  0.4838180000000  0.5813650000000  0.5776350000000 1.0
C      1  0.4834400000000  0.4856800000000  0.5493020000000 1.0
C      1  0.4809090000000  0.5946390000000  0.5193430000000 1.0
C      1  0.5506880000000  0.4676610000000  0.4097130000000 1.0
C      1  0.4185290000000  0.4495250000000  0.5309020000000 1.0
C      1  0.5589830000000  0.4213970000000  0.4304680000000 1.0
C      1  0.4573860000000  0.5551380000000  0.4618650000000 1.0
C      1  0.4855040000000  0.5228770000000  0.3996200000000 1.0
C      1  0.4653550000000  0.4718690000000  0.5236800000000 1.0
C      1  0.5610450000000  0.4691540000000  0.4636830000000 1.0
C      1  0.3864790000000  0.5025410000000  0.5435930000000 1.0
C      1  0.4358260000000  0.4775030000000  0.5395770000000 1.0
C      1  0.5042620000000  0.5561550000000  0.5772330000000 1.0
C      1  0.4382570000000  0.4838300000000  0.4304950000000 1.0
C      1  0.5938840000000  0.6063100000000  0.5094230000000 1.0
C      1  0.4559720000000  0.5181060000000  0.5306800000000 1.0
END
