TITL C-2848506-1665-627 0.00169437222101247 125000 -226.529970215577 0 0 42 (C1) n - 1
REM
REM in /home/bkarasulu/work/CARBON/AIRSS/Generating-Clusters/AIREBO/with-SteepDescent/Only-C1/SD-CG-opt/Try1-1.4A-POS3A/HFTN-CG
REM
REM
REM
REM
REM
REM ./C.cell (11c1c37f851c82e70ff6c80c92926a4b)
REM
REM compiler GCC version 9.2.1 20190827 (Red Hat 9.2.1-1)
REM options -cpp -mtune=generic -march=x86-64 -g -O0 -fpre-include=/usr/include/finclude/math-vector-fortran.h
REM seed -1406201668 345757219 1156563964 -730910038 1564003830 909682824 -998108364 -828063619 -170978584 -2010099082 812294593 -1048363658 -174754190 321122756 -2033197623 -1655359561 -1346947492 -753784519 -1974965291 239644644 -1292828807 -306060658 1254420333 -161547470 -446004299 -202356532 -2003984237 611118423 -1014217368 -1454721290 -683417476 1873304115 -1650578268
REM
CELL 1.54180   50.00000   50.00000   50.00000   90.00000   90.00000   90.00000
LATT -1
SFAC C  
C      1  0.4706070000000  0.4612940000000  0.4648460000000 1.0
C      1  0.5282400000000  0.5063990000000  0.4548620000000 1.0
C      1  0.5222330000000  0.5486340000000  0.4971410000000 1.0
C      1  0.4966340000000  0.4455160000000  0.4599740000000 1.0
C      1  0.5369050000000  0.4801150000000  0.5572380000000 1.0
C      1  0.4423640000000  0.5216780000000  0.4769860000000 1.0
C      1  0.5520670000000  0.4793830000000  0.4882890000000 1.0
C      1  0.4705070000000  0.4835780000000  0.4458190000000 1.0
C      1  0.4984960000000  0.5254400000000  0.5638370000000 1.0
C      1  0.4901830000000  0.5533820000000  0.4586960000000 1.0
C      1  0.4947030000000  0.5029340000000  0.4598290000000 1.0
C      1  0.4935540000000  0.5536510000000  0.4899820000000 1.0
C      1  0.5063890000000  0.4752510000000  0.4753720000000 1.0
C      1  0.5429320000000  0.4823500000000  0.4612940000000 1.0
C      1  0.4928360000000  0.4765840000000  0.5846430000000 1.0
C      1  0.5404180000000  0.5493190000000  0.4771660000000 1.0
C      1  0.4681590000000  0.4685610000000  0.4923820000000 1.0
C      1  0.4599830000000  0.4976130000000  0.4236850000000 1.0
C      1  0.5386890000000  0.4993780000000  0.5112360000000 1.0
C      1  0.5150980000000  0.5407100000000  0.5480400000000 1.0
C      1  0.5208310000000  0.4564080000000  0.5509310000000 1.0
C      1  0.4777830000000  0.5298360000000  0.5069150000000 1.0
C      1  0.4702240000000  0.5218910000000  0.5597590000000 1.0
C      1  0.5392920000000  0.5319450000000  0.4559230000000 1.0
C      1  0.4941570000000  0.4600450000000  0.5603350000000 1.0
C      1  0.4614370000000  0.5571840000000  0.5006070000000 1.0
C      1  0.4697290000000  0.5238500000000  0.4219430000000 1.0
C      1  0.5254890000000  0.4580080000000  0.4531440000000 1.0
C      1  0.4618970000000  0.5016840000000  0.5435510000000 1.0
C      1  0.4749260000000  0.4702060000000  0.5385320000000 1.0
C      1  0.4767160000000  0.4936940000000  0.5139940000000 1.0
C      1  0.5103510000000  0.4964010000000  0.5635810000000 1.0
C      1  0.4711890000000  0.5083260000000  0.4837900000000 1.0
C      1  0.5043900000000  0.5040540000000  0.5308320000000 1.0
C      1  0.5531310000000  0.4907950000000  0.5382270000000 1.0
C      1  0.5248320000000  0.5283720000000  0.5187120000000 1.0
C      1  0.5155010000000  0.4769070000000  0.5038070000000 1.0
C      1  0.5482100000000  0.4537580000000  0.5001520000000 1.0
C      1  0.4863190000000  0.5310970000000  0.4439770000000 1.0
C      1  0.4904340000000  0.4563130000000  0.5133000000000 1.0
C      1  0.5224900000000  0.4491460000000  0.5211670000000 1.0
C      1  0.4396750000000  0.5483100000000  0.4855030000000 1.0
END
