TITL C-2848506-1665-105 -0.00119283597657828 125000 -961.258156845558 0 0 179 (C1) n - 1
REM
REM in /home/bkarasulu/work/CARBON/AIRSS/Generating-Clusters/AIREBO/with-SteepDescent/Only-C1/SD-CG-opt/Try1-1.4A-POS3A/HFTN-CG
REM
REM
REM
REM
REM
REM ./C.cell (11c1c37f851c82e70ff6c80c92926a4b)
REM
REM compiler GCC version 9.2.1 20190827 (Red Hat 9.2.1-1)
REM options -cpp -mtune=generic -march=x86-64 -g -O0 -fpre-include=/usr/include/finclude/math-vector-fortran.h
REM seed 12673469 -1221436811 434417557 -1270651293 1346210649 509300841 -476934235 -2033932434 1625271102 -543333401 1568555739 1008566991 1121768566 -1897880402 1991373017 -1364792010 147982523 1689302920 2034042243 -2015859930 213310508 -1143534068 1029914509 1822733869 172285458 -1167692877 245665381 -1375487239 1342584098 -1228161747 1810201931 1976112031 84065859
REM
CELL 1.54180   50.00000   50.00000   50.00000   90.00000   90.00000   90.00000
LATT -1
SFAC C  
C      1  0.5774500000000  0.5538300000000  0.5691980000000 1.0
C      1  0.3911240000000  0.4769090000000  0.4914700000000 1.0
C      1  0.4448740000000  0.4176330000000  0.4579540000000 1.0
C      1  0.4470330000000  0.4984420000000  0.4048210000000 1.0
C      1  0.4000350000000  0.5305010000000  0.4947010000000 1.0
C      1  0.5690810000000  0.5501650000000  0.5115490000000 1.0
C      1  0.5625140000000  0.4667180000000  0.5551280000000 1.0
C      1  0.5326220000000  0.4676390000000  0.5901060000000 1.0
C      1  0.5960250000000  0.4500360000000  0.5127590000000 1.0
C      1  0.4309840000000  0.5200760000000  0.5173930000000 1.0
C      1  0.4783350000000  0.5615920000000  0.5806820000000 1.0
C      1  0.4001690000000  0.4580330000000  0.4656200000000 1.0
C      1  0.5385260000000  0.5321770000000  0.5978110000000 1.0
C      1  0.4612970000000  0.4946880000000  0.4789060000000 1.0
C      1  0.4911410000000  0.5837770000000  0.4795760000000 1.0
C      1  0.5951560000000  0.4578840000000  0.4860890000000 1.0
C      1  0.4963970000000  0.4767240000000  0.3724130000000 1.0
C      1  0.5957760000000  0.4645860000000  0.4540170000000 1.0
C      1  0.4259920000000  0.4353930000000  0.5003960000000 1.0
C      1  0.5627300000000  0.4929980000000  0.5722120000000 1.0
C      1  0.5358160000000  0.4145460000000  0.5139230000000 1.0
C      1  0.4497940000000  0.5450030000000  0.4753560000000 1.0
C      1  0.4341180000000  0.4503520000000  0.5366520000000 1.0
C      1  0.4721330000000  0.5237670000000  0.5088820000000 1.0
C      1  0.4319990000000  0.5809110000000  0.4934440000000 1.0
C      1  0.4496300000000  0.5473390000000  0.5092890000000 1.0
C      1  0.4477440000000  0.4700600000000  0.4109340000000 1.0
C      1  0.4964530000000  0.5960170000000  0.5243640000000 1.0
C      1  0.5239350000000  0.5077070000000  0.5634750000000 1.0
C      1  0.4766990000000  0.4407620000000  0.4316820000000 1.0
C      1  0.3956330000000  0.5003860000000  0.5098800000000 1.0
C      1  0.4955660000000  0.4521670000000  0.4113920000000 1.0
C      1  0.4489760000000  0.5921690000000  0.5162990000000 1.0
C      1  0.5348000000000  0.5463680000000  0.5107410000000 1.0
C      1  0.4389350000000  0.4246680000000  0.5711330000000 1.0
C      1  0.4878900000000  0.4425680000000  0.5725370000000 1.0
C      1  0.4863990000000  0.5597760000000  0.3988770000000 1.0
C      1  0.4108920000000  0.4886150000000  0.4286490000000 1.0
C      1  0.4722900000000  0.5166840000000  0.5607240000000 1.0
C      1  0.5441980000000  0.5888010000000  0.4525580000000 1.0
C      1  0.5148940000000  0.6021030000000  0.4635510000000 1.0
C      1  0.5943630000000  0.5344190000000  0.5547840000000 1.0
C      1  0.3981820000000  0.4872340000000  0.4540110000000 1.0
C      1  0.5018570000000  0.4881540000000  0.5465320000000 1.0
C      1  0.4876710000000  0.5189210000000  0.5975290000000 1.0
C      1  0.4546340000000  0.5946320000000  0.5443660000000 1.0
C      1  0.5063750000000  0.5321740000000  0.5742550000000 1.0
C      1  0.5328840000000  0.4644600000000  0.5394900000000 1.0
C      1  0.5532160000000  0.4709930000000  0.5060450000000 1.0
C      1  0.4381740000000  0.5009400000000  0.5428090000000 1.0
C      1  0.5709340000000  0.4338440000000  0.5497710000000 1.0
C      1  0.5281450000000  0.4727970000000  0.4857240000000 1.0
C      1  0.5815980000000  0.4885640000000  0.4825560000000 1.0
C      1  0.4999750000000  0.4333540000000  0.4647900000000 1.0
C      1  0.5009920000000  0.4921430000000  0.4599700000000 1.0
C      1  0.4219210000000  0.4693100000000  0.5005740000000 1.0
C      1  0.6158650000000  0.5402510000000  0.4807260000000 1.0
C      1  0.4262380000000  0.5473520000000  0.5650270000000 1.0
C      1  0.5339860000000  0.4867630000000  0.4037870000000 1.0
C      1  0.4148230000000  0.4741700000000  0.5607360000000 1.0
C      1  0.4791240000000  0.4491500000000  0.5299980000000 1.0
C      1  0.5946730000000  0.5043220000000  0.5073350000000 1.0
C      1  0.5540830000000  0.4839940000000  0.4676650000000 1.0
C      1  0.4419590000000  0.4983740000000  0.4384430000000 1.0
C      1  0.4507220000000  0.3968140000000  0.4811700000000 1.0
C      1  0.4481150000000  0.4712720000000  0.5673850000000 1.0
C      1  0.5731240000000  0.4395540000000  0.4601570000000 1.0
C      1  0.6071400000000  0.4925580000000  0.4505280000000 1.0
C      1  0.5657270000000  0.5036880000000  0.4311070000000 1.0
C      1  0.4655410000000  0.4336240000000  0.4957410000000 1.0
C      1  0.5165280000000  0.3891230000000  0.4731710000000 1.0
C      1  0.4831930000000  0.4558990000000  0.4822720000000 1.0
C      1  0.4720380000000  0.3973150000000  0.5377420000000 1.0
C      1  0.5516840000000  0.4264280000000  0.4793470000000 1.0
C      1  0.5526120000000  0.5541430000000  0.5816410000000 1.0
C      1  0.4898630000000  0.5503810000000  0.5507140000000 1.0
C      1  0.4704800000000  0.5736080000000  0.5012560000000 1.0
C      1  0.5030020000000  0.5808020000000  0.5736920000000 1.0
C      1  0.5137840000000  0.4618400000000  0.5644660000000 1.0
C      1  0.5456700000000  0.5469900000000  0.5429700000000 1.0
C      1  0.5974190000000  0.5389940000000  0.5267560000000 1.0
C      1  0.4727730000000  0.5078420000000  0.4492800000000 1.0
C      1  0.4764560000000  0.5360860000000  0.4644740000000 1.0
C      1  0.5206630000000  0.4655790000000  0.4532990000000 1.0
C      1  0.4047160000000  0.4376330000000  0.4404420000000 1.0
C      1  0.5152580000000  0.5567690000000  0.5945240000000 1.0
C      1  0.5065120000000  0.5483460000000  0.4586820000000 1.0
C      1  0.5930780000000  0.5081420000000  0.4307460000000 1.0
C      1  0.5721900000000  0.5739420000000  0.4900120000000 1.0
C      1  0.4298060000000  0.4296200000000  0.4333180000000 1.0
C      1  0.5158290000000  0.4838930000000  0.6130030000000 1.0
C      1  0.4529750000000  0.4870410000000  0.6033360000000 1.0
C      1  0.5794790000000  0.4704000000000  0.5276320000000 1.0
C      1  0.5288440000000  0.5430840000000  0.4110580000000 1.0
C      1  0.5854710000000  0.5499970000000  0.4704720000000 1.0
C      1  0.4924980000000  0.5245960000000  0.4871610000000 1.0
C      1  0.4859020000000  0.4819660000000  0.4986780000000 1.0
C      1  0.5429180000000  0.5099310000000  0.4523270000000 1.0
C      1  0.4800880000000  0.5628060000000  0.4306570000000 1.0
C      1  0.5102820000000  0.4756000000000  0.4237410000000 1.0
C      1  0.4208130000000  0.5469110000000  0.4238810000000 1.0
C      1  0.5508990000000  0.5002500000000  0.5169150000000 1.0
C      1  0.5342070000000  0.6063450000000  0.5027260000000 1.0
C      1  0.5216160000000  0.5115940000000  0.4788080000000 1.0
C      1  0.4717200000000  0.4760440000000  0.5458590000000 1.0
C      1  0.5731280000000  0.5669450000000  0.5408550000000 1.0
C      1  0.4714450000000  0.4619330000000  0.5896640000000 1.0
C      1  0.5830050000000  0.5869340000000  0.5163970000000 1.0
C      1  0.5244670000000  0.3858940000000  0.5003010000000 1.0
C      1  0.5083140000000  0.4954530000000  0.3891840000000 1.0
C      1  0.4490490000000  0.4237970000000  0.5225470000000 1.0
C      1  0.4488720000000  0.4434480000000  0.4184390000000 1.0
C      1  0.4868970000000  0.4885700000000  0.6050850000000 1.0
C      1  0.4658960000000  0.4267990000000  0.5519420000000 1.0
C      1  0.4176310000000  0.5531010000000  0.4992730000000 1.0
C      1  0.4249610000000  0.5251570000000  0.4495830000000 1.0
C      1  0.5103790000000  0.5480390000000  0.3919840000000 1.0
C      1  0.5048580000000  0.4496660000000  0.5152240000000 1.0
C      1  0.4291150000000  0.5578490000000  0.4532350000000 1.0
C      1  0.5320390000000  0.5703480000000  0.5629730000000 1.0
C      1  0.5071200000000  0.5772800000000  0.4435610000000 1.0
C      1  0.5152410000000  0.4818460000000  0.5158890000000 1.0
C      1  0.5772570000000  0.5032400000000  0.5365150000000 1.0
C      1  0.4614480000000  0.4941080000000  0.5189480000000 1.0
C      1  0.4775070000000  0.5296030000000  0.4235610000000 1.0
C      1  0.4970670000000  0.5198420000000  0.5375860000000 1.0
C      1  0.5354900000000  0.5977370000000  0.5301290000000 1.0
C      1  0.4424630000000  0.5828180000000  0.4656090000000 1.0
C      1  0.4393290000000  0.5011350000000  0.5768010000000 1.0
C      1  0.5511700000000  0.5182610000000  0.5526040000000 1.0
C      1  0.5328510000000  0.4021770000000  0.4537380000000 1.0
C      1  0.4175430000000  0.4414680000000  0.5598870000000 1.0
C      1  0.5209060000000  0.5278000000000  0.4393150000000 1.0
C      1  0.5175950000000  0.5637230000000  0.4870390000000 1.0
C      1  0.5027720000000  0.5087490000000  0.4199330000000 1.0
C      1  0.5505990000000  0.4429680000000  0.5253140000000 1.0
C      1  0.5563470000000  0.5566940000000  0.4575960000000 1.0
C      1  0.5933710000000  0.5064950000000  0.5662780000000 1.0
C      1  0.4152230000000  0.5349710000000  0.5436160000000 1.0
C      1  0.4075480000000  0.4923360000000  0.5346650000000 1.0
C      1  0.4774320000000  0.4021810000000  0.5002580000000 1.0
C      1  0.4532860000000  0.4619520000000  0.5114580000000 1.0
C      1  0.4679680000000  0.5402820000000  0.5956010000000 1.0
C      1  0.5948040000000  0.5171510000000  0.4695660000000 1.0
C      1  0.4380820000000  0.5742050000000  0.5592280000000 1.0
C      1  0.5353680000000  0.5643810000000  0.4321590000000 1.0
C      1  0.5361600000000  0.4362370000000  0.5874470000000 1.0
C      1  0.5160580000000  0.5700420000000  0.5263780000000 1.0
C      1  0.4829530000000  0.5947030000000  0.5498850000000 1.0
C      1  0.5449230000000  0.5363430000000  0.4798670000000 1.0
C      1  0.6141790000000  0.5261180000000  0.5064650000000 1.0
C      1  0.5680670000000  0.4114620000000  0.5035970000000 1.0
C      1  0.4097260000000  0.5097490000000  0.4716470000000 1.0
C      1  0.4460170000000  0.5303170000000  0.5775170000000 1.0
C      1  0.4894670000000  0.3954140000000  0.4716130000000 1.0
C      1  0.5637560000000  0.4654800000000  0.4426150000000 1.0
C      1  0.5442540000000  0.5841490000000  0.4839150000000 1.0
C      1  0.5120210000000  0.4228900000000  0.5731240000000 1.0
C      1  0.4695880000000  0.5840430000000  0.4552910000000 1.0
C      1  0.5199240000000  0.4341920000000  0.4922290000000 1.0
C      1  0.5244370000000  0.4088260000000  0.5448320000000 1.0
C      1  0.4930370000000  0.4520620000000  0.3844610000000 1.0
C      1  0.5314780000000  0.4353280000000  0.4542930000000 1.0
C      1  0.4486570000000  0.4712260000000  0.4577910000000 1.0
C      1  0.5859350000000  0.4248210000000  0.5216110000000 1.0
C      1  0.5214190000000  0.5151740000000  0.5129640000000 1.0
C      1  0.4354700000000  0.5440910000000  0.4015130000000 1.0
C      1  0.4561290000000  0.5248630000000  0.4019320000000 1.0
C      1  0.5571770000000  0.4804720000000  0.4157400000000 1.0
C      1  0.4321540000000  0.4471570000000  0.4690550000000 1.0
C      1  0.5015550000000  0.3958150000000  0.5233850000000 1.0
C      1  0.4768570000000  0.4146380000000  0.4500990000000 1.0
C      1  0.5498200000000  0.4179520000000  0.5656840000000 1.0
C      1  0.4574330000000  0.5549360000000  0.5415090000000 1.0
C      1  0.5417710000000  0.5000230000000  0.5980530000000 1.0
C      1  0.4885190000000  0.5525060000000  0.5167930000000 1.0
C      1  0.4807720000000  0.4659470000000  0.4518590000000 1.0
C      1  0.4317670000000  0.4999690000000  0.4928180000000 1.0
C      1  0.5033140000000  0.6113900000000  0.4952600000000 1.0
END
