TITL C-2848497-6229-382 -0.000217405060905803 125000 -636.16787181536 0 0 115 (C1) n - 1
REM
REM in /home/bkarasulu/work/CARBON/AIRSS/Generating-Clusters/AIREBO/with-SteepDescent/Only-C1/SD-CG-opt/Try1-1.4A-POS3A/HFTN-CG
REM
REM
REM
REM
REM
REM ./C.cell (11c1c37f851c82e70ff6c80c92926a4b)
REM
REM compiler GCC version 9.2.1 20190827 (Red Hat 9.2.1-1)
REM options -cpp -mtune=generic -march=x86-64 -g -O0 -fpre-include=/usr/include/finclude/math-vector-fortran.h
REM seed -819744908 -255460312 -877321538 1642997854 -1851818800 -1781898556 -1739124732 -1090268120 -1298827944 -920565397 -2043489304 -845485130 1580251202 1872717900 -811442313 -306315639 -1815052453 661117621 -1015959236 -1728575004 -1163415279 -1056194384 -1796286937 -375171894 -1593764119 1749706145 1647206073 96374841 1491482364 -977836033 -608713947 -343662572 1995374826
REM
CELL 1.54180   50.00000   50.00000   50.00000   90.00000   90.00000   90.00000
LATT -1
SFAC C  
C      1  0.4759230000000  0.4995920000000  0.5801890000000 1.0
C      1  0.5603730000000  0.4465610000000  0.4986500000000 1.0
C      1  0.5058050000000  0.4849420000000  0.5283270000000 1.0
C      1  0.5462700000000  0.4977660000000  0.4171840000000 1.0
C      1  0.4776970000000  0.4594860000000  0.4036420000000 1.0
C      1  0.4726540000000  0.4187930000000  0.4928680000000 1.0
C      1  0.4308450000000  0.5129270000000  0.4509980000000 1.0
C      1  0.4489060000000  0.4305490000000  0.4823660000000 1.0
C      1  0.5779380000000  0.4681610000000  0.5582700000000 1.0
C      1  0.5355100000000  0.4378890000000  0.5441420000000 1.0
C      1  0.5582120000000  0.4917570000000  0.4692540000000 1.0
C      1  0.5666270000000  0.4588540000000  0.4675520000000 1.0
C      1  0.4813440000000  0.5738320000000  0.4424300000000 1.0
C      1  0.4604480000000  0.4665370000000  0.5291000000000 1.0
C      1  0.4692090000000  0.4683470000000  0.5751330000000 1.0
C      1  0.5265700000000  0.5024010000000  0.5104930000000 1.0
C      1  0.4899450000000  0.5762020000000  0.5242770000000 1.0
C      1  0.4769550000000  0.4930520000000  0.5250730000000 1.0
C      1  0.4792780000000  0.4096520000000  0.5442120000000 1.0
C      1  0.5390480000000  0.5102440000000  0.5863640000000 1.0
C      1  0.4949710000000  0.5350130000000  0.4546240000000 1.0
C      1  0.5432190000000  0.5726090000000  0.5224560000000 1.0
C      1  0.5542240000000  0.5422950000000  0.5332570000000 1.0
C      1  0.5264680000000  0.5304000000000  0.4665710000000 1.0
C      1  0.4500400000000  0.5052330000000  0.5082220000000 1.0
C      1  0.4798240000000  0.5554260000000  0.5712020000000 1.0
C      1  0.4513090000000  0.5161000000000  0.5633430000000 1.0
C      1  0.4119880000000  0.5203160000000  0.5230260000000 1.0
C      1  0.4232750000000  0.4488110000000  0.4953080000000 1.0
C      1  0.5698460000000  0.5728190000000  0.4856730000000 1.0
C      1  0.4574690000000  0.5258680000000  0.4055090000000 1.0
C      1  0.4499390000000  0.4634770000000  0.5557810000000 1.0
C      1  0.5165170000000  0.5756570000000  0.4772880000000 1.0
C      1  0.4694880000000  0.5267690000000  0.4369070000000 1.0
C      1  0.5671560000000  0.5328230000000  0.4396280000000 1.0
C      1  0.5412610000000  0.4270770000000  0.5190370000000 1.0
C      1  0.4712530000000  0.5059890000000  0.6103630000000 1.0
C      1  0.5962500000000  0.4755560000000  0.5031700000000 1.0
C      1  0.5895800000000  0.5683550000000  0.5056110000000 1.0
C      1  0.4906970000000  0.5302530000000  0.4032440000000 1.0
C      1  0.5465160000000  0.5586620000000  0.4402180000000 1.0
C      1  0.4712440000000  0.5195140000000  0.5389590000000 1.0
C      1  0.4786880000000  0.4992380000000  0.4075820000000 1.0
C      1  0.4913830000000  0.4218180000000  0.5184780000000 1.0
C      1  0.4332270000000  0.5150860000000  0.4248000000000 1.0
C      1  0.5440310000000  0.4344030000000  0.4710520000000 1.0
C      1  0.5672620000000  0.5523940000000  0.4657400000000 1.0
C      1  0.4981460000000  0.4547390000000  0.5236720000000 1.0
C      1  0.4250140000000  0.5470790000000  0.5264770000000 1.0
C      1  0.5184790000000  0.3969980000000  0.4841140000000 1.0
C      1  0.5132280000000  0.4487910000000  0.4705260000000 1.0
C      1  0.5575620000000  0.4855000000000  0.5793380000000 1.0
C      1  0.5267220000000  0.4900100000000  0.5543250000000 1.0
C      1  0.5473940000000  0.4639130000000  0.5473970000000 1.0
C      1  0.5164340000000  0.4850790000000  0.4400030000000 1.0
C      1  0.4612100000000  0.5554190000000  0.4488820000000 1.0
C      1  0.4442550000000  0.5893480000000  0.5337340000000 1.0
C      1  0.4481340000000  0.4695020000000  0.4907590000000 1.0
C      1  0.4932930000000  0.4846540000000  0.4604320000000 1.0
C      1  0.5074120000000  0.5105680000000  0.5733150000000 1.0
C      1  0.5794640000000  0.4574670000000  0.5246450000000 1.0
C      1  0.4710990000000  0.4357440000000  0.4270700000000 1.0
C      1  0.5057360000000  0.5411890000000  0.5608310000000 1.0
C      1  0.4899210000000  0.5268220000000  0.4832690000000 1.0
C      1  0.5203650000000  0.4115420000000  0.5100280000000 1.0
C      1  0.5209560000000  0.5483610000000  0.4950010000000 1.0
C      1  0.5524000000000  0.5103520000000  0.5448030000000 1.0
C      1  0.5131810000000  0.5623680000000  0.4458600000000 1.0
C      1  0.4808350000000  0.4574200000000  0.4711780000000 1.0
C      1  0.5038330000000  0.5002310000000  0.4872600000000 1.0
C      1  0.4485920000000  0.4969690000000  0.4752360000000 1.0
C      1  0.5377070000000  0.5488880000000  0.5618730000000 1.0
C      1  0.5074830000000  0.4397570000000  0.5502590000000 1.0
C      1  0.5487450000000  0.5368490000000  0.5841010000000 1.0
C      1  0.4870560000000  0.5801600000000  0.4921220000000 1.0
C      1  0.5251390000000  0.5168560000000  0.4357780000000 1.0
C      1  0.4125360000000  0.5109520000000  0.4956900000000 1.0
C      1  0.4365310000000  0.5641310000000  0.5460340000000 1.0
C      1  0.4801650000000  0.4168240000000  0.5681840000000 1.0
C      1  0.5741280000000  0.4899490000000  0.5331780000000 1.0
C      1  0.4464200000000  0.5355470000000  0.5100350000000 1.0
C      1  0.4394190000000  0.4587110000000  0.4352660000000 1.0
C      1  0.4987780000000  0.4187490000000  0.4772450000000 1.0
C      1  0.4575360000000  0.4781710000000  0.4238550000000 1.0
C      1  0.4472560000000  0.5517450000000  0.4735840000000 1.0
C      1  0.5131050000000  0.4555130000000  0.5945680000000 1.0
C      1  0.4336350000000  0.5020350000000  0.5379100000000 1.0
C      1  0.5445720000000  0.4802670000000  0.5199190000000 1.0
C      1  0.4747230000000  0.4577280000000  0.5013880000000 1.0
C      1  0.4543430000000  0.5488240000000  0.5633660000000 1.0
C      1  0.4241260000000  0.4732400000000  0.5442010000000 1.0
C      1  0.5181950000000  0.5783710000000  0.5372570000000 1.0
C      1  0.4720340000000  0.5498650000000  0.4967910000000 1.0
C      1  0.5121600000000  0.5411760000000  0.4192570000000 1.0
C      1  0.5878280000000  0.4914770000000  0.4859590000000 1.0
C      1  0.5281500000000  0.4787100000000  0.4785960000000 1.0
C      1  0.4170730000000  0.4826710000000  0.4949880000000 1.0
C      1  0.5147050000000  0.5456400000000  0.5283330000000 1.0
C      1  0.4676760000000  0.4978440000000  0.4480400000000 1.0
C      1  0.4581450000000  0.4414750000000  0.4548670000000 1.0
C      1  0.5256040000000  0.4370170000000  0.4411090000000 1.0
C      1  0.5021670000000  0.4477970000000  0.4247150000000 1.0
C      1  0.4824130000000  0.5438500000000  0.5284610000000 1.0
C      1  0.5039940000000  0.4791790000000  0.4112580000000 1.0
C      1  0.5448740000000  0.5802070000000  0.4955970000000 1.0
C      1  0.5562340000000  0.5245390000000  0.4780730000000 1.0
C      1  0.5422520000000  0.4647080000000  0.4445810000000 1.0
C      1  0.4263000000000  0.5299670000000  0.4755630000000 1.0
C      1  0.5633740000000  0.5057550000000  0.4389920000000 1.0
C      1  0.4641150000000  0.5919330000000  0.5152300000000 1.0
C      1  0.4896730000000  0.4462380000000  0.5772130000000 1.0
C      1  0.5853750000000  0.5507760000000  0.5267640000000 1.0
C      1  0.4119580000000  0.4574250000000  0.5255080000000 1.0
C      1  0.5300770000000  0.4717150000000  0.5828040000000 1.0
C      1  0.5418770000000  0.5271950000000  0.5057610000000 1.0
END
