TITL C-2848509-3138-242 0.00292063805729282 125000 -220.611683892608 0 0 40 (C1) n - 1
REM
REM in /home/bkarasulu/work/CARBON/AIRSS/Generating-Clusters/AIREBO/with-SteepDescent/Only-C1/SD-CG-opt/Try1-1.4A-POS3A/HFTN-CG
REM
REM
REM
REM
REM
REM ./C.cell (11c1c37f851c82e70ff6c80c92926a4b)
REM
REM compiler GCC version 9.2.1 20190827 (Red Hat 9.2.1-1)
REM options -cpp -mtune=generic -march=x86-64 -g -O0 -fpre-include=/usr/include/finclude/math-vector-fortran.h
REM seed -1078938865 455693189 -2010002118 803925888 415612436 -790448740 -509335529 -1798520441 -340783985 -455146094 -579468495 -805371193 1773406883 1934407228 -1840769819 986336559 1799816483 -2106789833 -91435924 -1249400890 -1081212209 483516144 -1576221868 -1971583458 560316085 1775040162 -1640867675 53384858 1614082408 252727157 1052346963 -922688685 1731161998
REM
CELL 1.54180   50.00000   50.00000   50.00000   90.00000   90.00000   90.00000
LATT -1
SFAC C  
C      1  0.4749550000000  0.5456870000000  0.4929400000000 1.0
C      1  0.5299280000000  0.5087740000000  0.4418550000000 1.0
C      1  0.4970540000000  0.4849070000000  0.5358860000000 1.0
C      1  0.5312020000000  0.5333270000000  0.4565200000000 1.0
C      1  0.5235130000000  0.5210460000000  0.5102890000000 1.0
C      1  0.5435150000000  0.4455880000000  0.5161160000000 1.0
C      1  0.4989070000000  0.4897530000000  0.4582050000000 1.0
C      1  0.5079200000000  0.5494290000000  0.4564220000000 1.0
C      1  0.5081140000000  0.4952320000000  0.5080010000000 1.0
C      1  0.4561580000000  0.4962790000000  0.4329910000000 1.0
C      1  0.4851300000000  0.4887900000000  0.4274980000000 1.0
C      1  0.4814940000000  0.5058800000000  0.5533090000000 1.0
C      1  0.5118480000000  0.5014460000000  0.4209770000000 1.0
C      1  0.5166430000000  0.5540030000000  0.5153550000000 1.0
C      1  0.5009430000000  0.4785580000000  0.4863020000000 1.0
C      1  0.5345790000000  0.5281380000000  0.5399360000000 1.0
C      1  0.4985350000000  0.4517640000000  0.4903590000000 1.0
C      1  0.4760860000000  0.5135300000000  0.4571990000000 1.0
C      1  0.5119310000000  0.4353490000000  0.5161190000000 1.0
C      1  0.4295340000000  0.5113750000000  0.5197250000000 1.0
C      1  0.5252290000000  0.4689730000000  0.5328350000000 1.0
C      1  0.5205520000000  0.5331150000000  0.5627140000000 1.0
C      1  0.5324350000000  0.4869970000000  0.4631660000000 1.0
C      1  0.4909010000000  0.5620840000000  0.5091380000000 1.0
C      1  0.4546070000000  0.5127600000000  0.5427850000000 1.0
C      1  0.4839330000000  0.5396580000000  0.4676040000000 1.0
C      1  0.5437580000000  0.5545940000000  0.5034480000000 1.0
C      1  0.4702690000000  0.4659160000000  0.5306610000000 1.0
C      1  0.4635900000000  0.4944870000000  0.5165570000000 1.0
C      1  0.4577180000000  0.5261260000000  0.5055530000000 1.0
C      1  0.4974870000000  0.5206230000000  0.5708280000000 1.0
C      1  0.5445450000000  0.4961380000000  0.4872530000000 1.0
C      1  0.4534360000000  0.4583590000000  0.5516090000000 1.0
C      1  0.4459650000000  0.5018690000000  0.4630380000000 1.0
C      1  0.5440860000000  0.5282910000000  0.4841990000000 1.0
C      1  0.5465910000000  0.4851140000000  0.5119740000000 1.0
C      1  0.5220080000000  0.4389120000000  0.5483970000000 1.0
C      1  0.5672010000000  0.4378690000000  0.5107750000000 1.0
C      1  0.4382160000000  0.5061300000000  0.4879860000000 1.0
C      1  0.4794840000000  0.4431330000000  0.5134750000000 1.0
END
