TITL C-2848497-6229-94 -0.00105443728631955 125000 -296.555047237955 0 0 53 (C1) n - 1
REM
REM in /home/bkarasulu/work/CARBON/AIRSS/Generating-Clusters/AIREBO/with-SteepDescent/Only-C1/SD-CG-opt/Try1-1.4A-POS3A/HFTN-CG
REM
REM
REM
REM
REM
REM ./C.cell (11c1c37f851c82e70ff6c80c92926a4b)
REM
REM compiler GCC version 9.2.1 20190827 (Red Hat 9.2.1-1)
REM options -cpp -mtune=generic -march=x86-64 -g -O0 -fpre-include=/usr/include/finclude/math-vector-fortran.h
REM seed 88553888 146526019 680696345 1836342316 832804424 -1532909799 -453538219 1266614032 -1687733196 -2001361646 1977577225 -1278633209 480095400 1208968162 279678915 -54346954 -1497067500 761528415 -890770297 -1836634120 -412504612 1327461592 1193016570 1086998903 -1410978958 -643090179 -175700766 -1321078571 937323091 -1510258157 -1625589784 1717471244 -1781989087
REM
CELL 1.54180   50.00000   50.00000   50.00000   90.00000   90.00000   90.00000
LATT -1
SFAC C  
C      1  0.5195800000000  0.5482050000000  0.4521570000000 1.0
C      1  0.4689930000000  0.5053410000000  0.4523630000000 1.0
C      1  0.4478050000000  0.4407770000000  0.4508410000000 1.0
C      1  0.4541140000000  0.5461350000000  0.5361700000000 1.0
C      1  0.5627210000000  0.4996740000000  0.5640870000000 1.0
C      1  0.5557020000000  0.5318950000000  0.4526680000000 1.0
C      1  0.4380020000000  0.5460840000000  0.5137060000000 1.0
C      1  0.5438080000000  0.4544340000000  0.5254050000000 1.0
C      1  0.4830120000000  0.5049800000000  0.5162720000000 1.0
C      1  0.5408890000000  0.5130590000000  0.5585080000000 1.0
C      1  0.5211730000000  0.4954320000000  0.4632920000000 1.0
C      1  0.4675340000000  0.4320440000000  0.4342920000000 1.0
C      1  0.5043700000000  0.5598370000000  0.4677010000000 1.0
C      1  0.4446300000000  0.4606330000000  0.4705270000000 1.0
C      1  0.5190290000000  0.5278550000000  0.5551740000000 1.0
C      1  0.4918910000000  0.5000130000000  0.4733250000000 1.0
C      1  0.5183000000000  0.4544700000000  0.5393810000000 1.0
C      1  0.4674730000000  0.5251550000000  0.5470520000000 1.0
C      1  0.4567620000000  0.4544520000000  0.4977580000000 1.0
C      1  0.4925470000000  0.5175780000000  0.5656820000000 1.0
C      1  0.5273350000000  0.5181460000000  0.4423350000000 1.0
C      1  0.4887880000000  0.5203470000000  0.5932720000000 1.0
C      1  0.4944340000000  0.4279360000000  0.4341400000000 1.0
C      1  0.4832550000000  0.4878180000000  0.5522550000000 1.0
C      1  0.5149790000000  0.4330020000000  0.4993100000000 1.0
C      1  0.5222110000000  0.5557160000000  0.5427430000000 1.0
C      1  0.4306180000000  0.4900030000000  0.5363930000000 1.0
C      1  0.5447020000000  0.4863080000000  0.4857420000000 1.0
C      1  0.4694230000000  0.4470400000000  0.5261520000000 1.0
C      1  0.4431950000000  0.5179070000000  0.4706460000000 1.0
C      1  0.5349810000000  0.4390720000000  0.4749230000000 1.0
C      1  0.5596790000000  0.5317130000000  0.4809470000000 1.0
C      1  0.4353010000000  0.5375970000000  0.4877840000000 1.0
C      1  0.4564460000000  0.4981140000000  0.5353300000000 1.0
C      1  0.5667890000000  0.4483740000000  0.5381900000000 1.0
C      1  0.4428610000000  0.4872060000000  0.4632030000000 1.0
C      1  0.5641260000000  0.5057410000000  0.4908890000000 1.0
C      1  0.5061270000000  0.5128100000000  0.4198890000000 1.0
C      1  0.4904780000000  0.4609040000000  0.5458480000000 1.0
C      1  0.4815450000000  0.5105280000000  0.4251010000000 1.0
C      1  0.5466540000000  0.5672500000000  0.5524940000000 1.0
C      1  0.4800930000000  0.4734690000000  0.4837850000000 1.0
C      1  0.4974700000000  0.5519870000000  0.4969050000000 1.0
C      1  0.4953260000000  0.4546970000000  0.5066760000000 1.0
C      1  0.4774530000000  0.5690720000000  0.5073650000000 1.0
C      1  0.5435430000000  0.4608650000000  0.4970800000000 1.0
C      1  0.5008940000000  0.4849730000000  0.5158530000000 1.0
C      1  0.5237740000000  0.5539170000000  0.5122620000000 1.0
C      1  0.5287680000000  0.4661470000000  0.4551290000000 1.0
C      1  0.5151670000000  0.4384420000000  0.4479180000000 1.0
C      1  0.5460250000000  0.5492490000000  0.4980190000000 1.0
C      1  0.4888950000000  0.5230050000000  0.4948660000000 1.0
C      1  0.5003320000000  0.5725920000000  0.5501960000000 1.0
END
