TITL C-2847957-7266-594 0.000921490543762615 125000 -840.742251623241 0 0 159 (C1) n - 1
REM
REM in /home/bkarasulu/work/CARBON/AIRSS/Generating-Clusters/AIREBO/with-SteepDescent/Only-C1/SD-CG-opt/Try1-1.4A-POS3A/HFTN-CG
REM
REM
REM
REM
REM
REM ./C.cell (11c1c37f851c82e70ff6c80c92926a4b)
REM
REM compiler GCC version 9.2.1 20190827 (Red Hat 9.2.1-1)
REM options -cpp -mtune=generic -march=x86-64 -g -O0 -fpre-include=/usr/include/finclude/math-vector-fortran.h
REM seed 543596972 -1247482458 1381583589 2141086277 1074372779 -658683946 277262562 -703644750 2136453945 -397321080 -228168225 621423851 -1068235380 357104607 -1234823829 1842048548 164955298 -713156247 985986 523324993 699911858 -2037396979 -165112765 1668074744 1359603545 -1214341550 -1318212845 1351874879 1183031251 -650364881 -401703364 -1752417381 1700218912
REM
CELL 1.54180   50.00000   50.00000   50.00000   90.00000   90.00000   90.00000
LATT -1
SFAC C  
C      1  0.4666670000000  0.4017780000000  0.5324280000000 1.0
C      1  0.5139950000000  0.4680970000000  0.6034800000000 1.0
C      1  0.4385020000000  0.6007630000000  0.4909740000000 1.0
C      1  0.5343830000000  0.4538210000000  0.4367230000000 1.0
C      1  0.5103700000000  0.5993240000000  0.5179550000000 1.0
C      1  0.5397520000000  0.5688210000000  0.5488110000000 1.0
C      1  0.4867790000000  0.5544840000000  0.4081880000000 1.0
C      1  0.4105510000000  0.4842510000000  0.4795830000000 1.0
C      1  0.5772010000000  0.4377560000000  0.5450910000000 1.0
C      1  0.5089150000000  0.5642300000000  0.4248640000000 1.0
C      1  0.5638740000000  0.4860920000000  0.5051580000000 1.0
C      1  0.4995860000000  0.5159950000000  0.5078460000000 1.0
C      1  0.4763000000000  0.4486840000000  0.5700770000000 1.0
C      1  0.5133140000000  0.4044800000000  0.5105550000000 1.0
C      1  0.3978780000000  0.5199940000000  0.5520740000000 1.0
C      1  0.4614360000000  0.5908170000000  0.4268860000000 1.0
C      1  0.4355190000000  0.4203960000000  0.4695990000000 1.0
C      1  0.4551220000000  0.4537770000000  0.4795800000000 1.0
C      1  0.4638400000000  0.5588460000000  0.5673070000000 1.0
C      1  0.4937290000000  0.5453130000000  0.4563430000000 1.0
C      1  0.4557540000000  0.5168740000000  0.4286040000000 1.0
C      1  0.4508330000000  0.5412160000000  0.5100650000000 1.0
C      1  0.5301070000000  0.5987940000000  0.4905610000000 1.0
C      1  0.4265490000000  0.4767660000000  0.5493580000000 1.0
C      1  0.4730520000000  0.4424880000000  0.5061970000000 1.0
C      1  0.5214110000000  0.5272250000000  0.5313860000000 1.0
C      1  0.4403570000000  0.5409720000000  0.5625610000000 1.0
C      1  0.5285790000000  0.5826920000000  0.4450490000000 1.0
C      1  0.5029150000000  0.4887630000000  0.5257720000000 1.0
C      1  0.5163810000000  0.5968530000000  0.4668130000000 1.0
C      1  0.4810160000000  0.4553580000000  0.4428480000000 1.0
C      1  0.5567720000000  0.5743890000000  0.4488440000000 1.0
C      1  0.4579460000000  0.4633870000000  0.5898230000000 1.0
C      1  0.5240830000000  0.5406100000000  0.4428950000000 1.0
C      1  0.5501960000000  0.4487520000000  0.5799150000000 1.0
C      1  0.4556260000000  0.4005420000000  0.4716790000000 1.0
C      1  0.5347760000000  0.4792730000000  0.5572890000000 1.0
C      1  0.5063040000000  0.4229750000000  0.5591600000000 1.0
C      1  0.6023500000000  0.4997590000000  0.5189430000000 1.0
C      1  0.4601230000000  0.5757410000000  0.5289520000000 1.0
C      1  0.4978590000000  0.4018500000000  0.5380020000000 1.0
C      1  0.4555260000000  0.4873400000000  0.5397800000000 1.0
C      1  0.5902850000000  0.4786860000000  0.4569760000000 1.0
C      1  0.5118220000000  0.4759220000000  0.4282260000000 1.0
C      1  0.6008980000000  0.4446660000000  0.5217090000000 1.0
C      1  0.4238550000000  0.4486200000000  0.5406330000000 1.0
C      1  0.5268870000000  0.4387380000000  0.5290120000000 1.0
C      1  0.5164190000000  0.5635490000000  0.5710850000000 1.0
C      1  0.5680700000000  0.5208390000000  0.4173380000000 1.0
C      1  0.5261840000000  0.5070610000000  0.4653380000000 1.0
C      1  0.4904230000000  0.5812090000000  0.5365610000000 1.0
C      1  0.4795810000000  0.5160020000000  0.5535350000000 1.0
C      1  0.5418390000000  0.5003590000000  0.5345660000000 1.0
C      1  0.4934470000000  0.4411000000000  0.5333880000000 1.0
C      1  0.5011710000000  0.4478620000000  0.5899690000000 1.0
C      1  0.4867330000000  0.5952040000000  0.4711220000000 1.0
C      1  0.5029710000000  0.4073650000000  0.4456960000000 1.0
C      1  0.4407650000000  0.4370570000000  0.5154240000000 1.0
C      1  0.5409620000000  0.5319390000000  0.5588120000000 1.0
C      1  0.4877470000000  0.5231030000000  0.5847580000000 1.0
C      1  0.5327600000000  0.4289550000000  0.5673930000000 1.0
C      1  0.4830350000000  0.4133770000000  0.4978630000000 1.0
C      1  0.5517770000000  0.4941610000000  0.5902830000000 1.0
C      1  0.5798990000000  0.5315370000000  0.4580920000000 1.0
C      1  0.5769990000000  0.4592290000000  0.4890850000000 1.0
C      1  0.5772520000000  0.4984440000000  0.5675070000000 1.0
C      1  0.4866630000000  0.5265870000000  0.3990970000000 1.0
C      1  0.5354430000000  0.4039610000000  0.4434890000000 1.0
C      1  0.4232590000000  0.4277850000000  0.4922770000000 1.0
C      1  0.5007170000000  0.4920330000000  0.4560790000000 1.0
C      1  0.5396640000000  0.5320280000000  0.5031900000000 1.0
C      1  0.4884890000000  0.5180360000000  0.4378990000000 1.0
C      1  0.4435920000000  0.4434920000000  0.4496180000000 1.0
C      1  0.5364330000000  0.4673150000000  0.5266280000000 1.0
C      1  0.4763250000000  0.5791860000000  0.4992500000000 1.0
C      1  0.5456530000000  0.5149460000000  0.4418660000000 1.0
C      1  0.4058270000000  0.4969430000000  0.5382330000000 1.0
C      1  0.4118180000000  0.5032430000000  0.4560580000000 1.0
C      1  0.4583880000000  0.4935400000000  0.4607340000000 1.0
C      1  0.5666580000000  0.5567310000000  0.4767090000000 1.0
C      1  0.4710700000000  0.4886550000000  0.6028610000000 1.0
C      1  0.6001030000000  0.4842180000000  0.4887320000000 1.0
C      1  0.5979630000000  0.5307930000000  0.5284710000000 1.0
C      1  0.5082260000000  0.5683850000000  0.5039700000000 1.0
C      1  0.5257870000000  0.5117480000000  0.5818190000000 1.0
C      1  0.4727850000000  0.4968330000000  0.4080630000000 1.0
C      1  0.5286540000000  0.4685380000000  0.4956290000000 1.0
C      1  0.4067250000000  0.5015470000000  0.5086060000000 1.0
C      1  0.4489540000000  0.5120070000000  0.5622600000000 1.0
C      1  0.3990140000000  0.5334010000000  0.4994830000000 1.0
C      1  0.5078150000000  0.4080510000000  0.4781640000000 1.0
C      1  0.4335830000000  0.5519610000000  0.4547290000000 1.0
C      1  0.5393370000000  0.5642540000000  0.5140450000000 1.0
C      1  0.5203360000000  0.4347430000000  0.4689200000000 1.0
C      1  0.4325410000000  0.5678450000000  0.4970950000000 1.0
C      1  0.5231020000000  0.5414720000000  0.5950750000000 1.0
C      1  0.5633890000000  0.5252970000000  0.5830890000000 1.0
C      1  0.5667910000000  0.4677960000000  0.5571420000000 1.0
C      1  0.4305290000000  0.5741000000000  0.5364010000000 1.0
C      1  0.5368590000000  0.5242070000000  0.4042430000000 1.0
C      1  0.4394240000000  0.4192020000000  0.5429300000000 1.0
C      1  0.5118570000000  0.5168920000000  0.4131090000000 1.0
C      1  0.5418480000000  0.4677830000000  0.5992360000000 1.0
C      1  0.4138350000000  0.5471960000000  0.5488020000000 1.0
C      1  0.4895590000000  0.4692430000000  0.4063700000000 1.0
C      1  0.4609350000000  0.5635090000000  0.4154280000000 1.0
C      1  0.5130510000000  0.6257080000000  0.5273320000000 1.0
C      1  0.4083130000000  0.5564340000000  0.5175800000000 1.0
C      1  0.5516930000000  0.4719740000000  0.4702750000000 1.0
C      1  0.4096770000000  0.5688370000000  0.4714820000000 1.0
C      1  0.5644540000000  0.4695660000000  0.4388070000000 1.0
C      1  0.5340330000000  0.4844640000000  0.4065710000000 1.0
C      1  0.5849490000000  0.5518560000000  0.5051440000000 1.0
C      1  0.5914240000000  0.5170400000000  0.4866250000000 1.0
C      1  0.4822870000000  0.4700380000000  0.5452700000000 1.0
C      1  0.4771090000000  0.5731450000000  0.4506740000000 1.0
C      1  0.5692080000000  0.4358950000000  0.5120940000000 1.0
C      1  0.5432820000000  0.4149400000000  0.5109880000000 1.0
C      1  0.5008880000000  0.4600310000000  0.4676110000000 1.0
C      1  0.5554100000000  0.5840000000000  0.4936310000000 1.0
C      1  0.4600160000000  0.3910720000000  0.5008490000000 1.0
C      1  0.4775340000000  0.4441810000000  0.4047130000000 1.0
C      1  0.4594160000000  0.6103610000000  0.4808520000000 1.0
C      1  0.5835900000000  0.4732730000000  0.5278810000000 1.0
C      1  0.5627400000000  0.5494920000000  0.4348600000000 1.0
C      1  0.4814550000000  0.5010800000000  0.4826220000000 1.0
C      1  0.4637750000000  0.4784640000000  0.4352750000000 1.0
C      1  0.5375540000000  0.5397590000000  0.4720960000000 1.0
C      1  0.4665530000000  0.4221620000000  0.5597290000000 1.0
C      1  0.4667490000000  0.4840830000000  0.5101130000000 1.0
C      1  0.5349380000000  0.4997010000000  0.4935760000000 1.0
C      1  0.5015970000000  0.4976670000000  0.6011640000000 1.0
C      1  0.4868080000000  0.5519750000000  0.5825940000000 1.0
C      1  0.5074380000000  0.4991850000000  0.5560970000000 1.0
C      1  0.5504760000000  0.4309490000000  0.4537510000000 1.0
C      1  0.4285820000000  0.4973200000000  0.4346010000000 1.0
C      1  0.4949420000000  0.4678350000000  0.5001670000000 1.0
C      1  0.4710300000000  0.5446240000000  0.5372620000000 1.0
C      1  0.5653250000000  0.5530310000000  0.5328890000000 1.0
C      1  0.4993460000000  0.5439630000000  0.4885130000000 1.0
C      1  0.4345620000000  0.5164150000000  0.4959540000000 1.0
C      1  0.4434310000000  0.4844610000000  0.4884280000000 1.0
C      1  0.4720050000000  0.4007810000000  0.4485240000000 1.0
C      1  0.4331980000000  0.4674900000000  0.4306200000000 1.0
C      1  0.5510020000000  0.4196920000000  0.5435730000000 1.0
C      1  0.4169930000000  0.5297300000000  0.4708600000000 1.0
C      1  0.5057050000000  0.4366600000000  0.4320190000000 1.0
C      1  0.5675420000000  0.5164310000000  0.5084860000000 1.0
C      1  0.4450400000000  0.5447970000000  0.4284790000000 1.0
C      1  0.5038940000000  0.5526550000000  0.5419290000000 1.0
C      1  0.4666850000000  0.4271860000000  0.4315000000000 1.0
C      1  0.5597270000000  0.4884850000000  0.4154590000000 1.0
C      1  0.5784080000000  0.4385850000000  0.4648410000000 1.0
C      1  0.4306600000000  0.4756500000000  0.5799270000000 1.0
C      1  0.4695770000000  0.5320080000000  0.4851940000000 1.0
C      1  0.5655170000000  0.5011020000000  0.4633150000000 1.0
C      1  0.4456960000000  0.5009140000000  0.5908540000000 1.0
C      1  0.5683670000000  0.5204790000000  0.5422480000000 1.0
C      1  0.4583880000000  0.5615480000000  0.4759150000000 1.0
END
