TITL C-2847944-5688-197 0.000230690064043042 125000 -361.501976213347 0 0 69 (C1) n - 1
REM
REM in /home/bkarasulu/work/CARBON/AIRSS/Generating-Clusters/AIREBO/with-SteepDescent/Only-C1/SD-CG-opt/Try1-1.4A-POS3A/HFTN-CG
REM
REM
REM
REM
REM
REM ./C.cell (11c1c37f851c82e70ff6c80c92926a4b)
REM
REM compiler GCC version 9.2.1 20190827 (Red Hat 9.2.1-1)
REM options -cpp -mtune=generic -march=x86-64 -g -O0 -fpre-include=/usr/include/finclude/math-vector-fortran.h
REM seed 1588376101 1221856935 2005096628 -285995945 1005256467 -71804698 -280387764 192548781 -299934848 1911545312 106691497 1167517446 1807640051 2076049452 -1096196539 -1026317265 2041419396 -678733274 -503531697 -697360380 -1776047163 -1262503742 1570219841 599656175 35298872 1784483973 1628264284 2097177672 -971705748 -2142581995 -901446197 2145662341 -1503341123
REM
CELL 1.54180   50.00000   50.00000   50.00000   90.00000   90.00000   90.00000
LATT -1
SFAC C  
C      1  0.5344740000000  0.4791710000000  0.5254070000000 1.0
C      1  0.4739980000000  0.5343050000000  0.4765920000000 1.0
C      1  0.5294900000000  0.4976380000000  0.4274020000000 1.0
C      1  0.4895420000000  0.5147540000000  0.4346190000000 1.0
C      1  0.5256690000000  0.4313570000000  0.5067230000000 1.0
C      1  0.4963380000000  0.5774230000000  0.5310370000000 1.0
C      1  0.4705650000000  0.4297180000000  0.5134890000000 1.0
C      1  0.4925850000000  0.5603170000000  0.4679470000000 1.0
C      1  0.5172550000000  0.5150910000000  0.4544640000000 1.0
C      1  0.5497700000000  0.4506380000000  0.4944030000000 1.0
C      1  0.5143940000000  0.5028550000000  0.5254460000000 1.0
C      1  0.5643900000000  0.4906630000000  0.5254070000000 1.0
C      1  0.4333380000000  0.4912950000000  0.5289370000000 1.0
C      1  0.5310670000000  0.4705880000000  0.5643180000000 1.0
C      1  0.4849850000000  0.5034860000000  0.5618310000000 1.0
C      1  0.5058400000000  0.4522220000000  0.4423600000000 1.0
C      1  0.5139930000000  0.5584340000000  0.5388540000000 1.0
C      1  0.4802390000000  0.4803570000000  0.5431400000000 1.0
C      1  0.4977460000000  0.4997010000000  0.5857330000000 1.0
C      1  0.4856880000000  0.5226050000000  0.5062820000000 1.0
C      1  0.4473010000000  0.5348800000000  0.5471420000000 1.0
C      1  0.5643460000000  0.5138730000000  0.5037140000000 1.0
C      1  0.5344010000000  0.4879050000000  0.4655710000000 1.0
C      1  0.4747280000000  0.4638740000000  0.4932490000000 1.0
C      1  0.5552200000000  0.4911180000000  0.5567950000000 1.0
C      1  0.4269350000000  0.5209190000000  0.5365250000000 1.0
C      1  0.5623500000000  0.4986570000000  0.4742030000000 1.0
C      1  0.5255530000000  0.4951810000000  0.5828290000000 1.0
C      1  0.4400630000000  0.5283780000000  0.4563730000000 1.0
C      1  0.4506850000000  0.5688590000000  0.5017190000000 1.0
C      1  0.4285870000000  0.5143890000000  0.5042740000000 1.0
C      1  0.5153560000000  0.5232300000000  0.4877420000000 1.0
C      1  0.5279810000000  0.4692280000000  0.4378930000000 1.0
C      1  0.5347210000000  0.5435210000000  0.4515080000000 1.0
C      1  0.4831070000000  0.4260990000000  0.4840630000000 1.0
C      1  0.4484810000000  0.4477470000000  0.5185740000000 1.0
C      1  0.5526440000000  0.5622710000000  0.4919800000000 1.0
C      1  0.5397120000000  0.5392030000000  0.5487610000000 1.0
C      1  0.4838400000000  0.5020660000000  0.4720950000000 1.0
C      1  0.5330400000000  0.4499700000000  0.5305990000000 1.0
C      1  0.5049340000000  0.4440420000000  0.4696800000000 1.0
C      1  0.4503210000000  0.4708230000000  0.5360060000000 1.0
C      1  0.5069240000000  0.4909770000000  0.4944680000000 1.0
C      1  0.5132470000000  0.5641460000000  0.4539260000000 1.0
C      1  0.5222740000000  0.4644040000000  0.4847850000000 1.0
C      1  0.4808060000000  0.4651210000000  0.4328130000000 1.0
C      1  0.5003670000000  0.5277850000000  0.5444920000000 1.0
C      1  0.4481880000000  0.4604020000000  0.4411690000000 1.0
C      1  0.4723920000000  0.5395100000000  0.5300170000000 1.0
C      1  0.4425040000000  0.5407160000000  0.4878560000000 1.0
C      1  0.4970600000000  0.4481590000000  0.5141920000000 1.0
C      1  0.4653120000000  0.4452700000000  0.4663480000000 1.0
C      1  0.5667040000000  0.5259780000000  0.4557690000000 1.0
C      1  0.5447260000000  0.5175460000000  0.5691100000000 1.0
C      1  0.5731420000000  0.4694900000000  0.4788560000000 1.0
C      1  0.4950120000000  0.5430220000000  0.5737480000000 1.0
C      1  0.5048240000000  0.4608410000000  0.5449600000000 1.0
C      1  0.5746080000000  0.4650890000000  0.5111620000000 1.0
C      1  0.5617940000000  0.5402330000000  0.5235610000000 1.0
C      1  0.4271810000000  0.5067190000000  0.4736880000000 1.0
C      1  0.5301920000000  0.5289930000000  0.5178750000000 1.0
C      1  0.4715520000000  0.5679520000000  0.5195890000000 1.0
C      1  0.4377370000000  0.4789900000000  0.4679800000000 1.0
C      1  0.4680110000000  0.4836960000000  0.4573180000000 1.0
C      1  0.4408500000000  0.4609410000000  0.4926000000000 1.0
C      1  0.5468780000000  0.5346520000000  0.4820040000000 1.0
C      1  0.4862620000000  0.4930710000000  0.4184990000000 1.0
C      1  0.4673430000000  0.5273790000000  0.4445160000000 1.0
C      1  0.4784370000000  0.4900710000000  0.5130140000000 1.0
END
