TITL C-2847949-8115-660 0.000310651253915836 125000 -267.573715348262 0 0 52 (C1) n - 1
REM
REM in /home/bkarasulu/work/CARBON/AIRSS/Generating-Clusters/AIREBO/with-SteepDescent/Only-C1/SD-CG-opt/Try1-1.4A-POS3A/HFTN-CG
REM
REM
REM
REM
REM
REM ./C.cell (11c1c37f851c82e70ff6c80c92926a4b)
REM
REM compiler GCC version 9.2.1 20190827 (Red Hat 9.2.1-1)
REM options -cpp -mtune=generic -march=x86-64 -g -O0 -fpre-include=/usr/include/finclude/math-vector-fortran.h
REM seed -1001436600 505240415 -311002036 776018210 1814385125 1470665311 -973635025 1590744463 -1959660950 -588199029 -1330724297 -1896070803 1578327876 -1041276125 866668589 -1559401566 1471525080 -1671070509 1729643269 385859880 -309148555 -2119742048 -2081595289 -437495502 2022980071 1511898909 1837452445 -1378155881 1438052436 938952509 969288594 -1719080580 466034995
REM
CELL 1.54180   50.00000   50.00000   50.00000   90.00000   90.00000   90.00000
LATT -1
SFAC C  
C      1  0.4438090000000  0.4458540000000  0.5355130000000 1.0
C      1  0.4890890000000  0.5047780000000  0.5634320000000 1.0
C      1  0.5127160000000  0.4268310000000  0.5216890000000 1.0
C      1  0.4840650000000  0.5434190000000  0.4537460000000 1.0
C      1  0.5829980000000  0.5572750000000  0.4945450000000 1.0
C      1  0.4785990000000  0.4648420000000  0.4448410000000 1.0
C      1  0.5446230000000  0.5641540000000  0.4704130000000 1.0
C      1  0.4687460000000  0.4895040000000  0.4882590000000 1.0
C      1  0.4690990000000  0.4504280000000  0.5247000000000 1.0
C      1  0.5297680000000  0.4809370000000  0.5050950000000 1.0
C      1  0.4658100000000  0.4299510000000  0.4026720000000 1.0
C      1  0.5023140000000  0.5447090000000  0.4742890000000 1.0
C      1  0.4783940000000  0.4314670000000  0.5016820000000 1.0
C      1  0.4802140000000  0.5262430000000  0.5800800000000 1.0
C      1  0.4948870000000  0.4350460000000  0.5378380000000 1.0
C      1  0.5069090000000  0.4888260000000  0.5254720000000 1.0
C      1  0.4257780000000  0.5295720000000  0.4847760000000 1.0
C      1  0.5322020000000  0.5247650000000  0.5692490000000 1.0
C      1  0.5378540000000  0.5205590000000  0.5217810000000 1.0
C      1  0.4895990000000  0.4779200000000  0.4686110000000 1.0
C      1  0.5574940000000  0.4678880000000  0.5121810000000 1.0
C      1  0.5096490000000  0.4345970000000  0.4903020000000 1.0
C      1  0.5138210000000  0.5167890000000  0.5435450000000 1.0
C      1  0.5533590000000  0.4455860000000  0.5296000000000 1.0
C      1  0.5611790000000  0.5416880000000  0.5076450000000 1.0
C      1  0.5757210000000  0.4889000000000  0.5268510000000 1.0
C      1  0.4985560000000  0.5412810000000  0.5312820000000 1.0
C      1  0.4861060000000  0.4138810000000  0.4764150000000 1.0
C      1  0.4762360000000  0.4798480000000  0.5191140000000 1.0
C      1  0.4713430000000  0.5181980000000  0.4996860000000 1.0
C      1  0.5313820000000  0.5461460000000  0.4918680000000 1.0
C      1  0.5706530000000  0.4600050000000  0.4879950000000 1.0
C      1  0.4987010000000  0.4826690000000  0.5784980000000 1.0
C      1  0.4546670000000  0.5621980000000  0.5099680000000 1.0
C      1  0.5689710000000  0.5149350000000  0.5263210000000 1.0
C      1  0.4461900000000  0.5019390000000  0.4379040000000 1.0
C      1  0.4551290000000  0.4782220000000  0.4291220000000 1.0
C      1  0.4667610000000  0.4964010000000  0.5440740000000 1.0
C      1  0.4486120000000  0.5320880000000  0.5056740000000 1.0
C      1  0.5287260000000  0.5122490000000  0.4909430000000 1.0
C      1  0.6013930000000  0.5723010000000  0.4852060000000 1.0
C      1  0.5372530000000  0.4932630000000  0.4427430000000 1.0
C      1  0.4458860000000  0.5079830000000  0.4707860000000 1.0
C      1  0.5207030000000  0.4918340000000  0.4678230000000 1.0
C      1  0.4654560000000  0.5242910000000  0.4484830000000 1.0
C      1  0.4662620000000  0.4501170000000  0.4192300000000 1.0
C      1  0.4808360000000  0.5672130000000  0.5179960000000 1.0
C      1  0.4937360000000  0.5337430000000  0.5003340000000 1.0
C      1  0.5140370000000  0.5654040000000  0.5135540000000 1.0
C      1  0.4271380000000  0.5621930000000  0.4916840000000 1.0
C      1  0.4416470000000  0.4969340000000  0.5516160000000 1.0
C      1  0.5149230000000  0.4621350000000  0.4828760000000 1.0
END
