TITL C-2847948-6138-361 -0.000883873268390741 125000 -766.70547166531 0 0 141 (C1) n - 1
REM
REM in /home/bkarasulu/work/CARBON/AIRSS/Generating-Clusters/AIREBO/with-SteepDescent/Only-C1/SD-CG-opt/Try1-1.4A-POS3A/HFTN-CG
REM
REM
REM
REM
REM
REM ./C.cell (11c1c37f851c82e70ff6c80c92926a4b)
REM
REM compiler GCC version 9.2.1 20190827 (Red Hat 9.2.1-1)
REM options -cpp -mtune=generic -march=x86-64 -g -O0 -fpre-include=/usr/include/finclude/math-vector-fortran.h
REM seed 581083678 1831799140 -674465604 1671508043 1657378464 -1442112213 -323203364 -1267204482 -274836319 848483156 251490267 -1916193486 -1253402858 -1928373255 -183605736 626341898 527568723 302956546 -149987478 -567387133 -470976360 -410464818 1151429649 -79917193 -1360474192 380118073 -1984874524 -840109988 1993374818 710992926 -826268400 -905459212 2019050767
REM
CELL 1.54180   50.00000   50.00000   50.00000   90.00000   90.00000   90.00000
LATT -1
SFAC C  
C      1  0.5205080000000  0.5882240000000  0.4498230000000 1.0
C      1  0.4891020000000  0.5852600000000  0.4572080000000 1.0
C      1  0.5253740000000  0.5288430000000  0.5281340000000 1.0
C      1  0.4726630000000  0.4172200000000  0.5498300000000 1.0
C      1  0.4811750000000  0.6043310000000  0.4809740000000 1.0
C      1  0.5012140000000  0.4725130000000  0.5840130000000 1.0
C      1  0.4942230000000  0.4638260000000  0.4005120000000 1.0
C      1  0.5718500000000  0.4426690000000  0.4906670000000 1.0
C      1  0.4529490000000  0.5695110000000  0.5541640000000 1.0
C      1  0.5202380000000  0.5617530000000  0.5212870000000 1.0
C      1  0.4552950000000  0.4747090000000  0.4930220000000 1.0
C      1  0.4055500000000  0.4805060000000  0.4635100000000 1.0
C      1  0.4970610000000  0.5844710000000  0.5226970000000 1.0
C      1  0.4907140000000  0.5451550000000  0.5632760000000 1.0
C      1  0.5098030000000  0.4848090000000  0.5532620000000 1.0
C      1  0.4681410000000  0.5271860000000  0.4369220000000 1.0
C      1  0.4716520000000  0.5104420000000  0.5266290000000 1.0
C      1  0.4606650000000  0.4973070000000  0.5514280000000 1.0
C      1  0.4011670000000  0.4715710000000  0.5472550000000 1.0
C      1  0.4527450000000  0.5951270000000  0.4740630000000 1.0
C      1  0.5398710000000  0.5814010000000  0.5389900000000 1.0
C      1  0.5666400000000  0.5856980000000  0.5237450000000 1.0
C      1  0.4936610000000  0.4444900000000  0.5794040000000 1.0
C      1  0.4561750000000  0.5184210000000  0.5846230000000 1.0
C      1  0.4616690000000  0.5369390000000  0.5566250000000 1.0
C      1  0.4936510000000  0.5689380000000  0.4280430000000 1.0
C      1  0.4074630000000  0.5124180000000  0.4704260000000 1.0
C      1  0.5159740000000  0.5341730000000  0.5599580000000 1.0
C      1  0.4845220000000  0.5135610000000  0.4634190000000 1.0
C      1  0.5206900000000  0.4691200000000  0.4355340000000 1.0
C      1  0.5145870000000  0.5497620000000  0.4408760000000 1.0
C      1  0.5657650000000  0.4873120000000  0.5774490000000 1.0
C      1  0.4082230000000  0.4608060000000  0.5204850000000 1.0
C      1  0.4709180000000  0.4640150000000  0.4169420000000 1.0
C      1  0.4553390000000  0.5030010000000  0.4776980000000 1.0
C      1  0.5094230000000  0.4024820000000  0.5182280000000 1.0
C      1  0.4012090000000  0.5405940000000  0.4731730000000 1.0
C      1  0.5594290000000  0.4211330000000  0.5322530000000 1.0
C      1  0.4867190000000  0.3954910000000  0.5403790000000 1.0
C      1  0.6055810000000  0.5109640000000  0.5084180000000 1.0
C      1  0.5341320000000  0.4515340000000  0.4990590000000 1.0
C      1  0.5296850000000  0.4847570000000  0.4639320000000 1.0
C      1  0.5373430000000  0.4410770000000  0.5487030000000 1.0
C      1  0.5213460000000  0.4936270000000  0.5022450000000 1.0
C      1  0.4628180000000  0.4462150000000  0.4797750000000 1.0
C      1  0.4350200000000  0.4754480000000  0.5468190000000 1.0
C      1  0.4427980000000  0.5138270000000  0.4493040000000 1.0
C      1  0.4670280000000  0.5566570000000  0.4320120000000 1.0
C      1  0.5253990000000  0.4379880000000  0.4446280000000 1.0
C      1  0.4714870000000  0.5599510000000  0.4715530000000 1.0
C      1  0.3978400000000  0.4956660000000  0.5053660000000 1.0
C      1  0.5203940000000  0.5266880000000  0.4210930000000 1.0
C      1  0.4972160000000  0.5235780000000  0.5129080000000 1.0
C      1  0.5347550000000  0.4965540000000  0.5333670000000 1.0
C      1  0.5011770000000  0.3975380000000  0.4868700000000 1.0
C      1  0.4566940000000  0.5376080000000  0.5227980000000 1.0
C      1  0.4288860000000  0.5440780000000  0.5510770000000 1.0
C      1  0.5809050000000  0.5275570000000  0.4608040000000 1.0
C      1  0.3969320000000  0.4649800000000  0.4907080000000 1.0
C      1  0.5187580000000  0.4345900000000  0.4777050000000 1.0
C      1  0.4980470000000  0.4182560000000  0.4480790000000 1.0
C      1  0.4743480000000  0.4060950000000  0.4778580000000 1.0
C      1  0.5872020000000  0.5391870000000  0.5025000000000 1.0
C      1  0.5351290000000  0.4032100000000  0.4959100000000 1.0
C      1  0.5592470000000  0.4482260000000  0.5733540000000 1.0
C      1  0.5732170000000  0.5087870000000  0.5017020000000 1.0
C      1  0.4814600000000  0.4428830000000  0.5325510000000 1.0
C      1  0.5196490000000  0.5692560000000  0.4903450000000 1.0
C      1  0.5417090000000  0.5226500000000  0.4661800000000 1.0
C      1  0.4517500000000  0.5487170000000  0.4912020000000 1.0
C      1  0.4319600000000  0.5215900000000  0.4901990000000 1.0
C      1  0.5520710000000  0.5303930000000  0.4134110000000 1.0
C      1  0.4645700000000  0.4194020000000  0.4485050000000 1.0
C      1  0.5720590000000  0.4822890000000  0.4446460000000 1.0
C      1  0.5435800000000  0.4844220000000  0.4155790000000 1.0
C      1  0.5386180000000  0.5565560000000  0.5597260000000 1.0
C      1  0.5658180000000  0.4997140000000  0.4731800000000 1.0
C      1  0.5650710000000  0.5383880000000  0.5620040000000 1.0
C      1  0.4879540000000  0.4740490000000  0.5343950000000 1.0
C      1  0.4311890000000  0.5120130000000  0.5624710000000 1.0
C      1  0.4383020000000  0.4356140000000  0.4628490000000 1.0
C      1  0.5157390000000  0.4839250000000  0.3988500000000 1.0
C      1  0.5530020000000  0.4690430000000  0.4803330000000 1.0
C      1  0.5102600000000  0.4641850000000  0.5151500000000 1.0
C      1  0.5576430000000  0.5080750000000  0.5557250000000 1.0
C      1  0.5123540000000  0.5781540000000  0.5590000000000 1.0
C      1  0.4385600000000  0.4622630000000  0.5174310000000 1.0
C      1  0.5899680000000  0.4607070000000  0.5063690000000 1.0
C      1  0.5585660000000  0.4204020000000  0.5045320000000 1.0
C      1  0.4678060000000  0.4394820000000  0.5699870000000 1.0
C      1  0.4513850000000  0.5758940000000  0.4492220000000 1.0
C      1  0.5477140000000  0.4655840000000  0.5275280000000 1.0
C      1  0.5782700000000  0.4637120000000  0.5320830000000 1.0
C      1  0.5389010000000  0.5035750000000  0.5905270000000 1.0
C      1  0.4785760000000  0.5099070000000  0.4028640000000 1.0
C      1  0.5243850000000  0.4037820000000  0.4644380000000 1.0
C      1  0.4804010000000  0.4882590000000  0.5050310000000 1.0
C      1  0.5009740000000  0.6028760000000  0.5011270000000 1.0
C      1  0.4594070000000  0.4399820000000  0.5123360000000 1.0
C      1  0.5119840000000  0.5197160000000  0.4825260000000 1.0
C      1  0.4912490000000  0.4736650000000  0.4495380000000 1.0
C      1  0.4201950000000  0.4942450000000  0.4373250000000 1.0
C      1  0.4822500000000  0.4993340000000  0.5776300000000 1.0
C      1  0.4214750000000  0.4623890000000  0.4390060000000 1.0
C      1  0.4215660000000  0.5583940000000  0.4788350000000 1.0
C      1  0.5148680000000  0.5088130000000  0.5753010000000 1.0
C      1  0.4126630000000  0.4421770000000  0.4723360000000 1.0
C      1  0.4160990000000  0.5268900000000  0.4339640000000 1.0
C      1  0.5056680000000  0.5103050000000  0.3994580000000 1.0
C      1  0.5128410000000  0.4323340000000  0.5268040000000 1.0
C      1  0.4404610000000  0.4877140000000  0.5843790000000 1.0
C      1  0.4231170000000  0.5397020000000  0.5178510000000 1.0
C      1  0.5001720000000  0.4813100000000  0.4805120000000 1.0
C      1  0.5483170000000  0.4650520000000  0.5955700000000 1.0
C      1  0.6014410000000  0.4821990000000  0.4919340000000 1.0
C      1  0.3966630000000  0.5185280000000  0.5149820000000 1.0
C      1  0.5615680000000  0.5498870000000  0.4713460000000 1.0
C      1  0.5587660000000  0.5987150000000  0.4948570000000 1.0
C      1  0.4346430000000  0.5847020000000  0.4932890000000 1.0
C      1  0.5819230000000  0.4632350000000  0.5598340000000 1.0
C      1  0.5122730000000  0.5069540000000  0.4449150000000 1.0
C      1  0.5016480000000  0.5505230000000  0.4725040000000 1.0
C      1  0.4809370000000  0.5809630000000  0.5484410000000 1.0
C      1  0.5305540000000  0.5999120000000  0.4907750000000 1.0
C      1  0.5525430000000  0.4571930000000  0.4360160000000 1.0
C      1  0.5724390000000  0.5672980000000  0.4957420000000 1.0
C      1  0.5237240000000  0.4696430000000  0.6050240000000 1.0
C      1  0.5697320000000  0.5553910000000  0.5344780000000 1.0
C      1  0.4566150000000  0.4114400000000  0.4984150000000 1.0
C      1  0.5998030000000  0.4809230000000  0.4642880000000 1.0
C      1  0.5149720000000  0.4294170000000  0.5715010000000 1.0
C      1  0.4720280000000  0.4939280000000  0.4309160000000 1.0
C      1  0.5370170000000  0.5649600000000  0.4614300000000 1.0
C      1  0.5559590000000  0.5336160000000  0.5159750000000 1.0
C      1  0.4511620000000  0.4467780000000  0.4334170000000 1.0
C      1  0.6105070000000  0.5165920000000  0.5389530000000 1.0
C      1  0.4890150000000  0.4460620000000  0.4654450000000 1.0
C      1  0.5527120000000  0.5093810000000  0.4368310000000 1.0
C      1  0.4490560000000  0.4601520000000  0.5723650000000 1.0
C      1  0.4160760000000  0.5728530000000  0.5149760000000 1.0
C      1  0.5962310000000  0.5291430000000  0.5550680000000 1.0
END
