TITL C-2848502-4955-389 0.000551050470692827 125000 -318.880751925116 0 0 59 (C1) n - 1
REM
REM in /home/bkarasulu/work/CARBON/AIRSS/Generating-Clusters/AIREBO/with-SteepDescent/Only-C1/SD-CG-opt/Try1-1.4A-POS3A/HFTN-CG
REM
REM
REM
REM
REM
REM ./C.cell (11c1c37f851c82e70ff6c80c92926a4b)
REM
REM compiler GCC version 9.2.1 20190827 (Red Hat 9.2.1-1)
REM options -cpp -mtune=generic -march=x86-64 -g -O0 -fpre-include=/usr/include/finclude/math-vector-fortran.h
REM seed -237341997 210339743 -1476114115 -1422060086 -227372196 1003984799 808455994 1354334128 -1072497654 378722041 -1864670969 906027215 -284431532 -1085353257 2040854035 -787283325 -852808032 -41100168 921836957 1247656078 -1295397987 -138921571 -1576054480 -368212366 -302288665 -611497585 1288504434 -951836180 -378799600 -1555697097 1343140263 777598014 -640833530
REM
CELL 1.54180   50.00000   50.00000   50.00000   90.00000   90.00000   90.00000
LATT -1
SFAC C  
C      1  0.5014670000000  0.4312800000000  0.4894020000000 1.0
C      1  0.4459420000000  0.5019950000000  0.4741930000000 1.0
C      1  0.4571250000000  0.4765150000000  0.4671150000000 1.0
C      1  0.4940890000000  0.4649610000000  0.4111080000000 1.0
C      1  0.5615490000000  0.5089660000000  0.4372020000000 1.0
C      1  0.4717220000000  0.5639150000000  0.4916220000000 1.0
C      1  0.5321530000000  0.5083700000000  0.4462000000000 1.0
C      1  0.4534470000000  0.4961990000000  0.5581670000000 1.0
C      1  0.4815320000000  0.4600290000000  0.5390580000000 1.0
C      1  0.5001640000000  0.5116560000000  0.5389390000000 1.0
C      1  0.5269040000000  0.5256340000000  0.4714060000000 1.0
C      1  0.5038050000000  0.5495210000000  0.5119290000000 1.0
C      1  0.4190810000000  0.5088680000000  0.5188490000000 1.0
C      1  0.5586620000000  0.4865460000000  0.5466310000000 1.0
C      1  0.4707960000000  0.5286820000000  0.5873420000000 1.0
C      1  0.5034640000000  0.4606800000000  0.5056880000000 1.0
C      1  0.4520060000000  0.5277170000000  0.4658920000000 1.0
C      1  0.5018770000000  0.4329260000000  0.4554550000000 1.0
C      1  0.5533030000000  0.4651370000000  0.4659400000000 1.0
C      1  0.4507550000000  0.4581820000000  0.4877890000000 1.0
C      1  0.5418720000000  0.4806770000000  0.4921130000000 1.0
C      1  0.4731100000000  0.4920470000000  0.5325200000000 1.0
C      1  0.5672050000000  0.5087480000000  0.5250480000000 1.0
C      1  0.5796440000000  0.4817050000000  0.4792640000000 1.0
C      1  0.4805650000000  0.5289710000000  0.4567060000000 1.0
C      1  0.5237440000000  0.4800510000000  0.4561650000000 1.0
C      1  0.5419850000000  0.4634370000000  0.5429560000000 1.0
C      1  0.4459810000000  0.5504980000000  0.4812430000000 1.0
C      1  0.5266700000000  0.5038230000000  0.5205730000000 1.0
C      1  0.4943230000000  0.4864730000000  0.5795320000000 1.0
C      1  0.5379230000000  0.5118900000000  0.5516820000000 1.0
C      1  0.5747450000000  0.5025880000000  0.4964250000000 1.0
C      1  0.4769780000000  0.5465580000000  0.5671040000000 1.0
C      1  0.5239770000000  0.4505330000000  0.4729590000000 1.0
C      1  0.4890980000000  0.4817020000000  0.4905230000000 1.0
C      1  0.4982680000000  0.5378690000000  0.4309370000000 1.0
C      1  0.4822100000000  0.5022260000000  0.4397570000000 1.0
C      1  0.5434450000000  0.5129680000000  0.4931770000000 1.0
C      1  0.4967710000000  0.5281180000000  0.4860680000000 1.0
C      1  0.5171910000000  0.5571460000000  0.4664410000000 1.0
C      1  0.4736910000000  0.5089420000000  0.5020870000000 1.0
C      1  0.4871120000000  0.4351350000000  0.5200110000000 1.0
C      1  0.4688070000000  0.5005720000000  0.5818010000000 1.0
C      1  0.5241850000000  0.4517800000000  0.5618880000000 1.0
C      1  0.4893100000000  0.4513840000000  0.4364970000000 1.0
C      1  0.5148140000000  0.5170020000000  0.4226110000000 1.0
C      1  0.5279750000000  0.4707700000000  0.5172600000000 1.0
C      1  0.5332120000000  0.5537620000000  0.5229530000000 1.0
C      1  0.4322980000000  0.5467510000000  0.5089300000000 1.0
C      1  0.4652240000000  0.5394990000000  0.5143740000000 1.0
C      1  0.4968930000000  0.4935050000000  0.4139240000000 1.0
C      1  0.4411830000000  0.4995580000000  0.5055270000000 1.0
C      1  0.4969690000000  0.4610960000000  0.5647240000000 1.0
C      1  0.4998760000000  0.5678100000000  0.4850660000000 1.0
C      1  0.4866860000000  0.5404800000000  0.5382690000000 1.0
C      1  0.5500750000000  0.5345340000000  0.5309700000000 1.0
C      1  0.4539300000000  0.4696710000000  0.5155540000000 1.0
C      1  0.4899060000000  0.4767840000000  0.4580520000000 1.0
C      1  0.5123060000000  0.5051590000000  0.5683840000000 1.0
END
