TITL C-2847956-8218-405 0.000969077112089805 125000 -499.50622127085 0 0 89 (C1) n - 1
REM
REM in /home/bkarasulu/work/CARBON/AIRSS/Generating-Clusters/AIREBO/with-SteepDescent/Only-C1/SD-CG-opt/Try1-1.4A-POS3A/HFTN-CG
REM
REM
REM
REM
REM
REM ./C.cell (11c1c37f851c82e70ff6c80c92926a4b)
REM
REM compiler GCC version 9.2.1 20190827 (Red Hat 9.2.1-1)
REM options -cpp -mtune=generic -march=x86-64 -g -O0 -fpre-include=/usr/include/finclude/math-vector-fortran.h
REM seed -719021424 452105854 1010872730 -1415728885 68580176 -453060508 -318921721 -1671638785 2057755637 1788994927 -1730254179 -359547601 365932771 581245578 111181742 474875865 -1518697355 -609782972 2110113453 -1546262520 645257462 501127052 475490602 1121680668 -1904252005 882809053 -903620793 -1653035466 -180887137 -1000789721 -534893632 1721020926 1615954066
REM
CELL 1.54180   50.00000   50.00000   50.00000   90.00000   90.00000   90.00000
LATT -1
SFAC C  
C      1  0.5397460000000  0.5118650000000  0.4968950000000 1.0
C      1  0.5490320000000  0.5602920000000  0.5595170000000 1.0
C      1  0.5361380000000  0.4801470000000  0.4355370000000 1.0
C      1  0.5531280000000  0.5416110000000  0.5007560000000 1.0
C      1  0.5214920000000  0.5391040000000  0.4168020000000 1.0
C      1  0.5102280000000  0.4886340000000  0.4178340000000 1.0
C      1  0.4963040000000  0.5465860000000  0.5181950000000 1.0
C      1  0.5493980000000  0.5295690000000  0.5546260000000 1.0
C      1  0.5212460000000  0.4914560000000  0.5256520000000 1.0
C      1  0.4964250000000  0.4215770000000  0.5075400000000 1.0
C      1  0.3975860000000  0.5012390000000  0.5071590000000 1.0
C      1  0.5112410000000  0.5826000000000  0.5097530000000 1.0
C      1  0.4920520000000  0.4883830000000  0.5198510000000 1.0
C      1  0.4831950000000  0.5212090000000  0.4482860000000 1.0
C      1  0.4943820000000  0.4711420000000  0.4840600000000 1.0
C      1  0.5284650000000  0.5545750000000  0.5170960000000 1.0
C      1  0.4397390000000  0.5204220000000  0.5319510000000 1.0
C      1  0.5268730000000  0.5169220000000  0.5733320000000 1.0
C      1  0.4837720000000  0.5117740000000  0.5034010000000 1.0
C      1  0.4813090000000  0.5831510000000  0.5219790000000 1.0
C      1  0.4794440000000  0.4956570000000  0.4304820000000 1.0
C      1  0.4705150000000  0.5231890000000  0.4759140000000 1.0
C      1  0.4716450000000  0.5271670000000  0.5295240000000 1.0
C      1  0.4316730000000  0.4921240000000  0.4362180000000 1.0
C      1  0.4428580000000  0.5541480000000  0.5349750000000 1.0
C      1  0.4520550000000  0.4942200000000  0.4187470000000 1.0
C      1  0.5652050000000  0.4827750000000  0.5342990000000 1.0
C      1  0.5064620000000  0.4914520000000  0.4596120000000 1.0
C      1  0.5805480000000  0.4689220000000  0.5113210000000 1.0
C      1  0.5016430000000  0.4422830000000  0.4476530000000 1.0
C      1  0.4585250000000  0.5666940000000  0.5158760000000 1.0
C      1  0.4761660000000  0.4769230000000  0.5800160000000 1.0
C      1  0.5049370000000  0.5791770000000  0.4631010000000 1.0
C      1  0.5529130000000  0.4517680000000  0.5409030000000 1.0
C      1  0.5506310000000  0.4355090000000  0.4325240000000 1.0
C      1  0.4562420000000  0.5505600000000  0.4878100000000 1.0
C      1  0.4634550000000  0.4720880000000  0.4925590000000 1.0
C      1  0.5631020000000  0.5194400000000  0.4517460000000 1.0
C      1  0.5094770000000  0.5167480000000  0.4821290000000 1.0
C      1  0.4302440000000  0.5544880000000  0.4706480000000 1.0
C      1  0.5515150000000  0.4268130000000  0.4993230000000 1.0
C      1  0.4177930000000  0.5215070000000  0.5093790000000 1.0
C      1  0.5574540000000  0.4737150000000  0.5664760000000 1.0
C      1  0.5364900000000  0.5065850000000  0.4545620000000 1.0
C      1  0.5806740000000  0.5056000000000  0.4726840000000 1.0
C      1  0.4999470000000  0.5677890000000  0.5448380000000 1.0
C      1  0.4237010000000  0.5280660000000  0.4820120000000 1.0
C      1  0.4910100000000  0.4669550000000  0.4445580000000 1.0
C      1  0.4369330000000  0.5035480000000  0.5941940000000 1.0
C      1  0.4490330000000  0.4981590000000  0.3917960000000 1.0
C      1  0.5563610000000  0.5102600000000  0.5269170000000 1.0
C      1  0.4876120000000  0.5562000000000  0.4905840000000 1.0
C      1  0.5086230000000  0.4072150000000  0.4868410000000 1.0
C      1  0.3994960000000  0.4888190000000  0.4820150000000 1.0
C      1  0.5074160000000  0.5470710000000  0.4667910000000 1.0
C      1  0.5417330000000  0.4291910000000  0.5255560000000 1.0
C      1  0.5333230000000  0.4188060000000  0.4795570000000 1.0
C      1  0.4483500000000  0.5732890000000  0.4559350000000 1.0
C      1  0.4748830000000  0.5763460000000  0.4637980000000 1.0
C      1  0.4860100000000  0.5415230000000  0.5561620000000 1.0
C      1  0.4457690000000  0.4588440000000  0.5503940000000 1.0
C      1  0.5023490000000  0.5285260000000  0.5733830000000 1.0
C      1  0.4523340000000  0.4915180000000  0.5749570000000 1.0
C      1  0.5263340000000  0.5240790000000  0.5319880000000 1.0
C      1  0.5251630000000  0.4817030000000  0.4933040000000 1.0
C      1  0.5410800000000  0.4690620000000  0.4673830000000 1.0
C      1  0.4408800000000  0.4916870000000  0.5430700000000 1.0
C      1  0.4810230000000  0.4632250000000  0.5292150000000 1.0
C      1  0.5679660000000  0.5433140000000  0.4701330000000 1.0
C      1  0.5278430000000  0.4872700000000  0.5769880000000 1.0
C      1  0.4425720000000  0.4668520000000  0.5193020000000 1.0
C      1  0.5277680000000  0.5735090000000  0.5565750000000 1.0
C      1  0.5162930000000  0.5935470000000  0.4843160000000 1.0
C      1  0.4744130000000  0.4537250000000  0.5611320000000 1.0
C      1  0.5022300000000  0.4454870000000  0.5465500000000 1.0
C      1  0.5146620000000  0.5272720000000  0.4439110000000 1.0
C      1  0.4521080000000  0.4983860000000  0.4818910000000 1.0
C      1  0.4411230000000  0.4414040000000  0.4967980000000 1.0
C      1  0.5286830000000  0.4730310000000  0.5474860000000 1.0
C      1  0.4254490000000  0.4995220000000  0.4650140000000 1.0
C      1  0.4737240000000  0.4427520000000  0.5063690000000 1.0
C      1  0.5008190000000  0.4796140000000  0.5911760000000 1.0
C      1  0.5137310000000  0.4262060000000  0.5297260000000 1.0
C      1  0.5535910000000  0.4583440000000  0.4213470000000 1.0
C      1  0.4972420000000  0.3866830000000  0.4737900000000 1.0
C      1  0.5713590000000  0.4778620000000  0.4801140000000 1.0
C      1  0.5705380000000  0.4457220000000  0.4916820000000 1.0
C      1  0.5315520000000  0.4380520000000  0.4572030000000 1.0
C      1  0.5835530000000  0.5277560000000  0.4945490000000 1.0
END
