TITL C-2848509-3138-619 0.00113177209962542 125000 -798.478644298103 0 0 148 (C1) n - 1
REM
REM in /home/bkarasulu/work/CARBON/AIRSS/Generating-Clusters/AIREBO/with-SteepDescent/Only-C1/SD-CG-opt/Try1-1.4A-POS3A/HFTN-CG
REM
REM
REM
REM
REM
REM ./C.cell (11c1c37f851c82e70ff6c80c92926a4b)
REM
REM compiler GCC version 9.2.1 20190827 (Red Hat 9.2.1-1)
REM options -cpp -mtune=generic -march=x86-64 -g -O0 -fpre-include=/usr/include/finclude/math-vector-fortran.h
REM seed 958885345 952720590 982324607 -1477670367 825185000 193975951 -762161841 -2122632708 1933365483 677621936 -1244857629 802518095 1330380463 -1211096240 -1828897248 -485397721 28286154 842533715 189976510 -1198558606 -1006904210 989510142 -203127273 980242255 869110666 1031846486 -1373983015 -1194651868 -1943494626 122045510 910497379 -1689007594 451469990
REM
CELL 1.54180   50.00000   50.00000   50.00000   90.00000   90.00000   90.00000
LATT -1
SFAC C  
C      1  0.4987570000000  0.5074110000000  0.4004210000000 1.0
C      1  0.5002150000000  0.5651270000000  0.5553390000000 1.0
C      1  0.5792500000000  0.4791090000000  0.4414880000000 1.0
C      1  0.4392730000000  0.4628840000000  0.4503290000000 1.0
C      1  0.4535050000000  0.5219450000000  0.4976500000000 1.0
C      1  0.5126680000000  0.5480280000000  0.5774790000000 1.0
C      1  0.5616840000000  0.4558300000000  0.4911300000000 1.0
C      1  0.5170240000000  0.4433080000000  0.5601410000000 1.0
C      1  0.4429690000000  0.4779970000000  0.4049400000000 1.0
C      1  0.4398150000000  0.4120860000000  0.4687790000000 1.0
C      1  0.5036950000000  0.5013070000000  0.4935000000000 1.0
C      1  0.5045360000000  0.4914960000000  0.4548480000000 1.0
C      1  0.4519570000000  0.5973530000000  0.5158800000000 1.0
C      1  0.5660230000000  0.5322530000000  0.4262350000000 1.0
C      1  0.5182940000000  0.4650880000000  0.4184530000000 1.0
C      1  0.5201330000000  0.4968750000000  0.4156050000000 1.0
C      1  0.5100220000000  0.5473010000000  0.4682890000000 1.0
C      1  0.4440400000000  0.4249130000000  0.5451920000000 1.0
C      1  0.5415300000000  0.4192620000000  0.5205890000000 1.0
C      1  0.5845470000000  0.5513240000000  0.5249830000000 1.0
C      1  0.4337110000000  0.5637840000000  0.4772550000000 1.0
C      1  0.4911260000000  0.5368770000000  0.6022630000000 1.0
C      1  0.5773570000000  0.5067720000000  0.5438900000000 1.0
C      1  0.4977350000000  0.5348800000000  0.4037460000000 1.0
C      1  0.5117110000000  0.5746710000000  0.5246100000000 1.0
C      1  0.4332170000000  0.5037050000000  0.4795600000000 1.0
C      1  0.4537980000000  0.5103970000000  0.4251130000000 1.0
C      1  0.4708990000000  0.4426300000000  0.4382350000000 1.0
C      1  0.4130650000000  0.4608780000000  0.4802460000000 1.0
C      1  0.4636340000000  0.5515750000000  0.4728750000000 1.0
C      1  0.4470310000000  0.4932810000000  0.4537070000000 1.0
C      1  0.5211760000000  0.4363330000000  0.4836000000000 1.0
C      1  0.4319960000000  0.5528410000000  0.4485650000000 1.0
C      1  0.4105250000000  0.4771240000000  0.4553520000000 1.0
C      1  0.5934840000000  0.4613500000000  0.4838880000000 1.0
C      1  0.4289010000000  0.4799580000000  0.5035690000000 1.0
C      1  0.4794930000000  0.5783040000000  0.5218380000000 1.0
C      1  0.5671810000000  0.5052940000000  0.5114640000000 1.0
C      1  0.4496000000000  0.4262710000000  0.4957120000000 1.0
C      1  0.5977700000000  0.4849380000000  0.5268290000000 1.0
C      1  0.4847260000000  0.4633330000000  0.4154710000000 1.0
C      1  0.4164680000000  0.4327440000000  0.4747180000000 1.0
C      1  0.4993450000000  0.5418420000000  0.4364680000000 1.0
C      1  0.5337220000000  0.4944480000000  0.5582640000000 1.0
C      1  0.4606940000000  0.4743590000000  0.5149960000000 1.0
C      1  0.4641740000000  0.4938340000000  0.5765200000000 1.0
C      1  0.4183340000000  0.5172460000000  0.5695000000000 1.0
C      1  0.4956190000000  0.4807700000000  0.5985560000000 1.0
C      1  0.4729500000000  0.4924060000000  0.4051700000000 1.0
C      1  0.4166510000000  0.5254480000000  0.4593000000000 1.0
C      1  0.5341130000000  0.4893780000000  0.5268690000000 1.0
C      1  0.5638690000000  0.5062590000000  0.4480450000000 1.0
C      1  0.4891990000000  0.5698880000000  0.4786900000000 1.0
C      1  0.5079950000000  0.4644850000000  0.4707280000000 1.0
C      1  0.5510580000000  0.5420070000000  0.4039860000000 1.0
C      1  0.4566810000000  0.5630600000000  0.4314000000000 1.0
C      1  0.4259670000000  0.5316810000000  0.5150560000000 1.0
C      1  0.4666120000000  0.4413080000000  0.5879780000000 1.0
C      1  0.4790170000000  0.5984710000000  0.4944620000000 1.0
C      1  0.4722630000000  0.5002550000000  0.4872180000000 1.0
C      1  0.5035670000000  0.4811320000000  0.5666020000000 1.0
C      1  0.5695710000000  0.4593040000000  0.5706840000000 1.0
C      1  0.5564150000000  0.5394910000000  0.4772090000000 1.0
C      1  0.4037900000000  0.5287150000000  0.4894450000000 1.0
C      1  0.5989340000000  0.4803840000000  0.4650990000000 1.0
C      1  0.4759920000000  0.5065840000000  0.6057540000000 1.0
C      1  0.4577070000000  0.4749700000000  0.5489290000000 1.0
C      1  0.5654790000000  0.4930590000000  0.5706070000000 1.0
C      1  0.5431440000000  0.4253930000000  0.4521410000000 1.0
C      1  0.5687470000000  0.4428020000000  0.5470520000000 1.0
C      1  0.4937480000000  0.4813500000000  0.5191680000000 1.0
C      1  0.5099400000000  0.4265560000000  0.5203590000000 1.0
C      1  0.4810880000000  0.4602650000000  0.5637060000000 1.0
C      1  0.5070910000000  0.3992750000000  0.4797700000000 1.0
C      1  0.5311420000000  0.5838830000000  0.4875890000000 1.0
C      1  0.4315170000000  0.4324570000000  0.5211670000000 1.0
C      1  0.5444920000000  0.5015850000000  0.5959810000000 1.0
C      1  0.4592720000000  0.4468420000000  0.4703680000000 1.0
C      1  0.4240500000000  0.5628430000000  0.5028550000000 1.0
C      1  0.4948540000000  0.4071210000000  0.5029190000000 1.0
C      1  0.6000560000000  0.5101530000000  0.5042480000000 1.0
C      1  0.5963600000000  0.4593530000000  0.5133310000000 1.0
C      1  0.5038990000000  0.5861420000000  0.4453220000000 1.0
C      1  0.6078490000000  0.5370670000000  0.5165450000000 1.0
C      1  0.4780260000000  0.5825390000000  0.4328070000000 1.0
C      1  0.4442790000000  0.4541020000000  0.4204460000000 1.0
C      1  0.4673930000000  0.5345880000000  0.4452730000000 1.0
C      1  0.5166920000000  0.4582100000000  0.5092440000000 1.0
C      1  0.5389770000000  0.4635820000000  0.5715380000000 1.0
C      1  0.4948550000000  0.4246740000000  0.4415340000000 1.0
C      1  0.4314420000000  0.5661790000000  0.5466360000000 1.0
C      1  0.5718880000000  0.4304420000000  0.4709420000000 1.0
C      1  0.4487320000000  0.5308110000000  0.5403840000000 1.0
C      1  0.5281980000000  0.6015620000000  0.5232830000000 1.0
C      1  0.5170940000000  0.5057060000000  0.5947900000000 1.0
C      1  0.5470710000000  0.5324310000000  0.5073890000000 1.0
C      1  0.5516850000000  0.5504320000000  0.5336990000000 1.0
C      1  0.5388640000000  0.4504580000000  0.5338470000000 1.0
C      1  0.5591100000000  0.4729800000000  0.5183520000000 1.0
C      1  0.5575670000000  0.5788400000000  0.4702770000000 1.0
C      1  0.5233900000000  0.5514670000000  0.4143070000000 1.0
C      1  0.4235950000000  0.5002690000000  0.4172600000000 1.0
C      1  0.5450880000000  0.5430180000000  0.4495370000000 1.0
C      1  0.4774200000000  0.5041250000000  0.4565640000000 1.0
C      1  0.6095620000000  0.5028510000000  0.4758080000000 1.0
C      1  0.5177590000000  0.4449010000000  0.4446890000000 1.0
C      1  0.4947930000000  0.5025210000000  0.5448200000000 1.0
C      1  0.4187550000000  0.4669240000000  0.5522440000000 1.0
C      1  0.4086650000000  0.5009100000000  0.4413580000000 1.0
C      1  0.5319180000000  0.5275320000000  0.5492430000000 1.0
C      1  0.5184070000000  0.5175480000000  0.4684980000000 1.0
C      1  0.5475930000000  0.4733950000000  0.4302800000000 1.0
C      1  0.4798870000000  0.5438930000000  0.5420930000000 1.0
C      1  0.4689920000000  0.4075840000000  0.5115460000000 1.0
C      1  0.5351940000000  0.4767670000000  0.4870270000000 1.0
C      1  0.4158960000000  0.4952880000000  0.5514670000000 1.0
C      1  0.4611710000000  0.5253130000000  0.5715610000000 1.0
C      1  0.5145470000000  0.5153000000000  0.5226850000000 1.0
C      1  0.5663480000000  0.4173670000000  0.5010610000000 1.0
C      1  0.4685420000000  0.4131810000000  0.5395870000000 1.0
C      1  0.4664630000000  0.5512360000000  0.5055500000000 1.0
C      1  0.4950150000000  0.5395820000000  0.5153200000000 1.0
C      1  0.5391520000000  0.4104380000000  0.4816870000000 1.0
C      1  0.4183960000000  0.4564450000000  0.5246180000000 1.0
C      1  0.4998710000000  0.4483040000000  0.5891090000000 1.0
C      1  0.5463820000000  0.5471270000000  0.5729680000000 1.0
C      1  0.5058300000000  0.5988100000000  0.4742390000000 1.0
C      1  0.4778420000000  0.5905330000000  0.5535330000000 1.0
C      1  0.5592450000000  0.4534290000000  0.4513030000000 1.0
C      1  0.5696680000000  0.5636300000000  0.4972750000000 1.0
C      1  0.5833870000000  0.4363760000000  0.5236890000000 1.0
C      1  0.5494330000000  0.5805500000000  0.5363080000000 1.0
C      1  0.5268720000000  0.5702370000000  0.4402160000000 1.0
C      1  0.5543000000000  0.5043490000000  0.4800030000000 1.0
C      1  0.4293680000000  0.5813660000000  0.5233050000000 1.0
C      1  0.5741020000000  0.5372900000000  0.5552020000000 1.0
C      1  0.4898030000000  0.4022590000000  0.4570680000000 1.0
C      1  0.5214080000000  0.5536350000000  0.4997060000000 1.0
C      1  0.4610920000000  0.3962130000000  0.4581080000000 1.0
C      1  0.4346170000000  0.5464070000000  0.5741170000000 1.0
C      1  0.4942980000000  0.4229610000000  0.5478520000000 1.0
C      1  0.5572160000000  0.5943800000000  0.5067200000000 1.0
C      1  0.4775010000000  0.4666750000000  0.4859280000000 1.0
C      1  0.5329960000000  0.5133460000000  0.4380710000000 1.0
C      1  0.4431830000000  0.4484800000000  0.5645470000000 1.0
C      1  0.4605340000000  0.5635390000000  0.5599130000000 1.0
C      1  0.4164700000000  0.5025220000000  0.5244860000000 1.0
C      1  0.4946470000000  0.5194810000000  0.5732510000000 1.0
END
