TITL C-2848498-1409-111 -0.0265310362945747 125000 -152.938994543557 0 0 27 (C1) n - 1
REM
REM in /home/bkarasulu/work/CARBON/AIRSS/Generating-Clusters/AIREBO/with-SteepDescent/Only-C1/SD-CG-opt/Try1-1.4A-POS3A/HFTN-CG
REM
REM
REM
REM
REM
REM ./C.cell (11c1c37f851c82e70ff6c80c92926a4b)
REM
REM compiler GCC version 9.2.1 20190827 (Red Hat 9.2.1-1)
REM options -cpp -mtune=generic -march=x86-64 -g -O0 -fpre-include=/usr/include/finclude/math-vector-fortran.h
REM seed -828396960 -406078018 657866108 632302467 1738582673 692615515 -1331467173 -1234740514 2046924545 1740130581 -347511349 -964724083 1929196115 1845573725 1901238498 414615007 -1969291830 -1926709411 1506221928 -397749624 684145566 1142421582 -1022491238 -1808468408 183307772 1411296257 1672281116 1633344453 -189106648 -293507666 1975885400 683562988 -2032743563
REM
CELL 1.54180   50.00000   50.00000   50.00000   90.00000   90.00000   90.00000
LATT -1
SFAC C  
C      1  0.5450170000000  0.5124520000000  0.4579770000000 1.0
C      1  0.4781070000000  0.5052370000000  0.4673280000000 1.0
C      1  0.5377290000000  0.4836470000000  0.4980650000000 1.0
C      1  0.4710440000000  0.4675680000000  0.5326770000000 1.0
C      1  0.5418400000000  0.5254860000000  0.5335920000000 1.0
C      1  0.5462400000000  0.5151390000000  0.4884630000000 1.0
C      1  0.4794020000000  0.5293120000000  0.5280500000000 1.0
C      1  0.4577520000000  0.4535140000000  0.4737940000000 1.0
C      1  0.4542210000000  0.5141790000000  0.5289180000000 1.0
C      1  0.4894740000000  0.5395170000000  0.5036290000000 1.0
C      1  0.5263960000000  0.4891060000000  0.4669200000000 1.0
C      1  0.5214120000000  0.5068460000000  0.5397810000000 1.0
C      1  0.5557830000000  0.5225730000000  0.4361820000000 1.0
C      1  0.4307840000000  0.5204360000000  0.5176860000000 1.0
C      1  0.4603500000000  0.4904960000000  0.5458790000000 1.0
C      1  0.4438860000000  0.4328050000000  0.4819050000000 1.0
C      1  0.5006770000000  0.4858570000000  0.4528320000000 1.0
C      1  0.4779320000000  0.5290390000000  0.4802090000000 1.0
C      1  0.4731520000000  0.4744070000000  0.4678260000000 1.0
C      1  0.4979780000000  0.4668170000000  0.5265510000000 1.0
C      1  0.5581620000000  0.4646620000000  0.5003020000000 1.0
C      1  0.5022060000000  0.4817290000000  0.4253660000000 1.0
C      1  0.4793010000000  0.5014280000000  0.5658200000000 1.0
C      1  0.5188480000000  0.4848390000000  0.5218900000000 1.0
C      1  0.5158940000000  0.5499010000000  0.5023240000000 1.0
C      1  0.4967430000000  0.5180950000000  0.5490850000000 1.0
C      1  0.5396700000000  0.5349140000000  0.5069490000000 1.0
END
