TITL C-2848505-4874-578 -0.0012733566700015 125000 -981.097744981621 0 0 182 (C1) n - 1
REM
REM in /home/bkarasulu/work/CARBON/AIRSS/Generating-Clusters/AIREBO/with-SteepDescent/Only-C1/SD-CG-opt/Try1-1.4A-POS3A/HFTN-CG
REM
REM
REM
REM
REM
REM ./C.cell (11c1c37f851c82e70ff6c80c92926a4b)
REM
REM compiler GCC version 9.2.1 20190827 (Red Hat 9.2.1-1)
REM options -cpp -mtune=generic -march=x86-64 -g -O0 -fpre-include=/usr/include/finclude/math-vector-fortran.h
REM seed -1131491815 298819197 -492008890 -510600330 2069493492 85592290 1795407450 1350887756 -633018520 -703394176 -1230055577 676267726 209428747 -1942474088 -2060748704 -1404644736 -2051738627 -396144627 1616009743 799458429 1851842760 1570273902 -292927444 -1309202414 343064117 -1235833761 994125370 -929921130 2094928898 1736180819 1557120534 631042245 1235831850
REM
CELL 1.54180   50.00000   50.00000   50.00000   90.00000   90.00000   90.00000
LATT -1
SFAC C  
C      1  0.5673800000000  0.5740440000000  0.5428150000000 1.0
C      1  0.4877730000000  0.6151400000000  0.5228610000000 1.0
C      1  0.3760930000000  0.4518880000000  0.4683700000000 1.0
C      1  0.4151500000000  0.5172130000000  0.5733250000000 1.0
C      1  0.4440220000000  0.4504740000000  0.5729300000000 1.0
C      1  0.5358860000000  0.5384390000000  0.4489190000000 1.0
C      1  0.4397850000000  0.5391100000000  0.5245050000000 1.0
C      1  0.4625800000000  0.4663070000000  0.4486300000000 1.0
C      1  0.4984800000000  0.4361050000000  0.5201890000000 1.0
C      1  0.5122100000000  0.4626820000000  0.5696970000000 1.0
C      1  0.4869830000000  0.4799900000000  0.5785190000000 1.0
C      1  0.4083830000000  0.5421650000000  0.5533020000000 1.0
C      1  0.6080160000000  0.4572780000000  0.4680700000000 1.0
C      1  0.5331910000000  0.4712660000000  0.5171500000000 1.0
C      1  0.6004780000000  0.4850320000000  0.4595570000000 1.0
C      1  0.5108220000000  0.5945180000000  0.5345240000000 1.0
C      1  0.5552730000000  0.5635570000000  0.4463050000000 1.0
C      1  0.5855180000000  0.5382560000000  0.4396460000000 1.0
C      1  0.4382220000000  0.4814350000000  0.5305070000000 1.0
C      1  0.4233240000000  0.5113360000000  0.5227820000000 1.0
C      1  0.4775260000000  0.4581640000000  0.4028270000000 1.0
C      1  0.3978700000000  0.5322250000000  0.5226810000000 1.0
C      1  0.5675920000000  0.4684450000000  0.5373500000000 1.0
C      1  0.4856880000000  0.4320370000000  0.5491350000000 1.0
C      1  0.4627060000000  0.5349250000000  0.5470920000000 1.0
C      1  0.4321740000000  0.5870620000000  0.5050550000000 1.0
C      1  0.4446890000000  0.3986450000000  0.4774750000000 1.0
C      1  0.4921460000000  0.5345360000000  0.5642650000000 1.0
C      1  0.4587040000000  0.6005570000000  0.5139570000000 1.0
C      1  0.5436840000000  0.4207280000000  0.5325110000000 1.0
C      1  0.4178590000000  0.5482590000000  0.4739880000000 1.0
C      1  0.4998390000000  0.4037410000000  0.5560680000000 1.0
C      1  0.4157070000000  0.5106130000000  0.4612060000000 1.0
C      1  0.3993920000000  0.5540040000000  0.5002920000000 1.0
C      1  0.4238300000000  0.4223520000000  0.4750610000000 1.0
C      1  0.5265350000000  0.5060030000000  0.4052670000000 1.0
C      1  0.4168830000000  0.4845190000000  0.5042130000000 1.0
C      1  0.4571320000000  0.5759680000000  0.5352790000000 1.0
C      1  0.5577160000000  0.5417380000000  0.5384450000000 1.0
C      1  0.5271200000000  0.5681640000000  0.5760140000000 1.0
C      1  0.4860480000000  0.5290290000000  0.4076000000000 1.0
C      1  0.5278430000000  0.4799620000000  0.4705820000000 1.0
C      1  0.4558500000000  0.4545000000000  0.5349590000000 1.0
C      1  0.5236590000000  0.5397210000000  0.5592620000000 1.0
C      1  0.5782710000000  0.5490430000000  0.4659050000000 1.0
C      1  0.4783920000000  0.5642420000000  0.4530960000000 1.0
C      1  0.5016330000000  0.5707320000000  0.5570150000000 1.0
C      1  0.5287470000000  0.4147690000000  0.4431040000000 1.0
C      1  0.4517610000000  0.4483280000000  0.4957570000000 1.0
C      1  0.5155100000000  0.4313250000000  0.4184830000000 1.0
C      1  0.4391370000000  0.4981430000000  0.5771410000000 1.0
C      1  0.4795190000000  0.5057960000000  0.6239190000000 1.0
C      1  0.5572140000000  0.5115350000000  0.4478320000000 1.0
C      1  0.4556650000000  0.5133290000000  0.6239850000000 1.0
C      1  0.4506350000000  0.4988380000000  0.4166790000000 1.0
C      1  0.5422520000000  0.5831430000000  0.4691370000000 1.0
C      1  0.4679810000000  0.4034450000000  0.5441350000000 1.0
C      1  0.5042180000000  0.6022450000000  0.4960330000000 1.0
C      1  0.5214720000000  0.3988160000000  0.5390830000000 1.0
C      1  0.4359190000000  0.5217680000000  0.6000230000000 1.0
C      1  0.4236310000000  0.5340290000000  0.4437490000000 1.0
C      1  0.5249240000000  0.5781210000000  0.5089510000000 1.0
C      1  0.5606600000000  0.5852380000000  0.4933560000000 1.0
C      1  0.5368270000000  0.4076500000000  0.4112600000000 1.0
C      1  0.5306680000000  0.4845360000000  0.5880870000000 1.0
C      1  0.4832840000000  0.4664950000000  0.5188120000000 1.0
C      1  0.4958450000000  0.5358450000000  0.4615650000000 1.0
C      1  0.4505020000000  0.4962570000000  0.4483920000000 1.0
C      1  0.4642190000000  0.5085730000000  0.5171370000000 1.0
C      1  0.5445740000000  0.4528860000000  0.4825880000000 1.0
C      1  0.4856310000000  0.5518890000000  0.4897870000000 1.0
C      1  0.5020430000000  0.5723850000000  0.4219210000000 1.0
C      1  0.4321970000000  0.4580270000000  0.4598820000000 1.0
C      1  0.3736680000000  0.5686420000000  0.4942280000000 1.0
C      1  0.5674050000000  0.4114610000000  0.5144290000000 1.0
C      1  0.4835140000000  0.5024070000000  0.5575090000000 1.0
C      1  0.4472640000000  0.5721420000000  0.4238090000000 1.0
C      1  0.5026320000000  0.3984530000000  0.4575290000000 1.0
C      1  0.5496250000000  0.3938590000000  0.3943740000000 1.0
C      1  0.4331590000000  0.5652500000000  0.5547540000000 1.0
C      1  0.4278020000000  0.4426030000000  0.5500680000000 1.0
C      1  0.5753810000000  0.4778260000000  0.4784000000000 1.0
C      1  0.5142920000000  0.5816990000000  0.4511980000000 1.0
C      1  0.5946410000000  0.4507780000000  0.5340110000000 1.0
C      1  0.5083850000000  0.5096730000000  0.4889400000000 1.0
C      1  0.5070510000000  0.4696080000000  0.4946980000000 1.0
C      1  0.5817470000000  0.4388710000000  0.4441850000000 1.0
C      1  0.4211640000000  0.5646480000000  0.5229320000000 1.0
C      1  0.4011210000000  0.4469870000000  0.4691950000000 1.0
C      1  0.3985260000000  0.4815970000000  0.5326850000000 1.0
C      1  0.4859530000000  0.5633640000000  0.5321980000000 1.0
C      1  0.5293410000000  0.4402800000000  0.5102590000000 1.0
C      1  0.4578440000000  0.5267960000000  0.4102200000000 1.0
C      1  0.5524220000000  0.5012610000000  0.4790440000000 1.0
C      1  0.4813380000000  0.4235050000000  0.4517770000000 1.0
C      1  0.5490690000000  0.4987730000000  0.5106690000000 1.0
C      1  0.5043420000000  0.4988640000000  0.4287280000000 1.0
C      1  0.5742990000000  0.5545050000000  0.4947810000000 1.0
C      1  0.5769280000000  0.4135050000000  0.4661220000000 1.0
C      1  0.5346630000000  0.5301210000000  0.4819240000000 1.0
C      1  0.5476800000000  0.4289790000000  0.4622850000000 1.0
C      1  0.4584600000000  0.5438220000000  0.5963350000000 1.0
C      1  0.5254670000000  0.4008770000000  0.4799980000000 1.0
C      1  0.4348490000000  0.4704730000000  0.5883330000000 1.0
C      1  0.4460430000000  0.5663010000000  0.5844430000000 1.0
C      1  0.5516560000000  0.4672460000000  0.5673630000000 1.0
C      1  0.4241040000000  0.4302630000000  0.4419890000000 1.0
C      1  0.5468760000000  0.5375020000000  0.5921930000000 1.0
C      1  0.5114480000000  0.3877660000000  0.5149420000000 1.0
C      1  0.5989560000000  0.4342490000000  0.4798580000000 1.0
C      1  0.4854790000000  0.4362220000000  0.4233500000000 1.0
C      1  0.4386260000000  0.5761430000000  0.4505550000000 1.0
C      1  0.4916970000000  0.4642940000000  0.4648060000000 1.0
C      1  0.5183780000000  0.5079460000000  0.5175840000000 1.0
C      1  0.4989990000000  0.5097310000000  0.3908660000000 1.0
C      1  0.5690820000000  0.4619320000000  0.4507760000000 1.0
C      1  0.5521020000000  0.5291010000000  0.4041150000000 1.0
C      1  0.5119940000000  0.4288230000000  0.4833520000000 1.0
C      1  0.5429210000000  0.5139900000000  0.5526420000000 1.0
C      1  0.4735950000000  0.4003800000000  0.4754810000000 1.0
C      1  0.5224820000000  0.4353760000000  0.5873010000000 1.0
C      1  0.5075340000000  0.5424120000000  0.4303150000000 1.0
C      1  0.5286170000000  0.4833110000000  0.5481970000000 1.0
C      1  0.5575950000000  0.3982710000000  0.4881930000000 1.0
C      1  0.4863750000000  0.6423540000000  0.5353050000000 1.0
C      1  0.4726560000000  0.5834780000000  0.4187640000000 1.0
C      1  0.6020070000000  0.5691290000000  0.5087430000000 1.0
C      1  0.5350110000000  0.4552210000000  0.6016570000000 1.0
C      1  0.4658730000000  0.5198120000000  0.4607760000000 1.0
C      1  0.5524050000000  0.4377580000000  0.5580080000000 1.0
C      1  0.4871910000000  0.4855240000000  0.3850700000000 1.0
C      1  0.5130790000000  0.5070020000000  0.4561610000000 1.0
C      1  0.4108900000000  0.4523820000000  0.5278430000000 1.0
C      1  0.4526900000000  0.5035960000000  0.5487580000000 1.0
C      1  0.5876180000000  0.4337720000000  0.5090590000000 1.0
C      1  0.5944440000000  0.5262790000000  0.5739910000000 1.0
C      1  0.4588530000000  0.5360700000000  0.4978610000000 1.0
C      1  0.5193170000000  0.5461590000000  0.5993960000000 1.0
C      1  0.4611930000000  0.4809740000000  0.4973780000000 1.0
C      1  0.4280760000000  0.5803420000000  0.4787160000000 1.0
C      1  0.4867370000000  0.4076140000000  0.5056220000000 1.0
C      1  0.4345590000000  0.4872190000000  0.4771580000000 1.0
C      1  0.4386600000000  0.5443010000000  0.4209460000000 1.0
C      1  0.5694590000000  0.4603340000000  0.5045620000000 1.0
C      1  0.5560260000000  0.5005050000000  0.4175620000000 1.0
C      1  0.4735350000000  0.4537740000000  0.5660010000000 1.0
C      1  0.5791660000000  0.5860590000000  0.5183290000000 1.0
C      1  0.5482290000000  0.5877550000000  0.5665700000000 1.0
C      1  0.4201170000000  0.4412910000000  0.5030570000000 1.0
C      1  0.5895180000000  0.5059590000000  0.4386790000000 1.0
C      1  0.5726500000000  0.4974870000000  0.5519470000000 1.0
C      1  0.4998480000000  0.6135450000000  0.4705960000000 1.0
C      1  0.4850740000000  0.5970860000000  0.4473610000000 1.0
C      1  0.5665960000000  0.5483500000000  0.4180530000000 1.0
C      1  0.5994640000000  0.4988270000000  0.4130420000000 1.0
C      1  0.4795920000000  0.4390410000000  0.4819760000000 1.0
C      1  0.5156420000000  0.4525030000000  0.4437390000000 1.0
C      1  0.5312470000000  0.6089310000000  0.5516490000000 1.0
C      1  0.5000070000000  0.4997470000000  0.6002700000000 1.0
C      1  0.5340760000000  0.3755290000000  0.4981020000000 1.0
C      1  0.4605580000000  0.4249310000000  0.5188400000000 1.0
C      1  0.6014570000000  0.4804340000000  0.5546820000000 1.0
C      1  0.5145330000000  0.5660670000000  0.4797840000000 1.0
C      1  0.4276470000000  0.4535010000000  0.3996100000000 1.0
C      1  0.4877740000000  0.5323890000000  0.5246410000000 1.0
C      1  0.4904010000000  0.5321350000000  0.5959700000000 1.0
C      1  0.5435600000000  0.5496350000000  0.5085220000000 1.0
C      1  0.4987200000000  0.4904790000000  0.5351730000000 1.0
C      1  0.4201690000000  0.4329110000000  0.4160270000000 1.0
C      1  0.6148070000000  0.4511950000000  0.5580810000000 1.0
C      1  0.5711800000000  0.5138540000000  0.5246600000000 1.0
C      1  0.5784140000000  0.5757990000000  0.5746780000000 1.0
C      1  0.4835040000000  0.5796170000000  0.5054790000000 1.0
C      1  0.3933740000000  0.5106540000000  0.5490380000000 1.0
C      1  0.4513710000000  0.5497580000000  0.4678160000000 1.0
C      1  0.4814090000000  0.4945730000000  0.4763980000000 1.0
C      1  0.5193880000000  0.5363430000000  0.5284030000000 1.0
C      1  0.4792530000000  0.4830580000000  0.4241570000000 1.0
C      1  0.5694550000000  0.5438620000000  0.5705130000000 1.0
C      1  0.4479760000000  0.4706360000000  0.4025740000000 1.0
C      1  0.5425150000000  0.4659320000000  0.4443680000000 1.0
C      1  0.6053510000000  0.5040780000000  0.5739390000000 1.0
END
