TITL C-2848502-4955-172 -1091.53749341445 125000 -772.203568420606 0 0 148 (C1) n - 1
REM
REM in /home/bkarasulu/work/CARBON/AIRSS/Generating-Clusters/AIREBO/with-SteepDescent/Only-C1/SD-CG-opt/Try1-1.4A-POS3A/HFTN-CG
REM
REM
REM
REM
REM
REM ./C.cell (11c1c37f851c82e70ff6c80c92926a4b)
REM
REM compiler GCC version 9.2.1 20190827 (Red Hat 9.2.1-1)
REM options -cpp -mtune=generic -march=x86-64 -g -O0 -fpre-include=/usr/include/finclude/math-vector-fortran.h
REM seed 350294459 1745530471 -1996299146 -1609848635 401735075 785979594 -970256511 165869762 -1657043644 642447927 1247832195 -1715613460 -1390326800 545167366 -1602740113 -1419147218 638929105 983748646 -883156136 -1582030586 1206215678 -2066164609 -1002226835 55825600 -1994405337 -1207532885 -1047734154 -1174195760 -585558050 -336939554 -361545785 -1599686036 -739377329
REM
CELL 1.54180   50.00000   50.00000   50.00000   90.00000   90.00000   90.00000
LATT -1
SFAC C  
C      1  0.4252620000000  0.4838730000000  0.4390430000000 1.0
C      1  0.5207560000000  0.5540990000000  0.4878080000000 1.0
C      1  0.4113470000000  0.4941060000000  0.5157590000000 1.0
C      1  0.5949250000000  0.4961930000000  0.4902090000000 1.0
C      1  0.5053770000000  0.5411340000000  0.6074340000000 1.0
C      1  0.4169410000000  0.4845960000000  0.5666630000000 1.0
C      1  0.4935460000000  0.5494250000000  0.5834360000000 1.0
C      1  0.4869740000000  0.5558090000000  0.4920470000000 1.0
C      1  0.5498930000000  0.5534150000000  0.5832930000000 1.0
C      1  0.4347770000000  0.5584860000000  0.4602740000000 1.0
C      1  0.5767300000000  0.4776850000000  0.5318150000000 1.0
C      1  0.4811190000000  0.4789750000000  0.4695660000000 1.0
C      1  0.4787170000000  0.6014020000000  0.4783950000000 1.0
C      1  0.4971180000000  0.4026250000000  0.4679660000000 1.0
C      1  0.5773330000000  0.5185220000000  0.4601990000000 1.0
C      1  0.4668620000000  0.4498350000000  0.5238320000000 1.0
C      1  0.4207980000000  0.4516230000000  0.5008990000000 1.0
C      1  0.5381420000000  0.5957610000000  0.5518020000000 1.0
C      1  0.5167460000000  0.5371960000000  0.5417300000000 1.0
C      1  0.4104430000000  0.5643070000000  0.4812930000000 1.0
C      1  0.4710830000000  0.5330740000000  0.4149560000000 1.0
C      1  0.5890500000000  0.5525700000000  0.5027540000000 1.0
C      1  0.4478800000000  0.4842670000000  0.5307070000000 1.0
C      1  0.5541540000000  0.4352680000000  0.5383340000000 1.0
C      1  0.4406350000000  0.5411860000000  0.4235460000000 1.0
C      1  0.5107190000000  0.4897240000000  0.4983000000000 1.0
C      1  0.4464680000000  0.4154520000000  0.4790970000000 1.0
C      1  0.5398500000000  0.5891660000000  0.5085390000000 1.0
C      1  0.5071950000000  0.4957920000000  0.5928840000000 1.0
C      1  0.4261220000000  0.5280320000000  0.4499500000000 1.0
C      1  0.5750650000000  0.4884670000000  0.4542740000000 1.0
C      1  0.5237270000000  0.4650730000000  0.4207050000000 1.0
C      1  0.4621100000000  0.5103740000000  0.5220450000000 1.0
C      1  0.5315380000000  0.5252520000000  0.4733880000000 1.0
C      1  0.4340170000000  0.4406590000000  0.4760160000000 1.0
C      1  0.4995320000000  0.5069570000000  0.4056040000000 1.0
C      1  0.4467290000000  0.4070800000000  0.5068150000000 1.0
C      1  0.5593990000000  0.4954990000000  0.4042080000000 1.0
C      1  0.5436060000000  0.4818610000000  0.5309940000000 1.0
C      1  0.4064170000000  0.4665010000000  0.5212640000000 1.0
C      1  0.4606630000000  0.5375070000000  0.5424580000000 1.0
C      1  0.5877670000000  0.5181700000000  0.5151500000000 1.0
C      1  0.5581860000000  0.4383410000000  0.4922110000000 1.0
C      1  0.4963300000000  0.5747430000000  0.5359470000000 1.0
C      1  0.5545850000000  0.5328240000000  0.4418880000000 1.0
C      1  0.5772080000000  0.4622310000000  0.5015310000000 1.0
C      1  0.5020700000000  0.5726780000000  0.5694000000000 1.0
C      1  0.5362610000000  0.5042740000000  0.5090470000000 1.0
C      1  0.4904030000000  0.4411100000000  0.4607290000000 1.0
C      1  0.4954910000000  0.5186390000000  0.5021850000000 1.0
C      1  0.4885250000000  0.5438960000000  0.5239070000000 1.0
C      1  0.5421370000000  0.4806730000000  0.5772060000000 1.0
C      1  0.4935810000000  0.5561200000000  0.4586640000000 1.0
C      1  0.4839340000000  0.4311240000000  0.5681540000000 1.0
C      1  0.5130480000000  0.4877190000000  0.5603760000000 1.0
C      1  0.4728920000000  0.4696610000000  0.4199220000000 1.0
C      1  0.5050120000000  0.4199170000000  0.4397700000000 1.0
C      1  0.4178250000000  0.5576520000000  0.5213540000000 1.0
C      1  0.4535610000000  0.4610040000000  0.4608360000000 1.0
C      1  0.5230760000000  0.5193830000000  0.6036040000000 1.0
C      1  0.5276490000000  0.4519840000000  0.5343930000000 1.0
C      1  0.5180510000000  0.5504880000000  0.4351270000000 1.0
C      1  0.4679950000000  0.4159500000000  0.4561630000000 1.0
C      1  0.5492430000000  0.5264700000000  0.5930170000000 1.0
C      1  0.5263660000000  0.5778550000000  0.4517340000000 1.0
C      1  0.4098980000000  0.5257970000000  0.5186710000000 1.0
C      1  0.5071210000000  0.4542910000000  0.5577740000000 1.0
C      1  0.4679760000000  0.5033910000000  0.4892590000000 1.0
C      1  0.5347730000000  0.4522140000000  0.4718220000000 1.0
C      1  0.4370940000000  0.4569800000000  0.4313420000000 1.0
C      1  0.5050780000000  0.4601860000000  0.4847470000000 1.0
C      1  0.4735190000000  0.4023200000000  0.5242100000000 1.0
C      1  0.4533730000000  0.4420390000000  0.5732300000000 1.0
C      1  0.5598860000000  0.5364840000000  0.4813660000000 1.0
C      1  0.4230860000000  0.5684460000000  0.5456840000000 1.0
C      1  0.5161130000000  0.6014210000000  0.5382580000000 1.0
C      1  0.4755720000000  0.4949540000000  0.5861890000000 1.0
C      1  0.5731690000000  0.4521550000000  0.5509030000000 1.0
C      1  0.6063240000000  0.4502330000000  0.4886270000000 1.0
C      1  0.4955360000000  0.5356650000000  0.3956420000000 1.0
C      1  0.5660490000000  0.4597760000000  0.5759680000000 1.0
C      1  0.5632890000000  0.4498420000000  0.4381440000000 1.0
C      1  0.4974990000000  0.4480730000000  0.4221080000000 1.0
C      1  0.4108720000000  0.4586040000000  0.5493520000000 1.0
C      1  0.5993310000000  0.5278800000000  0.4845870000000 1.0
C      1  0.4523530000000  0.5904350000000  0.4765790000000 1.0
C      1  0.4645520000000  0.4702390000000  0.5796280000000 1.0
C      1  0.4991150000000  0.5888380000000  0.4660890000000 1.0
C      1  0.4845900000000  0.4778820000000  0.5165590000000 1.0
C      1  0.5164750000000  0.4078700000000  0.4954930000000 1.0
C      1  0.5791910000000  0.5082020000000  0.5466340000000 1.0
C      1  0.4944730000000  0.5276590000000  0.5608830000000 1.0
C      1  0.4654190000000  0.4381860000000  0.4305150000000 1.0
C      1  0.4694060000000  0.5852910000000  0.5502980000000 1.0
C      1  0.3951150000000  0.5403280000000  0.4931420000000 1.0
C      1  0.5318830000000  0.5674270000000  0.5243250000000 1.0
C      1  0.4239900000000  0.5266870000000  0.4814740000000 1.0
C      1  0.4816900000000  0.4055440000000  0.5495890000000 1.0
C      1  0.4599630000000  0.5431330000000  0.4756190000000 1.0
C      1  0.5307710000000  0.4405360000000  0.4428440000000 1.0
C      1  0.5417790000000  0.3981680000000  0.5093610000000 1.0
C      1  0.4492310000000  0.4678180000000  0.5009760000000 1.0
C      1  0.5133050000000  0.5542710000000  0.4046090000000 1.0
C      1  0.4496500000000  0.4581890000000  0.3998370000000 1.0
C      1  0.4448430000000  0.4776920000000  0.5575030000000 1.0
C      1  0.5149410000000  0.4390420000000  0.5087000000000 1.0
C      1  0.5209130000000  0.4668700000000  0.5999030000000 1.0
C      1  0.5284530000000  0.4950830000000  0.4106980000000 1.0
C      1  0.4674940000000  0.5575090000000  0.4375970000000 1.0
C      1  0.4165510000000  0.4873270000000  0.4645360000000 1.0
C      1  0.4391360000000  0.5680940000000  0.4985740000000 1.0
C      1  0.4160830000000  0.5133590000000  0.5659020000000 1.0
C      1  0.4283250000000  0.5272720000000  0.5451080000000 1.0
C      1  0.5248380000000  0.5173920000000  0.4347800000000 1.0
C      1  0.5066530000000  0.4432070000000  0.5891760000000 1.0
C      1  0.5319370000000  0.5629110000000  0.5580270000000 1.0
C      1  0.4899770000000  0.5014880000000  0.5394480000000 1.0
C      1  0.4848410000000  0.4142510000000  0.4974720000000 1.0
C      1  0.4443030000000  0.4289850000000  0.5289480000000 1.0
C      1  0.4477700000000  0.5835870000000  0.4465910000000 1.0
C      1  0.5581790000000  0.5328240000000  0.5369120000000 1.0
C      1  0.5777650000000  0.4887820000000  0.4203770000000 1.0
C      1  0.4744970000000  0.5024710000000  0.4293880000000 1.0
C      1  0.4666640000000  0.5162950000000  0.5683740000000 1.0
C      1  0.5446400000000  0.4778930000000  0.4427950000000 1.0
C      1  0.5542100000000  0.5595590000000  0.4492510000000 1.0
C      1  0.4407910000000  0.5073690000000  0.4271030000000 1.0
C      1  0.5622400000000  0.5060660000000  0.5761110000000 1.0
C      1  0.6069320000000  0.4837650000000  0.5174190000000 1.0
C      1  0.5351620000000  0.5103060000000  0.5478450000000 1.0
C      1  0.5000840000000  0.5248650000000  0.4703700000000 1.0
C      1  0.5421360000000  0.5796860000000  0.4811230000000 1.0
C      1  0.5624880000000  0.4252420000000  0.4616410000000 1.0
C      1  0.5575000000000  0.4195850000000  0.5152640000000 1.0
C      1  0.5288010000000  0.4916580000000  0.4695570000000 1.0
C      1  0.4748490000000  0.4459120000000  0.4910160000000 1.0
C      1  0.4634780000000  0.5166580000000  0.4582760000000 1.0
C      1  0.5408970000000  0.5379460000000  0.5099430000000 1.0
C      1  0.5784470000000  0.5540430000000  0.5299950000000 1.0
C      1  0.6042610000000  0.4765350000000  0.4669830000000 1.0
C      1  0.4346250000000  0.4969090000000  0.4911360000000 1.0
C      1  0.5733550000000  0.5672520000000  0.4763930000000 1.0
C      1  0.4323160000000  0.4379450000000  0.5535610000000 1.0
C      1  0.5571750000000  0.4764940000000  0.4805990000000 1.0
C      1  0.4468920000000  0.5355810000000  0.5049880000000 1.0
C      1  0.5013540000000  0.4978490000000  0.4497580000000 1.0
C      1  0.5834690000000  0.4506470000000  0.4639010000000 1.0
C      1  0.4502640000000  0.5666030000000  0.5520070000000 1.0
END
