TITL C-2848509-3138-223 0.00633144316706348 125000 -395.856872495178 0 0 70 (C1) n - 1
REM
REM in /home/bkarasulu/work/CARBON/AIRSS/Generating-Clusters/AIREBO/with-SteepDescent/Only-C1/SD-CG-opt/Try1-1.4A-POS3A/HFTN-CG
REM
REM
REM
REM
REM
REM ./C.cell (11c1c37f851c82e70ff6c80c92926a4b)
REM
REM compiler GCC version 9.2.1 20190827 (Red Hat 9.2.1-1)
REM options -cpp -mtune=generic -march=x86-64 -g -O0 -fpre-include=/usr/include/finclude/math-vector-fortran.h
REM seed 636346602 603096499 -997331913 1066633079 562009607 1370415717 -979983270 -1863855088 978791540 1991100942 -1021527043 1196703598 -1364272037 1005910918 -84647471 -739065341 419779958 -1424199874 1020256910 -1169757622 2144704793 1608325573 523367261 1924625730 -1592566357 -1023310391 127373589 -1759393191 -716824524 101106883 -1654992062 989439134 145419528
REM
CELL 1.54180   50.00000   50.00000   50.00000   90.00000   90.00000   90.00000
LATT -1
SFAC C  
C      1  0.5152800000000  0.4988100000000  0.4377360000000 1.0
C      1  0.5093440000000  0.4886670000000  0.4983680000000 1.0
C      1  0.4827890000000  0.5700510000000  0.4566180000000 1.0
C      1  0.5153240000000  0.4599110000000  0.5461090000000 1.0
C      1  0.4710900000000  0.4994690000000  0.4997420000000 1.0
C      1  0.5215090000000  0.5568640000000  0.5611820000000 1.0
C      1  0.4549800000000  0.5211500000000  0.4708740000000 1.0
C      1  0.4714510000000  0.5816060000000  0.5026200000000 1.0
C      1  0.4332640000000  0.5348210000000  0.5226910000000 1.0
C      1  0.5209810000000  0.4363950000000  0.4425530000000 1.0
C      1  0.4902730000000  0.4986520000000  0.5243970000000 1.0
C      1  0.4465810000000  0.4631760000000  0.5294200000000 1.0
C      1  0.4602600000000  0.4893290000000  0.5694320000000 1.0
C      1  0.5097360000000  0.5182520000000  0.4844420000000 1.0
C      1  0.5493290000000  0.4791460000000  0.5060150000000 1.0
C      1  0.4891790000000  0.5259810000000  0.5535430000000 1.0
C      1  0.4638950000000  0.5155810000000  0.5591780000000 1.0
C      1  0.4599410000000  0.4381690000000  0.4762200000000 1.0
C      1  0.4776780000000  0.4210970000000  0.4897320000000 1.0
C      1  0.4645190000000  0.5752090000000  0.4374950000000 1.0
C      1  0.5633590000000  0.4960060000000  0.4842380000000 1.0
C      1  0.5324840000000  0.5341120000000  0.4672440000000 1.0
C      1  0.5406980000000  0.4989280000000  0.5287300000000 1.0
C      1  0.4678470000000  0.4403010000000  0.4233680000000 1.0
C      1  0.4825690000000  0.4756880000000  0.5807690000000 1.0
C      1  0.4155180000000  0.4923680000000  0.4903500000000 1.0
C      1  0.4900410000000  0.4627000000000  0.3771720000000 1.0
C      1  0.5205120000000  0.5582170000000  0.5295420000000 1.0
C      1  0.4797370000000  0.5314030000000  0.4918410000000 1.0
C      1  0.5813940000000  0.4596080000000  0.5751190000000 1.0
C      1  0.5496960000000  0.5821490000000  0.4786350000000 1.0
C      1  0.4981500000000  0.4783700000000  0.4513360000000 1.0
C      1  0.4591820000000  0.4701720000000  0.4878110000000 1.0
C      1  0.4939180000000  0.5382820000000  0.5221950000000 1.0
C      1  0.4755060000000  0.5623370000000  0.4828570000000 1.0
C      1  0.4718380000000  0.4511970000000  0.5255710000000 1.0
C      1  0.4421920000000  0.5298970000000  0.5480170000000 1.0
C      1  0.5435210000000  0.4597440000000  0.5366800000000 1.0
C      1  0.5504650000000  0.4402470000000  0.5145300000000 1.0
C      1  0.4972010000000  0.4540250000000  0.4336960000000 1.0
C      1  0.5136070000000  0.4688960000000  0.4770760000000 1.0
C      1  0.5436100000000  0.4948810000000  0.4398260000000 1.0
C      1  0.4725990000000  0.4921730000000  0.4658610000000 1.0
C      1  0.4965050000000  0.4677010000000  0.5250660000000 1.0
C      1  0.5336160000000  0.5638770000000  0.4645530000000 1.0
C      1  0.4859180000000  0.4548780000000  0.4022440000000 1.0
C      1  0.4407200000000  0.5378760000000  0.4968570000000 1.0
C      1  0.5449990000000  0.5461770000000  0.5210450000000 1.0
C      1  0.4906000000000  0.5947540000000  0.5172180000000 1.0
C      1  0.5534110000000  0.5095790000000  0.4628480000000 1.0
C      1  0.5372020000000  0.5938190000000  0.5009810000000 1.0
C      1  0.5481250000000  0.4948070000000  0.5552870000000 1.0
C      1  0.5326620000000  0.5103980000000  0.5734540000000 1.0
C      1  0.5130020000000  0.5306040000000  0.5690680000000 1.0
C      1  0.5102790000000  0.5246880000000  0.4449820000000 1.0
C      1  0.4314790000000  0.4420230000000  0.4829040000000 1.0
C      1  0.5035690000000  0.4606390000000  0.5709590000000 1.0
C      1  0.5752480000000  0.5872730000000  0.4718720000000 1.0
C      1  0.5389400000000  0.4521170000000  0.4881450000000 1.0
C      1  0.5033680000000  0.4155320000000  0.4802330000000 1.0
C      1  0.5102850000000  0.5738750000000  0.4525750000000 1.0
C      1  0.4746930000000  0.4245970000000  0.5174670000000 1.0
C      1  0.5169600000000  0.5856230000000  0.5182960000000 1.0
C      1  0.4416560000000  0.4733470000000  0.5550530000000 1.0
C      1  0.5193350000000  0.5159670000000  0.5256970000000 1.0
C      1  0.4243250000000  0.5094680000000  0.4743400000000 1.0
C      1  0.5631980000000  0.4697650000000  0.5589330000000 1.0
C      1  0.5237050000000  0.4311060000000  0.4691500000000 1.0
C      1  0.5639060000000  0.4180300000000  0.5167280000000 1.0
C      1  0.4292490000000  0.4674440000000  0.5032150000000 1.0
END
