TITL C-2847948-6138-589 0.00183063558538792 125000 -812.827802541023 0 0 150 (C1) n - 1
REM
REM in /home/bkarasulu/work/CARBON/AIRSS/Generating-Clusters/AIREBO/with-SteepDescent/Only-C1/SD-CG-opt/Try1-1.4A-POS3A/HFTN-CG
REM
REM
REM
REM
REM
REM ./C.cell (11c1c37f851c82e70ff6c80c92926a4b)
REM
REM compiler GCC version 9.2.1 20190827 (Red Hat 9.2.1-1)
REM options -cpp -mtune=generic -march=x86-64 -g -O0 -fpre-include=/usr/include/finclude/math-vector-fortran.h
REM seed 1030508245 -411825710 1564388913 967900117 -615433164 -1054773750 -779253825 707327357 131826399 499299663 1737378072 1979153331 -1214048684 -1019434788 1131901491 -1354832509 1975624858 -438160838 -773304497 974423144 904493580 2038090581 1502405461 -106934803 503708005 -1312652834 -1259806147 -466087867 582396725 -1205522482 667966006 -1903071728 -1475555
REM
CELL 1.54180   50.00000   50.00000   50.00000   90.00000   90.00000   90.00000
LATT -1
SFAC C  
C      1  0.5135330000000  0.5738820000000  0.4486070000000 1.0
C      1  0.4639430000000  0.4708630000000  0.5185700000000 1.0
C      1  0.5381080000000  0.5841490000000  0.4946410000000 1.0
C      1  0.5751190000000  0.4548420000000  0.5042570000000 1.0
C      1  0.5043700000000  0.4932970000000  0.4566840000000 1.0
C      1  0.5388470000000  0.5421990000000  0.5563110000000 1.0
C      1  0.4858230000000  0.5184860000000  0.5703970000000 1.0
C      1  0.5541460000000  0.4404250000000  0.4850290000000 1.0
C      1  0.4886480000000  0.4402140000000  0.5348380000000 1.0
C      1  0.4474300000000  0.5161370000000  0.5369300000000 1.0
C      1  0.5723350000000  0.5198200000000  0.5756100000000 1.0
C      1  0.5488850000000  0.4914120000000  0.5515650000000 1.0
C      1  0.4842850000000  0.5661020000000  0.5032820000000 1.0
C      1  0.4029490000000  0.5208710000000  0.4618640000000 1.0
C      1  0.5057590000000  0.4165170000000  0.4729860000000 1.0
C      1  0.4703020000000  0.5027750000000  0.5219690000000 1.0
C      1  0.5043790000000  0.5230920000000  0.4016080000000 1.0
C      1  0.4802060000000  0.5545030000000  0.5866710000000 1.0
C      1  0.4244890000000  0.4360710000000  0.4810100000000 1.0
C      1  0.6174750000000  0.5043200000000  0.4900240000000 1.0
C      1  0.4904430000000  0.5631120000000  0.4699730000000 1.0
C      1  0.4217450000000  0.4959960000000  0.4502700000000 1.0
C      1  0.4845830000000  0.4202360000000  0.4465900000000 1.0
C      1  0.4833240000000  0.4597330000000  0.4621740000000 1.0
C      1  0.4385800000000  0.4831380000000  0.4745420000000 1.0
C      1  0.5299800000000  0.4661850000000  0.4423580000000 1.0
C      1  0.5703170000000  0.5492070000000  0.5586170000000 1.0
C      1  0.5218250000000  0.5353390000000  0.4821370000000 1.0
C      1  0.4033930000000  0.5366760000000  0.5158310000000 1.0
C      1  0.4351440000000  0.4217080000000  0.5101040000000 1.0
C      1  0.4846950000000  0.4864560000000  0.4324740000000 1.0
C      1  0.4921620000000  0.3986390000000  0.4935280000000 1.0
C      1  0.4501010000000  0.5454740000000  0.5437900000000 1.0
C      1  0.5206110000000  0.4337210000000  0.4018070000000 1.0
C      1  0.5285330000000  0.4502700000000  0.5789940000000 1.0
C      1  0.5603130000000  0.5199550000000  0.4416460000000 1.0
C      1  0.4962190000000  0.6042590000000  0.4721070000000 1.0
C      1  0.4412200000000  0.4800420000000  0.4193180000000 1.0
C      1  0.4538830000000  0.5498030000000  0.4985150000000 1.0
C      1  0.5251400000000  0.5065790000000  0.4942870000000 1.0
C      1  0.4434450000000  0.4496560000000  0.5553070000000 1.0
C      1  0.4180800000000  0.4657070000000  0.4367580000000 1.0
C      1  0.4848250000000  0.4741920000000  0.3890200000000 1.0
C      1  0.5882560000000  0.5568720000000  0.5025690000000 1.0
C      1  0.4106350000000  0.5004190000000  0.5771620000000 1.0
C      1  0.5616870000000  0.5389890000000  0.5102270000000 1.0
C      1  0.4992280000000  0.5443900000000  0.5247930000000 1.0
C      1  0.5286200000000  0.5658550000000  0.5403220000000 1.0
C      1  0.5253550000000  0.5577060000000  0.5075640000000 1.0
C      1  0.5620070000000  0.5723190000000  0.5156570000000 1.0
C      1  0.5663940000000  0.5074800000000  0.4983380000000 1.0
C      1  0.3917150000000  0.5189070000000  0.4908300000000 1.0
C      1  0.5295270000000  0.4286900000000  0.4285270000000 1.0
C      1  0.5014850000000  0.4453720000000  0.4845360000000 1.0
C      1  0.4514700000000  0.5785060000000  0.4701140000000 1.0
C      1  0.5227780000000  0.5198510000000  0.5242250000000 1.0
C      1  0.5335350000000  0.4836840000000  0.4712980000000 1.0
C      1  0.5405080000000  0.5578900000000  0.4384150000000 1.0
C      1  0.4973940000000  0.4747120000000  0.5134460000000 1.0
C      1  0.5873330000000  0.5242970000000  0.5449380000000 1.0
C      1  0.5925520000000  0.5592220000000  0.4698260000000 1.0
C      1  0.5192020000000  0.5777230000000  0.5842770000000 1.0
C      1  0.5064370000000  0.5903460000000  0.4944330000000 1.0
C      1  0.4134780000000  0.4620700000000  0.4983380000000 1.0
C      1  0.4596380000000  0.5045820000000  0.4834650000000 1.0
C      1  0.4572290000000  0.4930910000000  0.3952060000000 1.0
C      1  0.5919700000000  0.4955550000000  0.5181240000000 1.0
C      1  0.5472750000000  0.5180350000000  0.5939670000000 1.0
C      1  0.4367150000000  0.5542410000000  0.4628830000000 1.0
C      1  0.4793660000000  0.5260500000000  0.4326770000000 1.0
C      1  0.5530190000000  0.5255370000000  0.4728020000000 1.0
C      1  0.4818860000000  0.4379230000000  0.5802660000000 1.0
C      1  0.5754190000000  0.4750400000000  0.4445570000000 1.0
C      1  0.5016180000000  0.4983640000000  0.5344630000000 1.0
C      1  0.4987740000000  0.5246780000000  0.4593640000000 1.0
C      1  0.4733200000000  0.5890870000000  0.5245180000000 1.0
C      1  0.4628110000000  0.4607110000000  0.4363130000000 1.0
C      1  0.4942800000000  0.4471430000000  0.3986560000000 1.0
C      1  0.4871520000000  0.5222960000000  0.5062700000000 1.0
C      1  0.5646940000000  0.5546870000000  0.4606410000000 1.0
C      1  0.5427650000000  0.4218440000000  0.5669320000000 1.0
C      1  0.5437500000000  0.4861220000000  0.5120270000000 1.0
C      1  0.5462120000000  0.4670890000000  0.5941070000000 1.0
C      1  0.5075690000000  0.4452740000000  0.4452890000000 1.0
C      1  0.5290620000000  0.4596100000000  0.4944250000000 1.0
C      1  0.5336130000000  0.4018770000000  0.5121650000000 1.0
C      1  0.5333420000000  0.5227250000000  0.3931380000000 1.0
C      1  0.5156880000000  0.4489810000000  0.5237640000000 1.0
C      1  0.4912790000000  0.5721060000000  0.4253140000000 1.0
C      1  0.5665250000000  0.4864650000000  0.5789510000000 1.0
C      1  0.4319830000000  0.4639910000000  0.5199380000000 1.0
C      1  0.4203160000000  0.4662910000000  0.5469280000000 1.0
C      1  0.4778870000000  0.4380070000000  0.4195020000000 1.0
C      1  0.5273510000000  0.4132890000000  0.5375420000000 1.0
C      1  0.5089500000000  0.4240120000000  0.5650980000000 1.0
C      1  0.4803180000000  0.4961220000000  0.5955170000000 1.0
C      1  0.4127220000000  0.5576440000000  0.5376290000000 1.0
C      1  0.5495160000000  0.4991000000000  0.4062790000000 1.0
C      1  0.5356470000000  0.5312970000000  0.4251550000000 1.0
C      1  0.4224020000000  0.5294830000000  0.5839690000000 1.0
C      1  0.4299440000000  0.5280080000000  0.4422340000000 1.0
C      1  0.5401110000000  0.4440460000000  0.5413180000000 1.0
C      1  0.4833960000000  0.4693730000000  0.5892220000000 1.0
C      1  0.5544050000000  0.5198230000000  0.5367100000000 1.0
C      1  0.4079310000000  0.4904410000000  0.4873280000000 1.0
C      1  0.4706520000000  0.4209610000000  0.5543270000000 1.0
C      1  0.6078600000000  0.5239650000000  0.5178150000000 1.0
C      1  0.5040650000000  0.4673000000000  0.5649460000000 1.0
C      1  0.5277890000000  0.4986300000000  0.4324310000000 1.0
C      1  0.4761540000000  0.5876160000000  0.4515370000000 1.0
C      1  0.4416000000000  0.5028600000000  0.5847350000000 1.0
C      1  0.4547440000000  0.4109880000000  0.4875510000000 1.0
C      1  0.5577630000000  0.4528790000000  0.4410330000000 1.0
C      1  0.5129550000000  0.5827560000000  0.5564030000000 1.0
C      1  0.5186040000000  0.5247100000000  0.5769990000000 1.0
C      1  0.5428150000000  0.5793940000000  0.4650770000000 1.0
C      1  0.5718950000000  0.4972420000000  0.4272740000000 1.0
C      1  0.5191900000000  0.4953370000000  0.5598570000000 1.0
C      1  0.6086710000000  0.5359850000000  0.4864430000000 1.0
C      1  0.4499380000000  0.4570520000000  0.4838650000000 1.0
C      1  0.4083870000000  0.4907950000000  0.5509900000000 1.0
C      1  0.4558970000000  0.4179670000000  0.4605780000000 1.0
C      1  0.4843950000000  0.5809890000000  0.5493450000000 1.0
C      1  0.5356510000000  0.4121480000000  0.4846090000000 1.0
C      1  0.5714150000000  0.5747730000000  0.5443020000000 1.0
C      1  0.4428660000000  0.4231380000000  0.5381790000000 1.0
C      1  0.4521510000000  0.5892910000000  0.4978980000000 1.0
C      1  0.4738070000000  0.4454520000000  0.4982450000000 1.0
C      1  0.4745200000000  0.4170110000000  0.5145450000000 1.0
C      1  0.5596720000000  0.4649320000000  0.5329540000000 1.0
C      1  0.4389650000000  0.5691480000000  0.5219230000000 1.0
C      1  0.4305500000000  0.5132160000000  0.4988210000000 1.0
C      1  0.5938420000000  0.4796200000000  0.4903920000000 1.0
C      1  0.5675250000000  0.4860350000000  0.4719670000000 1.0
C      1  0.4943980000000  0.4970090000000  0.4076750000000 1.0
C      1  0.5824740000000  0.4695210000000  0.5569040000000 1.0
C      1  0.4229690000000  0.5436530000000  0.4896420000000 1.0
C      1  0.4803780000000  0.5474630000000  0.5533980000000 1.0
C      1  0.4530780000000  0.5112260000000  0.4241790000000 1.0
C      1  0.4894500000000  0.5467920000000  0.4138440000000 1.0
C      1  0.4247250000000  0.5488320000000  0.5645890000000 1.0
C      1  0.5497850000000  0.4238810000000  0.4556370000000 1.0
C      1  0.4753630000000  0.5344980000000  0.4804560000000 1.0
C      1  0.4367780000000  0.4427180000000  0.4499740000000 1.0
C      1  0.4855450000000  0.4843370000000  0.4835570000000 1.0
C      1  0.4617040000000  0.4966650000000  0.5604480000000 1.0
C      1  0.4730880000000  0.4658140000000  0.5509430000000 1.0
C      1  0.5078310000000  0.5527010000000  0.5930440000000 1.0
C      1  0.4179390000000  0.5099640000000  0.5302580000000 1.0
C      1  0.6031190000000  0.4813230000000  0.5429290000000 1.0
END
