TITL C-2848502-4955-53 -0.0019590402945319 125000 -278.168131387549 0 0 48 (C1) n - 1
REM
REM in /home/bkarasulu/work/CARBON/AIRSS/Generating-Clusters/AIREBO/with-SteepDescent/Only-C1/SD-CG-opt/Try1-1.4A-POS3A/HFTN-CG
REM
REM
REM
REM
REM
REM ./C.cell (11c1c37f851c82e70ff6c80c92926a4b)
REM
REM compiler GCC version 9.2.1 20190827 (Red Hat 9.2.1-1)
REM options -cpp -mtune=generic -march=x86-64 -g -O0 -fpre-include=/usr/include/finclude/math-vector-fortran.h
REM seed 1116882032 -984311546 1873586287 599493840 -604372012 -2083570181 1183289756 321620138 -193423116 1847168439 1728394291 -1031551198 1582334156 -122219686 -465678115 26407986 -2090051666 1210956187 1597200099 2040110682 2094479794 -1968944002 520676619 763185695 923334124 -1091742832 -450350444 1215390028 -1166574100 1015109815 -276202528 -95127348 978505226
REM
CELL 1.54180   50.00000   50.00000   50.00000   90.00000   90.00000   90.00000
LATT -1
SFAC C  
C      1  0.5194490000000  0.4535710000000  0.5576640000000 1.0
C      1  0.4940740000000  0.5102210000000  0.4951810000000 1.0
C      1  0.5165610000000  0.5430010000000  0.4971330000000 1.0
C      1  0.4841750000000  0.4642860000000  0.4949760000000 1.0
C      1  0.5399980000000  0.4651910000000  0.4845380000000 1.0
C      1  0.4456340000000  0.5356730000000  0.4811230000000 1.0
C      1  0.4595800000000  0.4622720000000  0.4804280000000 1.0
C      1  0.4741020000000  0.4612580000000  0.5444110000000 1.0
C      1  0.5023250000000  0.4811920000000  0.4453440000000 1.0
C      1  0.4906990000000  0.5573840000000  0.5478250000000 1.0
C      1  0.5188360000000  0.4582250000000  0.5290450000000 1.0
C      1  0.4438690000000  0.5080190000000  0.4689250000000 1.0
C      1  0.4812000000000  0.5468130000000  0.5711060000000 1.0
C      1  0.4543040000000  0.5087030000000  0.5562690000000 1.0
C      1  0.4996930000000  0.4851720000000  0.4853980000000 1.0
C      1  0.4394550000000  0.4895520000000  0.5144160000000 1.0
C      1  0.5542210000000  0.4447210000000  0.4735920000000 1.0
C      1  0.4635500000000  0.4500980000000  0.4550120000000 1.0
C      1  0.4916740000000  0.4547430000000  0.5666240000000 1.0
C      1  0.5403350000000  0.5020040000000  0.5149580000000 1.0
C      1  0.4613110000000  0.5354520000000  0.5109030000000 1.0
C      1  0.4529250000000  0.4797200000000  0.5428090000000 1.0
C      1  0.4861180000000  0.5029440000000  0.4370750000000 1.0
C      1  0.4425100000000  0.4847510000000  0.4865470000000 1.0
C      1  0.5134160000000  0.5177420000000  0.5193040000000 1.0
C      1  0.5253860000000  0.4872440000000  0.4674770000000 1.0
C      1  0.4616500000000  0.5278730000000  0.5747320000000 1.0
C      1  0.4701880000000  0.5163910000000  0.4561490000000 1.0
C      1  0.5768880000000  0.5302750000000  0.5034450000000 1.0
C      1  0.4658640000000  0.5602890000000  0.4884750000000 1.0
C      1  0.4470150000000  0.5160060000000  0.5279590000000 1.0
C      1  0.4270620000000  0.4193080000000  0.4304290000000 1.0
C      1  0.4952280000000  0.5592410000000  0.4766540000000 1.0
C      1  0.5975720000000  0.5479710000000  0.5059160000000 1.0
C      1  0.4906920000000  0.4574240000000  0.5210920000000 1.0
C      1  0.5330700000000  0.5157170000000  0.4846910000000 1.0
C      1  0.4912330000000  0.5429610000000  0.5206750000000 1.0
C      1  0.5633210000000  0.5261400000000  0.4764950000000 1.0
C      1  0.4443420000000  0.4353890000000  0.4418190000000 1.0
C      1  0.5782390000000  0.5118560000000  0.4576990000000 1.0
C      1  0.5243020000000  0.5638910000000  0.4639970000000 1.0
C      1  0.5408900000000  0.4478490000000  0.5726180000000 1.0
C      1  0.5436700000000  0.5485610000000  0.4644860000000 1.0
C      1  0.5756950000000  0.5117000000000  0.5488230000000 1.0
C      1  0.4891720000000  0.4562540000000  0.4441980000000 1.0
C      1  0.5365690000000  0.4719260000000  0.5117930000000 1.0
C      1  0.4859190000000  0.5281570000000  0.4762840000000 1.0
C      1  0.5660160000000  0.5148690000000  0.5234880000000 1.0
END
