TITL C-2847954-6904-506 -0.00497161740666126 125000 -781.249676732785 0 0 140 (C1) n - 1
REM
REM in /home/bkarasulu/work/CARBON/AIRSS/Generating-Clusters/AIREBO/with-SteepDescent/Only-C1/SD-CG-opt/Try1-1.4A-POS3A/HFTN-CG
REM
REM
REM
REM
REM
REM ./C.cell (11c1c37f851c82e70ff6c80c92926a4b)
REM
REM compiler GCC version 9.2.1 20190827 (Red Hat 9.2.1-1)
REM options -cpp -mtune=generic -march=x86-64 -g -O0 -fpre-include=/usr/include/finclude/math-vector-fortran.h
REM seed -1396827231 -2059112733 921257460 -2137719744 -1601157017 -1269996352 532082621 1597275170 -1994277999 -942368686 -351161058 -1842687156 -625394220 1946842545 1862421764 -603694246 -1589658162 1098665327 -1122461169 -1641098971 -1033822014 -898132415 689431245 1256527741 -313617688 -1883295744 21321762 1846738307 -338137584 -438628661 524482806 1166993021 576011134
REM
CELL 1.54180   50.00000   50.00000   50.00000   90.00000   90.00000   90.00000
LATT -1
SFAC C  
C      1  0.4953840000000  0.5061030000000  0.4804980000000 1.0
C      1  0.4128660000000  0.4268530000000  0.5023470000000 1.0
C      1  0.5563730000000  0.5443100000000  0.5469920000000 1.0
C      1  0.3978340000000  0.5210130000000  0.5068330000000 1.0
C      1  0.5850510000000  0.4585520000000  0.4458830000000 1.0
C      1  0.4918410000000  0.5117400000000  0.5899760000000 1.0
C      1  0.4486190000000  0.4779050000000  0.4782790000000 1.0
C      1  0.4525770000000  0.5098310000000  0.5940880000000 1.0
C      1  0.4320370000000  0.5310920000000  0.5475110000000 1.0
C      1  0.5132600000000  0.4661220000000  0.5316240000000 1.0
C      1  0.4740960000000  0.5270410000000  0.4535730000000 1.0
C      1  0.5071340000000  0.4204710000000  0.4455310000000 1.0
C      1  0.4728730000000  0.4779660000000  0.4182970000000 1.0
C      1  0.4624850000000  0.5445880000000  0.4277720000000 1.0
C      1  0.5689150000000  0.5428000000000  0.4319150000000 1.0
C      1  0.5341060000000  0.4384620000000  0.5116990000000 1.0
C      1  0.4564930000000  0.5112630000000  0.5603450000000 1.0
C      1  0.5003570000000  0.4522440000000  0.3920210000000 1.0
C      1  0.4260050000000  0.4759860000000  0.4332320000000 1.0
C      1  0.5364220000000  0.4993820000000  0.4670810000000 1.0
C      1  0.4747620000000  0.5358430000000  0.5911420000000 1.0
C      1  0.4696070000000  0.5852370000000  0.5209300000000 1.0
C      1  0.4151040000000  0.5367000000000  0.4863700000000 1.0
C      1  0.4163440000000  0.4698080000000  0.5260030000000 1.0
C      1  0.4490360000000  0.5747000000000  0.4717180000000 1.0
C      1  0.5314400000000  0.4749500000000  0.4022760000000 1.0
C      1  0.5261260000000  0.5527380000000  0.5126670000000 1.0
C      1  0.4273830000000  0.5607380000000  0.5456280000000 1.0
C      1  0.5863200000000  0.5349390000000  0.5412600000000 1.0
C      1  0.5178300000000  0.4660630000000  0.5020050000000 1.0
C      1  0.4936610000000  0.4779410000000  0.3842540000000 1.0
C      1  0.4901210000000  0.4797790000000  0.4617670000000 1.0
C      1  0.5819700000000  0.4560370000000  0.4191120000000 1.0
C      1  0.5077520000000  0.5451530000000  0.4232150000000 1.0
C      1  0.5001310000000  0.5654010000000  0.4722800000000 1.0
C      1  0.4620620000000  0.5544070000000  0.5191110000000 1.0
C      1  0.5458080000000  0.5278240000000  0.4816360000000 1.0
C      1  0.4598850000000  0.4251860000000  0.4392940000000 1.0
C      1  0.5453010000000  0.5880720000000  0.4562200000000 1.0
C      1  0.5151770000000  0.5361740000000  0.5688500000000 1.0
C      1  0.6053540000000  0.4652680000000  0.5005120000000 1.0
C      1  0.5627570000000  0.4359030000000  0.5554990000000 1.0
C      1  0.5200900000000  0.4067020000000  0.5523440000000 1.0
C      1  0.4124640000000  0.5098580000000  0.5587100000000 1.0
C      1  0.4457330000000  0.5183310000000  0.5225270000000 1.0
C      1  0.5125780000000  0.4442780000000  0.4218670000000 1.0
C      1  0.4413920000000  0.5211000000000  0.4917550000000 1.0
C      1  0.4792110000000  0.5425570000000  0.4791880000000 1.0
C      1  0.4947870000000  0.4578990000000  0.4839700000000 1.0
C      1  0.5531960000000  0.4385220000000  0.5824890000000 1.0
C      1  0.4645880000000  0.4295100000000  0.5659830000000 1.0
C      1  0.4442610000000  0.4303610000000  0.5389180000000 1.0
C      1  0.4257550000000  0.4945370000000  0.5795150000000 1.0
C      1  0.3992650000000  0.4985390000000  0.5323220000000 1.0
C      1  0.5544130000000  0.4628970000000  0.5175700000000 1.0
C      1  0.5453070000000  0.4172960000000  0.5355120000000 1.0
C      1  0.5054150000000  0.4775100000000  0.4224850000000 1.0
C      1  0.4361070000000  0.4156630000000  0.5138460000000 1.0
C      1  0.4715050000000  0.5366350000000  0.5470020000000 1.0
C      1  0.5740730000000  0.5034660000000  0.5177380000000 1.0
C      1  0.4373350000000  0.5604130000000  0.4964850000000 1.0
C      1  0.4769240000000  0.5884570000000  0.4731170000000 1.0
C      1  0.4229570000000  0.4520510000000  0.5495130000000 1.0
C      1  0.5229530000000  0.4956830000000  0.4964600000000 1.0
C      1  0.4941990000000  0.5823160000000  0.4442840000000 1.0
C      1  0.4170270000000  0.4764830000000  0.4803220000000 1.0
C      1  0.5709940000000  0.5456470000000  0.4053290000000 1.0
C      1  0.4643110000000  0.4545200000000  0.5308200000000 1.0
C      1  0.5451940000000  0.5964370000000  0.5238830000000 1.0
C      1  0.5533950000000  0.5325020000000  0.5145080000000 1.0
C      1  0.5273710000000  0.5120040000000  0.5221900000000 1.0
C      1  0.5312880000000  0.4508690000000  0.5991090000000 1.0
C      1  0.5814640000000  0.5017080000000  0.4544400000000 1.0
C      1  0.5624870000000  0.4328440000000  0.4665380000000 1.0
C      1  0.5915580000000  0.4768620000000  0.5215920000000 1.0
C      1  0.5392030000000  0.4250680000000  0.4568930000000 1.0
C      1  0.5033480000000  0.3991980000000  0.4953950000000 1.0
C      1  0.5887280000000  0.4519580000000  0.4782040000000 1.0
C      1  0.5003130000000  0.5239660000000  0.5340920000000 1.0
C      1  0.5382050000000  0.5982230000000  0.4845330000000 1.0
C      1  0.5780880000000  0.5558630000000  0.5157510000000 1.0
C      1  0.5691480000000  0.5849380000000  0.5164870000000 1.0
C      1  0.4896190000000  0.5595420000000  0.5884310000000 1.0
C      1  0.5189370000000  0.4539910000000  0.5690750000000 1.0
C      1  0.4765440000000  0.5250660000000  0.5097820000000 1.0
C      1  0.4273260000000  0.5735720000000  0.5240530000000 1.0
C      1  0.5241020000000  0.5671700000000  0.4403900000000 1.0
C      1  0.4182770000000  0.4922740000000  0.4538780000000 1.0
C      1  0.5400640000000  0.4698380000000  0.5476120000000 1.0
C      1  0.5132750000000  0.4965970000000  0.4462190000000 1.0
C      1  0.4923330000000  0.4460650000000  0.5403030000000 1.0
C      1  0.5266550000000  0.5662980000000  0.4839660000000 1.0
C      1  0.5430170000000  0.5492090000000  0.5696580000000 1.0
C      1  0.5211740000000  0.4084630000000  0.5126050000000 1.0
C      1  0.5553640000000  0.4615750000000  0.4113600000000 1.0
C      1  0.4616280000000  0.5069410000000  0.4753680000000 1.0
C      1  0.5595200000000  0.4771020000000  0.4591900000000 1.0
C      1  0.4419900000000  0.5637040000000  0.4470480000000 1.0
C      1  0.4418890000000  0.4863450000000  0.5220940000000 1.0
C      1  0.5605230000000  0.5652330000000  0.4810580000000 1.0
C      1  0.4624150000000  0.4765310000000  0.4496120000000 1.0
C      1  0.5147250000000  0.5954330000000  0.5086190000000 1.0
C      1  0.4346790000000  0.4696220000000  0.5689200000000 1.0
C      1  0.4786020000000  0.4032070000000  0.4813080000000 1.0
C      1  0.4186670000000  0.5200220000000  0.4569490000000 1.0
C      1  0.5763100000000  0.5112120000000  0.5566780000000 1.0
C      1  0.4291770000000  0.5363260000000  0.4372440000000 1.0
C      1  0.5064400000000  0.5341100000000  0.4962970000000 1.0
C      1  0.4087970000000  0.4533810000000  0.5010360000000 1.0
C      1  0.4793980000000  0.4135280000000  0.4547490000000 1.0
C      1  0.4858550000000  0.5972110000000  0.5016500000000 1.0
C      1  0.3957030000000  0.4906550000000  0.4991930000000 1.0
C      1  0.4996600000000  0.4636290000000  0.5953730000000 1.0
C      1  0.4833240000000  0.5293570000000  0.4055970000000 1.0
C      1  0.5375540000000  0.4606910000000  0.4390920000000 1.0
C      1  0.5765600000000  0.4555220000000  0.5397520000000 1.0
C      1  0.4834150000000  0.5028280000000  0.3985740000000 1.0
C      1  0.5509130000000  0.4989710000000  0.5410130000000 1.0
C      1  0.5039020000000  0.4271870000000  0.5592830000000 1.0
C      1  0.4752670000000  0.4538790000000  0.5755800000000 1.0
C      1  0.5852450000000  0.5027640000000  0.5810150000000 1.0
C      1  0.5910070000000  0.5275830000000  0.5026860000000 1.0
C      1  0.4750550000000  0.4918940000000  0.5192320000000 1.0
C      1  0.5149070000000  0.4484440000000  0.4613000000000 1.0
C      1  0.5825950000000  0.5428960000000  0.4782700000000 1.0
C      1  0.4676370000000  0.4655430000000  0.4997560000000 1.0
C      1  0.4938980000000  0.4858730000000  0.5438130000000 1.0
C      1  0.4778000000000  0.4879750000000  0.6011000000000 1.0
C      1  0.5474330000000  0.5486000000000  0.4547580000000 1.0
C      1  0.5208100000000  0.5756690000000  0.5352950000000 1.0
C      1  0.4767390000000  0.5748570000000  0.4229010000000 1.0
C      1  0.5034740000000  0.5084600000000  0.5626710000000 1.0
C      1  0.5824490000000  0.5292920000000  0.4540410000000 1.0
C      1  0.4554260000000  0.4037850000000  0.4974590000000 1.0
C      1  0.5229170000000  0.5653170000000  0.5921770000000 1.0
C      1  0.5585190000000  0.4591400000000  0.4877280000000 1.0
C      1  0.5093590000000  0.5687880000000  0.5611880000000 1.0
C      1  0.4636270000000  0.4783640000000  0.5550600000000 1.0
C      1  0.5008000000000  0.5224860000000  0.4407540000000 1.0
C      1  0.4514110000000  0.4537260000000  0.4292560000000 1.0
END
