TITL C-2848496-4490-148 0.00453461528284516 125000 -977.282933230751 0 0 179 (C1) n - 1
REM
REM in /home/bkarasulu/work/CARBON/AIRSS/Generating-Clusters/AIREBO/with-SteepDescent/Only-C1/SD-CG-opt/Try1-1.4A-POS3A/HFTN-CG
REM
REM
REM
REM
REM
REM ./C.cell (11c1c37f851c82e70ff6c80c92926a4b)
REM
REM compiler GCC version 9.2.1 20190827 (Red Hat 9.2.1-1)
REM options -cpp -mtune=generic -march=x86-64 -g -O0 -fpre-include=/usr/include/finclude/math-vector-fortran.h
REM seed -144434413 27026842 -576047757 1503755300 -1519165078 617384991 -132719608 -1903719166 -1986267401 -12449343 -1867437955 1513119706 -1510156318 224495728 -927491080 416130865 346692102 1302373196 1115082927 -521700140 749371207 526382515 -2131429267 -1167156426 -162620742 -1677958638 1470529696 -1053513170 1527571397 -726482618 1368215208 -1962974616 -555407915
REM
CELL 1.54180   50.00000   50.00000   50.00000   90.00000   90.00000   90.00000
LATT -1
SFAC C  
C      1  0.4129350000000  0.4760770000000  0.4606590000000 1.0
C      1  0.4976160000000  0.5255850000000  0.4005570000000 1.0
C      1  0.4611330000000  0.5575840000000  0.5737790000000 1.0
C      1  0.4472590000000  0.4886160000000  0.4448770000000 1.0
C      1  0.5453810000000  0.4877690000000  0.5921280000000 1.0
C      1  0.5268620000000  0.5749730000000  0.4705510000000 1.0
C      1  0.4691730000000  0.4823270000000  0.4868300000000 1.0
C      1  0.4303410000000  0.5530070000000  0.5679710000000 1.0
C      1  0.4742430000000  0.5772440000000  0.4226770000000 1.0
C      1  0.5018710000000  0.4136430000000  0.5201150000000 1.0
C      1  0.5644260000000  0.5473450000000  0.4233930000000 1.0
C      1  0.4310940000000  0.4313300000000  0.5784100000000 1.0
C      1  0.5263390000000  0.5344660000000  0.4872300000000 1.0
C      1  0.5802260000000  0.4789570000000  0.4285540000000 1.0
C      1  0.5853670000000  0.5499320000000  0.4873030000000 1.0
C      1  0.4150690000000  0.5353350000000  0.4670540000000 1.0
C      1  0.4333410000000  0.4250260000000  0.5469240000000 1.0
C      1  0.5181650000000  0.5487990000000  0.5331230000000 1.0
C      1  0.5599170000000  0.4453640000000  0.5139860000000 1.0
C      1  0.5463220000000  0.4204640000000  0.4212770000000 1.0
C      1  0.5043840000000  0.5596720000000  0.4865330000000 1.0
C      1  0.4428970000000  0.4671160000000  0.4854650000000 1.0
C      1  0.4786630000000  0.4765970000000  0.5550440000000 1.0
C      1  0.4641530000000  0.4490120000000  0.5645850000000 1.0
C      1  0.4341530000000  0.5037940000000  0.5695460000000 1.0
C      1  0.5341820000000  0.4305070000000  0.5989820000000 1.0
C      1  0.4413060000000  0.5185850000000  0.4761290000000 1.0
C      1  0.5226080000000  0.4441080000000  0.4145660000000 1.0
C      1  0.4428970000000  0.5754040000000  0.4848060000000 1.0
C      1  0.4231250000000  0.5627320000000  0.5404210000000 1.0
C      1  0.4856490000000  0.4430040000000  0.4668870000000 1.0
C      1  0.4325950000000  0.4506540000000  0.4585830000000 1.0
C      1  0.4885910000000  0.4192890000000  0.4444910000000 1.0
C      1  0.5182950000000  0.5083560000000  0.5078020000000 1.0
C      1  0.5774070000000  0.5559260000000  0.5564680000000 1.0
C      1  0.5012670000000  0.5852250000000  0.4298870000000 1.0
C      1  0.5523520000000  0.5439430000000  0.5596350000000 1.0
C      1  0.4962440000000  0.6187000000000  0.5329280000000 1.0
C      1  0.5200320000000  0.4127120000000  0.4417490000000 1.0
C      1  0.5199230000000  0.5466140000000  0.5872640000000 1.0
C      1  0.4422270000000  0.4671300000000  0.4121980000000 1.0
C      1  0.4895580000000  0.4738180000000  0.5857720000000 1.0
C      1  0.5320330000000  0.4461440000000  0.4945460000000 1.0
C      1  0.4421660000000  0.4569230000000  0.5855540000000 1.0
C      1  0.5840290000000  0.4225710000000  0.5065450000000 1.0
C      1  0.5278460000000  0.5643590000000  0.5593590000000 1.0
C      1  0.5738830000000  0.4758310000000  0.5145530000000 1.0
C      1  0.4280820000000  0.4125570000000  0.5173460000000 1.0
C      1  0.5478140000000  0.5122180000000  0.5482610000000 1.0
C      1  0.5884320000000  0.4889500000000  0.5681030000000 1.0
C      1  0.5451000000000  0.5079470000000  0.4771470000000 1.0
C      1  0.4609880000000  0.5864750000000  0.5111070000000 1.0
C      1  0.4197560000000  0.5619770000000  0.4876550000000 1.0
C      1  0.5927310000000  0.5192040000000  0.4857250000000 1.0
C      1  0.4406280000000  0.4187630000000  0.4858110000000 1.0
C      1  0.5050760000000  0.4788770000000  0.4055900000000 1.0
C      1  0.4645690000000  0.4045190000000  0.5034100000000 1.0
C      1  0.5348090000000  0.4703330000000  0.3989520000000 1.0
C      1  0.4268320000000  0.5474610000000  0.4374450000000 1.0
C      1  0.4343570000000  0.4783540000000  0.5375590000000 1.0
C      1  0.3972180000000  0.4782080000000  0.5227260000000 1.0
C      1  0.4512390000000  0.4999420000000  0.4130620000000 1.0
C      1  0.5707820000000  0.5684650000000  0.4710970000000 1.0
C      1  0.4441130000000  0.5410260000000  0.5324040000000 1.0
C      1  0.5044570000000  0.4030690000000  0.5585970000000 1.0
C      1  0.3990230000000  0.4251220000000  0.5101900000000 1.0
C      1  0.4891930000000  0.4302420000000  0.5722200000000 1.0
C      1  0.5868520000000  0.5235720000000  0.4466280000000 1.0
C      1  0.5446900000000  0.6123400000000  0.5011240000000 1.0
C      1  0.4626470000000  0.5524990000000  0.5106800000000 1.0
C      1  0.4915630000000  0.4416140000000  0.4040970000000 1.0
C      1  0.5103600000000  0.4026610000000  0.4729790000000 1.0
C      1  0.4643790000000  0.4213480000000  0.5315450000000 1.0
C      1  0.4696090000000  0.5215510000000  0.5360200000000 1.0
C      1  0.4873440000000  0.5382330000000  0.5836590000000 1.0
C      1  0.4646330000000  0.5705690000000  0.4607110000000 1.0
C      1  0.5287890000000  0.6080810000000  0.5271420000000 1.0
C      1  0.5815860000000  0.4407870000000  0.4807110000000 1.0
C      1  0.4816490000000  0.5421800000000  0.4529100000000 1.0
C      1  0.5231510000000  0.5645240000000  0.4239830000000 1.0
C      1  0.4941350000000  0.5625030000000  0.5177300000000 1.0
C      1  0.5852120000000  0.5141400000000  0.5817810000000 1.0
C      1  0.5208410000000  0.4831700000000  0.4419120000000 1.0
C      1  0.5667810000000  0.5929780000000  0.4833550000000 1.0
C      1  0.4114160000000  0.5012380000000  0.5091200000000 1.0
C      1  0.5748140000000  0.6029940000000  0.5129700000000 1.0
C      1  0.4688550000000  0.6023300000000  0.5363660000000 1.0
C      1  0.4828760000000  0.4759950000000  0.4311860000000 1.0
C      1  0.4448890000000  0.4839680000000  0.5918100000000 1.0
C      1  0.4037840000000  0.5073810000000  0.4510530000000 1.0
C      1  0.5086200000000  0.4478150000000  0.5897630000000 1.0
C      1  0.4711540000000  0.4902900000000  0.6005420000000 1.0
C      1  0.4694790000000  0.5872890000000  0.5596330000000 1.0
C      1  0.5117490000000  0.5345590000000  0.4565060000000 1.0
C      1  0.5556980000000  0.4323860000000  0.4654970000000 1.0
C      1  0.5982730000000  0.5303830000000  0.5339370000000 1.0
C      1  0.4653560000000  0.5312480000000  0.4905530000000 1.0
C      1  0.4801540000000  0.5510510000000  0.5465390000000 1.0
C      1  0.4285650000000  0.5111060000000  0.5367940000000 1.0
C      1  0.5036860000000  0.4297110000000  0.4924660000000 1.0
C      1  0.4853380000000  0.3886740000000  0.5193190000000 1.0
C      1  0.4555680000000  0.4541870000000  0.5313910000000 1.0
C      1  0.4635880000000  0.4596570000000  0.4521440000000 1.0
C      1  0.5263420000000  0.4680350000000  0.5715450000000 1.0
C      1  0.5294530000000  0.4094000000000  0.5359580000000 1.0
C      1  0.4756820000000  0.4049590000000  0.4723820000000 1.0
C      1  0.5177390000000  0.5196240000000  0.5360780000000 1.0
C      1  0.5999380000000  0.4988090000000  0.4616260000000 1.0
C      1  0.4650990000000  0.5043300000000  0.5611050000000 1.0
C      1  0.4934540000000  0.4367730000000  0.5403640000000 1.0
C      1  0.4715450000000  0.5466570000000  0.4223270000000 1.0
C      1  0.5388190000000  0.4775910000000  0.4911170000000 1.0
C      1  0.5522180000000  0.4123910000000  0.5172000000000 1.0
C      1  0.4266500000000  0.4939590000000  0.4851810000000 1.0
C      1  0.6001300000000  0.4818270000000  0.4975850000000 1.0
C      1  0.5693430000000  0.4311480000000  0.4370090000000 1.0
C      1  0.3974510000000  0.4823690000000  0.5523530000000 1.0
C      1  0.5092110000000  0.5060350000000  0.4217970000000 1.0
C      1  0.5907620000000  0.4510390000000  0.4376900000000 1.0
C      1  0.5982200000000  0.4653720000000  0.4677680000000 1.0
C      1  0.5298120000000  0.4446970000000  0.4478610000000 1.0
C      1  0.4978200000000  0.5133920000000  0.5629680000000 1.0
C      1  0.4749070000000  0.4252980000000  0.4198070000000 1.0
C      1  0.5603360000000  0.5124700000000  0.5981680000000 1.0
C      1  0.5249150000000  0.5002110000000  0.5702530000000 1.0
C      1  0.5846390000000  0.4366420000000  0.5542990000000 1.0
C      1  0.4177270000000  0.4854430000000  0.4283230000000 1.0
C      1  0.4028750000000  0.5589370000000  0.5153290000000 1.0
C      1  0.4007450000000  0.5304620000000  0.5337900000000 1.0
C      1  0.5886540000000  0.5561100000000  0.5157830000000 1.0
C      1  0.5590720000000  0.5303190000000  0.4556830000000 1.0
C      1  0.5529340000000  0.5220660000000  0.4088430000000 1.0
C      1  0.5462820000000  0.5610430000000  0.4486920000000 1.0
C      1  0.3989170000000  0.5296570000000  0.4985010000000 1.0
C      1  0.5480570000000  0.4793710000000  0.4355870000000 1.0
C      1  0.4503980000000  0.4221590000000  0.4555700000000 1.0
C      1  0.5093990000000  0.6052920000000  0.4467000000000 1.0
C      1  0.4754020000000  0.5013180000000  0.5147690000000 1.0
C      1  0.5575420000000  0.4920910000000  0.4065620000000 1.0
C      1  0.4787500000000  0.5169110000000  0.6061950000000 1.0
C      1  0.5218990000000  0.4555130000000  0.5409860000000 1.0
C      1  0.6112090000000  0.5104440000000  0.5112520000000 1.0
C      1  0.5280170000000  0.6065110000000  0.4756280000000 1.0
C      1  0.4173070000000  0.4549250000000  0.5493700000000 1.0
C      1  0.4816110000000  0.5845370000000  0.4850760000000 1.0
C      1  0.4818090000000  0.4707620000000  0.5228300000000 1.0
C      1  0.5681450000000  0.5233100000000  0.5254620000000 1.0
C      1  0.5551600000000  0.4519940000000  0.5470980000000 1.0
C      1  0.3958990000000  0.5099500000000  0.5596820000000 1.0
C      1  0.4436520000000  0.5708250000000  0.4366690000000 1.0
C      1  0.4169470000000  0.5296150000000  0.5748030000000 1.0
C      1  0.4687060000000  0.5250050000000  0.4037010000000 1.0
C      1  0.5310120000000  0.4211270000000  0.5665140000000 1.0
C      1  0.5675470000000  0.4906580000000  0.4583340000000 1.0
C      1  0.4967700000000  0.5738250000000  0.5658050000000 1.0
C      1  0.5409660000000  0.5345130000000  0.6003260000000 1.0
C      1  0.5035800000000  0.5900230000000  0.5217630000000 1.0
C      1  0.5395870000000  0.4139900000000  0.4861580000000 1.0
C      1  0.5662280000000  0.4836090000000  0.5467550000000 1.0
C      1  0.5109020000000  0.4628900000000  0.4652830000000 1.0
C      1  0.5454210000000  0.5896260000000  0.5463420000000 1.0
C      1  0.5127760000000  0.5027200000000  0.4673940000000 1.0
C      1  0.5970280000000  0.5358570000000  0.5660780000000 1.0
C      1  0.4015300000000  0.4537370000000  0.5126510000000 1.0
C      1  0.4986650000000  0.4706330000000  0.4932840000000 1.0
C      1  0.4338890000000  0.4444520000000  0.5070560000000 1.0
C      1  0.4472110000000  0.4358360000000  0.4245820000000 1.0
C      1  0.4734310000000  0.4699020000000  0.3988840000000 1.0
C      1  0.5585180000000  0.4350050000000  0.5763680000000 1.0
C      1  0.5127700000000  0.5481250000000  0.3960560000000 1.0
C      1  0.4946080000000  0.6096080000000  0.4740350000000 1.0
C      1  0.4916720000000  0.5150840000000  0.4910140000000 1.0
C      1  0.4839490000000  0.4931190000000  0.4585930000000 1.0
C      1  0.5208090000000  0.4761740000000  0.5184820000000 1.0
C      1  0.5683550000000  0.5056960000000  0.5014110000000 1.0
C      1  0.4319540000000  0.5272420000000  0.4193260000000 1.0
C      1  0.4630980000000  0.5170520000000  0.4533760000000 1.0
C      1  0.5751210000000  0.5790800000000  0.5333740000000 1.0
C      1  0.5281830000000  0.5315280000000  0.4287720000000 1.0
END
