TITL C-2847950-6905-78 0.00205736129326966 125000 -543.866868159407 0 0 105 (C1) n - 1
REM
REM in /home/bkarasulu/work/CARBON/AIRSS/Generating-Clusters/AIREBO/with-SteepDescent/Only-C1/SD-CG-opt/Try1-1.4A-POS3A/HFTN-CG
REM
REM
REM
REM
REM
REM ./C.cell (11c1c37f851c82e70ff6c80c92926a4b)
REM
REM compiler GCC version 9.2.1 20190827 (Red Hat 9.2.1-1)
REM options -cpp -mtune=generic -march=x86-64 -g -O0 -fpre-include=/usr/include/finclude/math-vector-fortran.h
REM seed 756191821 -2013587343 -1787791019 -510392936 1890270346 -372012353 2111862826 -1061575538 -501741735 -1373328663 489399449 385569564 -2006400828 -161509057 1294890798 -1336178453 -1775349879 -1321399973 -1406992741 1941357269 1241585494 -1015977857 -2000301648 -1219772235 -1821837904 1591771282 1048315768 508395030 1797186889 831275137 -1631300943 1793461141 1371197584
REM
CELL 1.54180   50.00000   50.00000   50.00000   90.00000   90.00000   90.00000
LATT -1
SFAC C  
C      1  0.4274990000000  0.5417280000000  0.4620110000000 1.0
C      1  0.4880850000000  0.4845950000000  0.4891940000000 1.0
C      1  0.4722950000000  0.4571410000000  0.4942010000000 1.0
C      1  0.4627010000000  0.4380780000000  0.5279190000000 1.0
C      1  0.4874480000000  0.4214450000000  0.5420990000000 1.0
C      1  0.4824250000000  0.5530920000000  0.4296370000000 1.0
C      1  0.5425330000000  0.5520780000000  0.4884090000000 1.0
C      1  0.5133940000000  0.4853330000000  0.4182200000000 1.0
C      1  0.5675590000000  0.4789010000000  0.4370840000000 1.0
C      1  0.4566230000000  0.5093370000000  0.4218430000000 1.0
C      1  0.4640500000000  0.5184350000000  0.4992770000000 1.0
C      1  0.5458540000000  0.4662570000000  0.5752380000000 1.0
C      1  0.5555150000000  0.5227020000000  0.5277130000000 1.0
C      1  0.5065350000000  0.4423700000000  0.4453670000000 1.0
C      1  0.5366410000000  0.4382350000000  0.4506940000000 1.0
C      1  0.5067610000000  0.5198630000000  0.4873620000000 1.0
C      1  0.5261150000000  0.5520120000000  0.5765980000000 1.0
C      1  0.5733510000000  0.4898180000000  0.5138140000000 1.0
C      1  0.4961200000000  0.5837700000000  0.5241650000000 1.0
C      1  0.4312390000000  0.5147900000000  0.5671460000000 1.0
C      1  0.4838410000000  0.4646130000000  0.5254290000000 1.0
C      1  0.4569410000000  0.4989200000000  0.5354450000000 1.0
C      1  0.6050570000000  0.4973540000000  0.5083350000000 1.0
C      1  0.4381970000000  0.4592000000000  0.4568320000000 1.0
C      1  0.4559900000000  0.4926360000000  0.5744670000000 1.0
C      1  0.4953560000000  0.4718370000000  0.4417460000000 1.0
C      1  0.4137400000000  0.4685770000000  0.5043580000000 1.0
C      1  0.5406780000000  0.5209270000000  0.5764030000000 1.0
C      1  0.4765980000000  0.4375130000000  0.5652370000000 1.0
C      1  0.5095970000000  0.4224150000000  0.5002490000000 1.0
C      1  0.4823580000000  0.5424370000000  0.4946320000000 1.0
C      1  0.5174690000000  0.4659210000000  0.5204490000000 1.0
C      1  0.5526520000000  0.5186720000000  0.4689730000000 1.0
C      1  0.5239350000000  0.5158150000000  0.4412980000000 1.0
C      1  0.5287400000000  0.5023160000000  0.5325930000000 1.0
C      1  0.5812520000000  0.5427800000000  0.4861360000000 1.0
C      1  0.5349610000000  0.4692440000000  0.4373610000000 1.0
C      1  0.4784420000000  0.5599190000000  0.5490070000000 1.0
C      1  0.5280540000000  0.4716490000000  0.4706660000000 1.0
C      1  0.4669220000000  0.4301800000000  0.4827600000000 1.0
C      1  0.5574830000000  0.5114090000000  0.4361100000000 1.0
C      1  0.4410610000000  0.5592900000000  0.5166160000000 1.0
C      1  0.4833630000000  0.4244530000000  0.4536930000000 1.0
C      1  0.5390140000000  0.5196860000000  0.4981320000000 1.0
C      1  0.4723730000000  0.5623870000000  0.5168700000000 1.0
C      1  0.4522130000000  0.5386590000000  0.4384880000000 1.0
C      1  0.5063660000000  0.5320270000000  0.4160740000000 1.0
C      1  0.5480060000000  0.4314030000000  0.5045880000000 1.0
C      1  0.4063320000000  0.4895000000000  0.5285190000000 1.0
C      1  0.4574140000000  0.4400020000000  0.4439810000000 1.0
C      1  0.4915140000000  0.4116560000000  0.4831340000000 1.0
C      1  0.5098140000000  0.5668440000000  0.5503960000000 1.0
C      1  0.5060390000000  0.4963360000000  0.4627930000000 1.0
C      1  0.4767810000000  0.5219790000000  0.4537410000000 1.0
C      1  0.5001130000000  0.5793210000000  0.4741830000000 1.0
C      1  0.4507780000000  0.4757380000000  0.4784260000000 1.0
C      1  0.4597440000000  0.5440670000000  0.5621520000000 1.0
C      1  0.4698650000000  0.5211560000000  0.5739260000000 1.0
C      1  0.4917980000000  0.4666110000000  0.5988030000000 1.0
C      1  0.5284250000000  0.5747890000000  0.4682590000000 1.0
C      1  0.5676720000000  0.5702000000000  0.4986440000000 1.0
C      1  0.4098880000000  0.5181110000000  0.4698580000000 1.0
C      1  0.4673520000000  0.4647180000000  0.4301660000000 1.0
C      1  0.5550310000000  0.4863860000000  0.4671020000000 1.0
C      1  0.4885090000000  0.5074500000000  0.4251660000000 1.0
C      1  0.4500420000000  0.5667910000000  0.4664540000000 1.0
C      1  0.4387180000000  0.4480080000000  0.5159790000000 1.0
C      1  0.5067840000000  0.5252870000000  0.5207960000000 1.0
C      1  0.5496660000000  0.5683480000000  0.5275230000000 1.0
C      1  0.5803810000000  0.4650830000000  0.4658940000000 1.0
C      1  0.4303190000000  0.5607150000000  0.4906600000000 1.0
C      1  0.5262740000000  0.4756810000000  0.5491960000000 1.0
C      1  0.4134360000000  0.5085020000000  0.5023950000000 1.0
C      1  0.4213340000000  0.4746780000000  0.4372070000000 1.0
C      1  0.4869870000000  0.5049000000000  0.5502720000000 1.0
C      1  0.5825540000000  0.5221980000000  0.5077710000000 1.0
C      1  0.4358160000000  0.5376280000000  0.5422950000000 1.0
C      1  0.5744550000000  0.4618940000000  0.5291290000000 1.0
C      1  0.5011590000000  0.4814920000000  0.5704840000000 1.0
C      1  0.5622330000000  0.5107980000000  0.5565720000000 1.0
C      1  0.4727130000000  0.4683010000000  0.5573780000000 1.0
C      1  0.5409420000000  0.4247790000000  0.5343200000000 1.0
C      1  0.5404730000000  0.4863230000000  0.5056910000000 1.0
C      1  0.4793760000000  0.5544780000000  0.4634870000000 1.0
C      1  0.5727070000000  0.4523150000000  0.4964760000000 1.0
C      1  0.5803440000000  0.5315500000000  0.4540170000000 1.0
C      1  0.4922940000000  0.4966360000000  0.5177080000000 1.0
C      1  0.3991980000000  0.4875130000000  0.4801310000000 1.0
C      1  0.5118440000000  0.5259360000000  0.5600880000000 1.0
C      1  0.5131510000000  0.5480040000000  0.4432900000000 1.0
C      1  0.4384620000000  0.5194680000000  0.5156340000000 1.0
C      1  0.5529640000000  0.4459090000000  0.5489260000000 1.0
C      1  0.4441660000000  0.4802960000000  0.5105040000000 1.0
C      1  0.5288210000000  0.4934160000000  0.5865890000000 1.0
C      1  0.4469340000000  0.4835980000000  0.4246310000000 1.0
C      1  0.5245440000000  0.4520390000000  0.4926700000000 1.0
C      1  0.5122580000000  0.4188490000000  0.5284960000000 1.0
C      1  0.5426080000000  0.5481370000000  0.4551550000000 1.0
C      1  0.4667020000000  0.5028210000000  0.4732160000000 1.0
C      1  0.4262420000000  0.4913250000000  0.5479440000000 1.0
C      1  0.5550010000000  0.4354330000000  0.4718980000000 1.0
C      1  0.5658960000000  0.4828130000000  0.5545860000000 1.0
C      1  0.5115340000000  0.5892420000000  0.5013840000000 1.0
C      1  0.5306870000000  0.5435720000000  0.5379250000000 1.0
C      1  0.5395100000000  0.5881610000000  0.5050380000000 1.0
END
