TITL C-2847945-6269-575 0.00528823181484618 125000 -644.676664365324 0 0 127 (C1) n - 1
REM
REM in /home/bkarasulu/work/CARBON/AIRSS/Generating-Clusters/AIREBO/with-SteepDescent/Only-C1/SD-CG-opt/Try1-1.4A-POS3A/HFTN-CG
REM
REM
REM
REM
REM
REM ./C.cell (11c1c37f851c82e70ff6c80c92926a4b)
REM
REM compiler GCC version 9.2.1 20190827 (Red Hat 9.2.1-1)
REM options -cpp -mtune=generic -march=x86-64 -g -O0 -fpre-include=/usr/include/finclude/math-vector-fortran.h
REM seed -526291835 -2006224067 -579422960 1356100129 154323123 -58090546 -1786630291 -40989005 -656274715 -947607041 -1108231761 984836910 -951580636 -658630408 -160717998 1740633972 1824574086 -935106890 -1728331687 1709590094 -1061381952 1389649240 -1085209457 1582034772 896445730 -1128187093 -567371279 -625203885 603431725 -523547899 361484841 246463917 1436631373
REM
CELL 1.54180   50.00000   50.00000   50.00000   90.00000   90.00000   90.00000
LATT -1
SFAC C  
C      1  0.4870150000000  0.4110470000000  0.4612190000000 1.0
C      1  0.5311390000000  0.5962450000000  0.4591840000000 1.0
C      1  0.4788740000000  0.4787170000000  0.5717570000000 1.0
C      1  0.4262950000000  0.5598100000000  0.4935470000000 1.0
C      1  0.4802100000000  0.5201670000000  0.4862320000000 1.0
C      1  0.4977210000000  0.5958090000000  0.4988510000000 1.0
C      1  0.4012230000000  0.5087060000000  0.4798790000000 1.0
C      1  0.5132350000000  0.5759300000000  0.5659430000000 1.0
C      1  0.5247090000000  0.5954080000000  0.5109470000000 1.0
C      1  0.5617900000000  0.5266070000000  0.4498550000000 1.0
C      1  0.5016400000000  0.4881510000000  0.3983390000000 1.0
C      1  0.4763040000000  0.4482810000000  0.4676790000000 1.0
C      1  0.5229770000000  0.4754800000000  0.4107490000000 1.0
C      1  0.5440170000000  0.5918740000000  0.4882490000000 1.0
C      1  0.5652830000000  0.4705240000000  0.5397520000000 1.0
C      1  0.4625200000000  0.3968970000000  0.5086890000000 1.0
C      1  0.4977530000000  0.4940890000000  0.5106220000000 1.0
C      1  0.5376550000000  0.5321900000000  0.5389400000000 1.0
C      1  0.5405800000000  0.4179790000000  0.4631220000000 1.0
C      1  0.5226860000000  0.4444280000000  0.4246310000000 1.0
C      1  0.4232990000000  0.4618880000000  0.4716870000000 1.0
C      1  0.4310970000000  0.4991150000000  0.5811540000000 1.0
C      1  0.5360510000000  0.5103990000000  0.5650210000000 1.0
C      1  0.4276690000000  0.5101120000000  0.5228580000000 1.0
C      1  0.5749750000000  0.4350480000000  0.4534830000000 1.0
C      1  0.5659760000000  0.5601510000000  0.4986890000000 1.0
C      1  0.5705880000000  0.5218360000000  0.4813100000000 1.0
C      1  0.4861270000000  0.4439940000000  0.5110210000000 1.0
C      1  0.4927580000000  0.4322520000000  0.4352680000000 1.0
C      1  0.4024350000000  0.5190040000000  0.5109160000000 1.0
C      1  0.4761750000000  0.4119370000000  0.5359610000000 1.0
C      1  0.5303870000000  0.5026610000000  0.5064330000000 1.0
C      1  0.5730080000000  0.4420150000000  0.4818630000000 1.0
C      1  0.4943170000000  0.3945200000000  0.5095410000000 1.0
C      1  0.4861290000000  0.5711350000000  0.4899510000000 1.0
C      1  0.4882570000000  0.5301360000000  0.5760640000000 1.0
C      1  0.4565460000000  0.4546770000000  0.5627380000000 1.0
C      1  0.5612480000000  0.5474040000000  0.5806820000000 1.0
C      1  0.5696940000000  0.4716740000000  0.4908560000000 1.0
C      1  0.5371530000000  0.4517190000000  0.4656300000000 1.0
C      1  0.5965150000000  0.5327440000000  0.5004110000000 1.0
C      1  0.4733170000000  0.5078720000000  0.5551210000000 1.0
C      1  0.4666470000000  0.5013580000000  0.5223040000000 1.0
C      1  0.5190890000000  0.4480790000000  0.5186110000000 1.0
C      1  0.4266520000000  0.5312660000000  0.4817040000000 1.0
C      1  0.5625320000000  0.5505960000000  0.5530420000000 1.0
C      1  0.5066880000000  0.3949690000000  0.5513820000000 1.0
C      1  0.5119000000000  0.4863730000000  0.5687680000000 1.0
C      1  0.5595500000000  0.4394470000000  0.5272000000000 1.0
C      1  0.4357480000000  0.5349330000000  0.4495680000000 1.0
C      1  0.5903870000000  0.5135000000000  0.4475880000000 1.0
C      1  0.4193390000000  0.4962050000000  0.5507350000000 1.0
C      1  0.4550330000000  0.4337310000000  0.5431790000000 1.0
C      1  0.5808160000000  0.4831680000000  0.5166590000000 1.0
C      1  0.5317620000000  0.5223240000000  0.4366150000000 1.0
C      1  0.4786070000000  0.5503070000000  0.4240420000000 1.0
C      1  0.4737390000000  0.5570130000000  0.5869310000000 1.0
C      1  0.5373960000000  0.4633380000000  0.4975870000000 1.0
C      1  0.4899550000000  0.5660290000000  0.4589060000000 1.0
C      1  0.4893010000000  0.4242690000000  0.5648250000000 1.0
C      1  0.5104560000000  0.5881590000000  0.4479840000000 1.0
C      1  0.5096000000000  0.4084080000000  0.4864970000000 1.0
C      1  0.5082160000000  0.5584040000000  0.6142960000000 1.0
C      1  0.5849180000000  0.5104440000000  0.5181820000000 1.0
C      1  0.4520260000000  0.5241300000000  0.5016910000000 1.0
C      1  0.4280860000000  0.5667760000000  0.5262370000000 1.0
C      1  0.4982150000000  0.4699540000000  0.4926900000000 1.0
C      1  0.5216650000000  0.5567100000000  0.5216390000000 1.0
C      1  0.5086260000000  0.4996800000000  0.5390160000000 1.0
C      1  0.5295200000000  0.4891610000000  0.4769150000000 1.0
C      1  0.5193280000000  0.5496000000000  0.4536450000000 1.0
C      1  0.5422450000000  0.4926220000000  0.5366860000000 1.0
C      1  0.5354520000000  0.4454870000000  0.5483040000000 1.0
C      1  0.5357730000000  0.6169550000000  0.5384950000000 1.0
C      1  0.4583030000000  0.5603780000000  0.4487620000000 1.0
C      1  0.4372120000000  0.4840450000000  0.4496130000000 1.0
C      1  0.4461300000000  0.4468140000000  0.5130840000000 1.0
C      1  0.5424700000000  0.4064820000000  0.4900920000000 1.0
C      1  0.4428900000000  0.5777390000000  0.4709010000000 1.0
C      1  0.4713030000000  0.5391950000000  0.5419920000000 1.0
C      1  0.5742160000000  0.4923070000000  0.4683840000000 1.0
C      1  0.4725470000000  0.4513900000000  0.4281390000000 1.0
C      1  0.5779010000000  0.4699420000000  0.5648230000000 1.0
C      1  0.4639840000000  0.5235580000000  0.4344160000000 1.0
C      1  0.4003920000000  0.4816550000000  0.5291550000000 1.0
C      1  0.5415560000000  0.4917420000000  0.4253990000000 1.0
C      1  0.4446590000000  0.4576190000000  0.4295270000000 1.0
C      1  0.4579810000000  0.5700180000000  0.5004690000000 1.0
C      1  0.4592200000000  0.5061040000000  0.4632890000000 1.0
C      1  0.5135190000000  0.4242430000000  0.5423730000000 1.0
C      1  0.4419940000000  0.4862990000000  0.5043510000000 1.0
C      1  0.4104200000000  0.4810710000000  0.4966470000000 1.0
C      1  0.4907890000000  0.4484920000000  0.5818540000000 1.0
C      1  0.4528230000000  0.4899860000000  0.5904860000000 1.0
C      1  0.5078310000000  0.4996680000000  0.4450490000000 1.0
C      1  0.5073260000000  0.4407930000000  0.4777570000000 1.0
C      1  0.5287670000000  0.4628070000000  0.5720200000000 1.0
C      1  0.4817230000000  0.4820230000000  0.4322480000000 1.0
C      1  0.5481270000000  0.4291200000000  0.4346720000000 1.0
C      1  0.4708990000000  0.4230830000000  0.4886840000000 1.0
C      1  0.5499280000000  0.4808800000000  0.4532640000000 1.0
C      1  0.4459420000000  0.4802910000000  0.5492390000000 1.0
C      1  0.4143240000000  0.5091380000000  0.4512340000000 1.0
C      1  0.5062490000000  0.5503480000000  0.4239680000000 1.0
C      1  0.4137180000000  0.4532270000000  0.5159120000000 1.0
C      1  0.4587200000000  0.4672880000000  0.4890220000000 1.0
C      1  0.5261900000000  0.5371980000000  0.4065480000000 1.0
C      1  0.5210250000000  0.5805660000000  0.5403340000000 1.0
C      1  0.5728280000000  0.6059050000000  0.4920630000000 1.0
C      1  0.5130280000000  0.5496990000000  0.5877210000000 1.0
C      1  0.5129710000000  0.4668450000000  0.4481450000000 1.0
C      1  0.4879140000000  0.5801820000000  0.5817390000000 1.0
C      1  0.4790910000000  0.4812710000000  0.4655420000000 1.0
C      1  0.5315960000000  0.5330150000000  0.4909850000000 1.0
C      1  0.4412410000000  0.4954840000000  0.4178330000000 1.0
C      1  0.4390920000000  0.4335290000000  0.4825730000000 1.0
C      1  0.5603920000000  0.4262650000000  0.5025830000000 1.0
C      1  0.5006080000000  0.5448110000000  0.4985270000000 1.0
C      1  0.4727070000000  0.5022910000000  0.4093380000000 1.0
C      1  0.4687840000000  0.4677950000000  0.5273730000000 1.0
C      1  0.5418880000000  0.5608630000000  0.4744090000000 1.0
C      1  0.5830710000000  0.5805480000000  0.5006690000000 1.0
C      1  0.5383590000000  0.5329980000000  0.5859050000000 1.0
C      1  0.5089680000000  0.5158530000000  0.4722890000000 1.0
C      1  0.5044400000000  0.5306740000000  0.5461630000000 1.0
C      1  0.5582840000000  0.5306340000000  0.5119310000000 1.0
C      1  0.4570500000000  0.5618100000000  0.5337370000000 1.0
END
