TITL C-2848495-5024-362 0.00245622295181579 125000 -258.270481488743 0 0 44 (C1) n - 1
REM
REM in /home/bkarasulu/work/CARBON/AIRSS/Generating-Clusters/AIREBO/with-SteepDescent/Only-C1/SD-CG-opt/Try1-1.4A-POS3A/HFTN-CG
REM
REM
REM
REM
REM
REM ./C.cell (11c1c37f851c82e70ff6c80c92926a4b)
REM
REM compiler GCC version 9.2.1 20190827 (Red Hat 9.2.1-1)
REM options -cpp -mtune=generic -march=x86-64 -g -O0 -fpre-include=/usr/include/finclude/math-vector-fortran.h
REM seed 1474555141 -1067250998 221922034 -384057438 -325486499 -795768109 -24305917 -2094161521 556951716 -965915349 -1269538592 621696535 -903921785 1473463000 306042974 -1337390209 726956151 1192237583 709446223 1281321214 -2031194688 964836792 -1744328837 -1296663086 1729343143 -681869459 1462972183 904613961 -177495758 1101225225 -906523849 1262181979 -1884782730
REM
CELL 1.54180   50.00000   50.00000   50.00000   90.00000   90.00000   90.00000
LATT -1
SFAC C  
C      1  0.4538360000000  0.4852220000000  0.4682330000000 1.0
C      1  0.4577080000000  0.5375370000000  0.4766680000000 1.0
C      1  0.5618440000000  0.4988380000000  0.4795780000000 1.0
C      1  0.5086530000000  0.4854850000000  0.4698910000000 1.0
C      1  0.4412990000000  0.5167290000000  0.5191800000000 1.0
C      1  0.5448200000000  0.5193990000000  0.4860430000000 1.0
C      1  0.4406440000000  0.5270910000000  0.5474230000000 1.0
C      1  0.4750430000000  0.5547030000000  0.4617320000000 1.0
C      1  0.5399980000000  0.5126320000000  0.5754710000000 1.0
C      1  0.4897860000000  0.5107430000000  0.4580440000000 1.0
C      1  0.4752670000000  0.4370150000000  0.5239230000000 1.0
C      1  0.4747570000000  0.5500670000000  0.5234110000000 1.0
C      1  0.5152900000000  0.5117680000000  0.5626940000000 1.0
C      1  0.4549340000000  0.5391230000000  0.5046300000000 1.0
C      1  0.4621300000000  0.5119660000000  0.4675470000000 1.0
C      1  0.4555080000000  0.4739920000000  0.4940220000000 1.0
C      1  0.5210780000000  0.5450930000000  0.5261710000000 1.0
C      1  0.4696190000000  0.5350160000000  0.5490770000000 1.0
C      1  0.5547840000000  0.4716890000000  0.4764180000000 1.0
C      1  0.5107320000000  0.4485260000000  0.4540110000000 1.0
C      1  0.5027590000000  0.4389920000000  0.4789100000000 1.0
C      1  0.5028710000000  0.4747800000000  0.4964320000000 1.0
C      1  0.5200960000000  0.5240730000000  0.4657930000000 1.0
C      1  0.5631360000000  0.5200160000000  0.5621090000000 1.0
C      1  0.4653370000000  0.4721320000000  0.4457810000000 1.0
C      1  0.5185200000000  0.5129450000000  0.5315430000000 1.0
C      1  0.5443920000000  0.5255750000000  0.5153710000000 1.0
C      1  0.5683230000000  0.5237580000000  0.5352830000000 1.0
C      1  0.5074890000000  0.5698740000000  0.4904670000000 1.0
C      1  0.4910340000000  0.4566380000000  0.4361920000000 1.0
C      1  0.5206250000000  0.4483900000000  0.5056320000000 1.0
C      1  0.4769820000000  0.4865930000000  0.5372890000000 1.0
C      1  0.5242890000000  0.4999400000000  0.4421630000000 1.0
C      1  0.5341790000000  0.4697890000000  0.4543810000000 1.0
C      1  0.5005190000000  0.5591490000000  0.5156140000000 1.0
C      1  0.4532750000000  0.4907100000000  0.5167270000000 1.0
C      1  0.5503580000000  0.4540520000000  0.4970940000000 1.0
C      1  0.5007850000000  0.4941210000000  0.5186120000000 1.0
C      1  0.5030250000000  0.5534430000000  0.4678190000000 1.0
C      1  0.4928270000000  0.4892120000000  0.4324640000000 1.0
C      1  0.4860790000000  0.5122090000000  0.5548360000000 1.0
C      1  0.4773910000000  0.4520990000000  0.4968410000000 1.0
C      1  0.4818310000000  0.4581970000000  0.5465180000000 1.0
C      1  0.5061510000000  0.4406790000000  0.5319630000000 1.0
END
