TITL C-2848494-1720-157 -0.00358899795275666 125000 -1062.15480180564 0 0 191 (C1) n - 1
REM
REM in /home/bkarasulu/work/CARBON/AIRSS/Generating-Clusters/AIREBO/with-SteepDescent/Only-C1/SD-CG-opt/Try1-1.4A-POS3A/HFTN-CG
REM
REM
REM
REM
REM
REM ./C.cell (11c1c37f851c82e70ff6c80c92926a4b)
REM
REM compiler GCC version 9.2.1 20190827 (Red Hat 9.2.1-1)
REM options -cpp -mtune=generic -march=x86-64 -g -O0 -fpre-include=/usr/include/finclude/math-vector-fortran.h
REM seed -1042933171 233161197 1732383068 -599712996 -1647975093 886020679 572305810 1388665450 -1479076539 -475577666 -1106581627 -1177596400 1682313158 386200337 1273171669 -1901855478 1128786500 -1416842783 -861508053 -937301652 1306161173 1111459063 99309280 -383789053 -164684042 434143384 1753158631 704409698 -1395529371 -1810731618 -994965210 1030173288 -1096483543
REM
CELL 1.54180   50.00000   50.00000   50.00000   90.00000   90.00000   90.00000
LATT -1
SFAC C  
C      1  0.6071620000000  0.4960920000000  0.4963530000000 1.0
C      1  0.3873160000000  0.5263840000000  0.4920620000000 1.0
C      1  0.4240980000000  0.5549070000000  0.5018550000000 1.0
C      1  0.5873990000000  0.5498020000000  0.5200310000000 1.0
C      1  0.4119190000000  0.5308500000000  0.5144590000000 1.0
C      1  0.5060840000000  0.5708210000000  0.4903800000000 1.0
C      1  0.4898590000000  0.4983680000000  0.3897080000000 1.0
C      1  0.5787640000000  0.4451480000000  0.4484590000000 1.0
C      1  0.4351870000000  0.4328640000000  0.4358710000000 1.0
C      1  0.5575770000000  0.4635900000000  0.4340110000000 1.0
C      1  0.6094140000000  0.4648780000000  0.4871560000000 1.0
C      1  0.4954020000000  0.5815150000000  0.4238550000000 1.0
C      1  0.4174830000000  0.4979200000000  0.4503400000000 1.0
C      1  0.5735370000000  0.5207550000000  0.5752800000000 1.0
C      1  0.4137640000000  0.5202350000000  0.4339300000000 1.0
C      1  0.5480270000000  0.5726150000000  0.5256510000000 1.0
C      1  0.5671310000000  0.5625760000000  0.4323530000000 1.0
C      1  0.4483800000000  0.4724670000000  0.5101980000000 1.0
C      1  0.4692540000000  0.5142210000000  0.5091160000000 1.0
C      1  0.5856870000000  0.4523460000000  0.4800850000000 1.0
C      1  0.5183560000000  0.5375810000000  0.3871430000000 1.0
C      1  0.4653910000000  0.4053810000000  0.4807040000000 1.0
C      1  0.4867220000000  0.4760440000000  0.6111240000000 1.0
C      1  0.5696690000000  0.4444980000000  0.5521950000000 1.0
C      1  0.4134340000000  0.4645050000000  0.4925480000000 1.0
C      1  0.4586570000000  0.5709180000000  0.5394440000000 1.0
C      1  0.5989030000000  0.5118800000000  0.5564890000000 1.0
C      1  0.4819710000000  0.3758650000000  0.4775000000000 1.0
C      1  0.4559110000000  0.5316120000000  0.5460380000000 1.0
C      1  0.4469250000000  0.5637360000000  0.4293760000000 1.0
C      1  0.4814240000000  0.5544990000000  0.4585670000000 1.0
C      1  0.4670030000000  0.4767950000000  0.5836010000000 1.0
C      1  0.5585310000000  0.6030210000000  0.4984210000000 1.0
C      1  0.4662130000000  0.5236710000000  0.5901560000000 1.0
C      1  0.4179890000000  0.5421300000000  0.5719150000000 1.0
C      1  0.5016360000000  0.4234520000000  0.4334430000000 1.0
C      1  0.5171110000000  0.4027420000000  0.4516250000000 1.0
C      1  0.4778250000000  0.4448020000000  0.5881280000000 1.0
C      1  0.4402060000000  0.4938770000000  0.3971010000000 1.0
C      1  0.4620980000000  0.4959570000000  0.6178970000000 1.0
C      1  0.5192860000000  0.4718020000000  0.6132840000000 1.0
C      1  0.5061360000000  0.5921370000000  0.5168720000000 1.0
C      1  0.5377140000000  0.5184620000000  0.3948640000000 1.0
C      1  0.4678600000000  0.4780730000000  0.4426920000000 1.0
C      1  0.5438320000000  0.5746950000000  0.4202310000000 1.0
C      1  0.4297810000000  0.4849160000000  0.5623360000000 1.0
C      1  0.4921480000000  0.5413250000000  0.4170740000000 1.0
C      1  0.6073650000000  0.5278030000000  0.5034880000000 1.0
C      1  0.4179600000000  0.4314860000000  0.4903110000000 1.0
C      1  0.4328520000000  0.5273040000000  0.5956440000000 1.0
C      1  0.5222840000000  0.5864000000000  0.4440980000000 1.0
C      1  0.4825060000000  0.4914450000000  0.4891960000000 1.0
C      1  0.6059310000000  0.4933960000000  0.5302460000000 1.0
C      1  0.5666740000000  0.4915250000000  0.5364320000000 1.0
C      1  0.4967660000000  0.5160660000000  0.5587940000000 1.0
C      1  0.4274770000000  0.4727050000000  0.4122180000000 1.0
C      1  0.5086900000000  0.4509080000000  0.5891210000000 1.0
C      1  0.5020440000000  0.5606960000000  0.5291740000000 1.0
C      1  0.5275860000000  0.4433300000000  0.4868440000000 1.0
C      1  0.4764320000000  0.4145770000000  0.5726180000000 1.0
C      1  0.4631570000000  0.5566540000000  0.5678720000000 1.0
C      1  0.5899070000000  0.5483950000000  0.4294910000000 1.0
C      1  0.5359120000000  0.4330900000000  0.4153330000000 1.0
C      1  0.5153660000000  0.5020630000000  0.6017500000000 1.0
C      1  0.5971740000000  0.5242000000000  0.4507210000000 1.0
C      1  0.4985960000000  0.4520720000000  0.4780390000000 1.0
C      1  0.5672370000000  0.4858080000000  0.4222440000000 1.0
C      1  0.5011210000000  0.4705350000000  0.5284030000000 1.0
C      1  0.4060630000000  0.5433250000000  0.4483450000000 1.0
C      1  0.4559970000000  0.4782690000000  0.5421460000000 1.0
C      1  0.4930250000000  0.4223190000000  0.4914840000000 1.0
C      1  0.4709280000000  0.5426520000000  0.3951700000000 1.0
C      1  0.5272650000000  0.4594490000000  0.4464490000000 1.0
C      1  0.4538230000000  0.4238150000000  0.5265840000000 1.0
C      1  0.4518060000000  0.5539430000000  0.5961780000000 1.0
C      1  0.4656390000000  0.4832780000000  0.3878820000000 1.0
C      1  0.5320630000000  0.5040230000000  0.4169620000000 1.0
C      1  0.5624130000000  0.4909850000000  0.4694110000000 1.0
C      1  0.4119980000000  0.5868730000000  0.4978800000000 1.0
C      1  0.5720490000000  0.5537800000000  0.4833310000000 1.0
C      1  0.5735510000000  0.5649520000000  0.5467670000000 1.0
C      1  0.6034390000000  0.4259540000000  0.5174590000000 1.0
C      1  0.4924290000000  0.5254630000000  0.3806850000000 1.0
C      1  0.4342500000000  0.4490440000000  0.5258990000000 1.0
C      1  0.4388070000000  0.4949310000000  0.5931340000000 1.0
C      1  0.5075630000000  0.5990650000000  0.5501320000000 1.0
C      1  0.3992500000000  0.5007000000000  0.5107570000000 1.0
C      1  0.4349270000000  0.4334040000000  0.4640330000000 1.0
C      1  0.5381500000000  0.5760350000000  0.4953080000000 1.0
C      1  0.4926670000000  0.3995170000000  0.5393830000000 1.0
C      1  0.5545050000000  0.5023600000000  0.4955710000000 1.0
C      1  0.4734020000000  0.5053160000000  0.4605310000000 1.0
C      1  0.5018930000000  0.5325640000000  0.4544350000000 1.0
C      1  0.5292670000000  0.3995910000000  0.5552800000000 1.0
C      1  0.4712570000000  0.4612610000000  0.4939400000000 1.0
C      1  0.5929870000000  0.4940780000000  0.4654360000000 1.0
C      1  0.4433580000000  0.4143320000000  0.4986340000000 1.0
C      1  0.5382780000000  0.4531700000000  0.5536810000000 1.0
C      1  0.4656120000000  0.5036020000000  0.5627040000000 1.0
C      1  0.4309900000000  0.5207720000000  0.4099390000000 1.0
C      1  0.5439130000000  0.4089850000000  0.4566480000000 1.0
C      1  0.4751080000000  0.5978260000000  0.5413260000000 1.0
C      1  0.5497720000000  0.4825450000000  0.6070020000000 1.0
C      1  0.5966860000000  0.5380420000000  0.4778380000000 1.0
C      1  0.5627910000000  0.5511660000000  0.5714590000000 1.0
C      1  0.5446160000000  0.4179690000000  0.4839970000000 1.0
C      1  0.5262990000000  0.6135540000000  0.5010820000000 1.0
C      1  0.5331550000000  0.5815370000000  0.5510770000000 1.0
C      1  0.5621960000000  0.4558290000000  0.5024890000000 1.0
C      1  0.5381830000000  0.5299250000000  0.4716580000000 1.0
C      1  0.5172310000000  0.5609010000000  0.4094350000000 1.0
C      1  0.4910600000000  0.5030060000000  0.5292840000000 1.0
C      1  0.4301000000000  0.5609570000000  0.4545920000000 1.0
C      1  0.5419720000000  0.4793380000000  0.5164910000000 1.0
C      1  0.4441280000000  0.5464140000000  0.4808250000000 1.0
C      1  0.4736370000000  0.4508980000000  0.5323360000000 1.0
C      1  0.5056740000000  0.5628120000000  0.5893510000000 1.0
C      1  0.5035190000000  0.3961280000000  0.4749830000000 1.0
C      1  0.5132560000000  0.4399130000000  0.3936550000000 1.0
C      1  0.4815560000000  0.4544400000000  0.3964540000000 1.0
C      1  0.4245850000000  0.5291620000000  0.5415800000000 1.0
C      1  0.4934070000000  0.4261110000000  0.5213660000000 1.0
C      1  0.5056610000000  0.4890560000000  0.4162760000000 1.0
C      1  0.5036550000000  0.4555350000000  0.4222890000000 1.0
C      1  0.5139730000000  0.5165020000000  0.4902850000000 1.0
C      1  0.4036190000000  0.4926120000000  0.5416470000000 1.0
C      1  0.4310230000000  0.4517950000000  0.5597600000000 1.0
C      1  0.5559380000000  0.4239860000000  0.4353900000000 1.0
C      1  0.4733710000000  0.5704130000000  0.4369830000000 1.0
C      1  0.5124700000000  0.4858640000000  0.5002390000000 1.0
C      1  0.4599410000000  0.5886330000000  0.4901570000000 1.0
C      1  0.4888910000000  0.5121240000000  0.4310320000000 1.0
C      1  0.5095130000000  0.6161720000000  0.4544290000000 1.0
C      1  0.4890160000000  0.5168430000000  0.6122930000000 1.0
C      1  0.5483750000000  0.4643850000000  0.4726600000000 1.0
C      1  0.5135350000000  0.4958810000000  0.5730150000000 1.0
C      1  0.4726120000000  0.5461830000000  0.5202310000000 1.0
C      1  0.4219820000000  0.4452540000000  0.4122040000000 1.0
C      1  0.5302550000000  0.5553930000000  0.5696080000000 1.0
C      1  0.5163150000000  0.5351400000000  0.6016040000000 1.0
C      1  0.5223310000000  0.4265800000000  0.5393320000000 1.0
C      1  0.4511410000000  0.5151590000000  0.4820480000000 1.0
C      1  0.5223310000000  0.5582820000000  0.4632210000000 1.0
C      1  0.5489090000000  0.5324530000000  0.5962260000000 1.0
C      1  0.4197730000000  0.5768040000000  0.5265890000000 1.0
C      1  0.5556310000000  0.5647590000000  0.4608050000000 1.0
C      1  0.5252020000000  0.4497530000000  0.5164220000000 1.0
C      1  0.4602660000000  0.4438430000000  0.4711980000000 1.0
C      1  0.5161470000000  0.6258660000000  0.4791680000000 1.0
C      1  0.5248130000000  0.5042950000000  0.5332370000000 1.0
C      1  0.5582550000000  0.4297210000000  0.5790710000000 1.0
C      1  0.4512470000000  0.4097940000000  0.5527260000000 1.0
C      1  0.4738920000000  0.5599310000000  0.4891340000000 1.0
C      1  0.4276800000000  0.5672820000000  0.5529880000000 1.0
C      1  0.5739480000000  0.4327620000000  0.5218520000000 1.0
C      1  0.4986760000000  0.4747610000000  0.4566810000000 1.0
C      1  0.5795680000000  0.5777830000000  0.5022090000000 1.0
C      1  0.4333970000000  0.4923510000000  0.4920190000000 1.0
C      1  0.5548680000000  0.5324880000000  0.4986730000000 1.0
C      1  0.4883260000000  0.5763640000000  0.5656780000000 1.0
C      1  0.3979130000000  0.5186840000000  0.5600650000000 1.0
C      1  0.5080600000000  0.4666720000000  0.5614660000000 1.0
C      1  0.5402530000000  0.4428000000000  0.5951530000000 1.0
C      1  0.5444590000000  0.5066970000000  0.4476290000000 1.0
C      1  0.5203920000000  0.5362370000000  0.5440440000000 1.0
C      1  0.5453020000000  0.5957010000000  0.4679610000000 1.0
C      1  0.5003530000000  0.3952590000000  0.5690250000000 1.0
C      1  0.4016510000000  0.4448380000000  0.5172010000000 1.0
C      1  0.5491370000000  0.5405820000000  0.5269450000000 1.0
C      1  0.5574510000000  0.4953950000000  0.5839840000000 1.0
C      1  0.5131750000000  0.5011320000000  0.4605230000000 1.0
C      1  0.4600730000000  0.4518850000000  0.4224390000000 1.0
C      1  0.5420140000000  0.3943010000000  0.5262740000000 1.0
C      1  0.4026890000000  0.4922580000000  0.4779880000000 1.0
C      1  0.5524550000000  0.4034560000000  0.5749350000000 1.0
C      1  0.4022540000000  0.4615050000000  0.5454310000000 1.0
C      1  0.4478350000000  0.4332740000000  0.5768680000000 1.0
C      1  0.6007300000000  0.4711220000000  0.4483420000000 1.0
C      1  0.5028340000000  0.5352920000000  0.5081360000000 1.0
C      1  0.5882280000000  0.4689640000000  0.5413300000000 1.0
C      1  0.5738540000000  0.5121210000000  0.4320790000000 1.0
C      1  0.4762230000000  0.4392820000000  0.4464260000000 1.0
C      1  0.5546250000000  0.4111470000000  0.5093840000000 1.0
C      1  0.4354870000000  0.4805720000000  0.4387830000000 1.0
C      1  0.4745570000000  0.6037480000000  0.5094500000000 1.0
C      1  0.5420410000000  0.4868780000000  0.5568160000000 1.0
C      1  0.3870650000000  0.5388630000000  0.4686530000000 1.0
C      1  0.4456130000000  0.5452170000000  0.4072350000000 1.0
C      1  0.4757130000000  0.4064450000000  0.4483190000000 1.0
C      1  0.4343490000000  0.5853080000000  0.4779930000000 1.0
C      1  0.5749630000000  0.5220930000000  0.5353320000000 1.0
END
