TITL C-2847958-8115-400 0.000180663735882367 125000 -705.994787377763 0 0 128 (C1) n - 1
REM
REM in /home/bkarasulu/work/CARBON/AIRSS/Generating-Clusters/AIREBO/with-SteepDescent/Only-C1/SD-CG-opt/Try1-1.4A-POS3A/HFTN-CG
REM
REM
REM
REM
REM
REM ./C.cell (11c1c37f851c82e70ff6c80c92926a4b)
REM
REM compiler GCC version 9.2.1 20190827 (Red Hat 9.2.1-1)
REM options -cpp -mtune=generic -march=x86-64 -g -O0 -fpre-include=/usr/include/finclude/math-vector-fortran.h
REM seed 606752838 265795939 -857390842 1052891949 919183064 -677473164 1667362986 -1177717873 1865878678 286555551 -50605228 -1896053994 2068480580 -2017564906 -1496708176 -14834553 182742763 354826334 -1960368126 -1788833434 1642556665 -759417179 -786303219 -1873055047 1237500710 1537795567 -631549071 1604957867 2083991275 -1929742724 -120612185 561467663 -1719466891
REM
CELL 1.54180   50.00000   50.00000   50.00000   90.00000   90.00000   90.00000
LATT -1
SFAC C  
C      1  0.4320690000000  0.5158950000000  0.5097450000000 1.0
C      1  0.5159090000000  0.4955930000000  0.5114770000000 1.0
C      1  0.5084950000000  0.4729300000000  0.4573050000000 1.0
C      1  0.5020480000000  0.4720030000000  0.5316960000000 1.0
C      1  0.5028060000000  0.5425890000000  0.5802480000000 1.0
C      1  0.4603720000000  0.4179370000000  0.4912960000000 1.0
C      1  0.5065630000000  0.3754420000000  0.5478920000000 1.0
C      1  0.4531810000000  0.4992880000000  0.4888730000000 1.0
C      1  0.4464650000000  0.5297000000000  0.5703340000000 1.0
C      1  0.5713810000000  0.5665560000000  0.4938960000000 1.0
C      1  0.4816200000000  0.5848850000000  0.4959240000000 1.0
C      1  0.5101340000000  0.4638370000000  0.5802980000000 1.0
C      1  0.4952470000000  0.4444110000000  0.4653260000000 1.0
C      1  0.5559270000000  0.5097120000000  0.4898240000000 1.0
C      1  0.4702020000000  0.5200260000000  0.5850640000000 1.0
C      1  0.4805260000000  0.4946650000000  0.5450960000000 1.0
C      1  0.4453760000000  0.5681240000000  0.5402660000000 1.0
C      1  0.4508970000000  0.4186980000000  0.5190920000000 1.0
C      1  0.5352390000000  0.4314580000000  0.5269570000000 1.0
C      1  0.4500380000000  0.4796610000000  0.5465140000000 1.0
C      1  0.4481280000000  0.4992390000000  0.4298070000000 1.0
C      1  0.4855060000000  0.5312790000000  0.5032060000000 1.0
C      1  0.5663320000000  0.4673610000000  0.4601260000000 1.0
C      1  0.5142880000000  0.5263940000000  0.4971260000000 1.0
C      1  0.4694890000000  0.4489280000000  0.4261020000000 1.0
C      1  0.4161960000000  0.5343380000000  0.4614860000000 1.0
C      1  0.5869260000000  0.5436590000000  0.5013420000000 1.0
C      1  0.4932300000000  0.4106500000000  0.4887050000000 1.0
C      1  0.4888880000000  0.4836750000000  0.4958790000000 1.0
C      1  0.5411380000000  0.5558950000000  0.4575000000000 1.0
C      1  0.5742600000000  0.5352440000000  0.4491810000000 1.0
C      1  0.4848480000000  0.4493850000000  0.5174130000000 1.0
C      1  0.4446070000000  0.4384400000000  0.4722400000000 1.0
C      1  0.4732680000000  0.4073150000000  0.4621360000000 1.0
C      1  0.5486160000000  0.4330310000000  0.4701820000000 1.0
C      1  0.4994220000000  0.4268460000000  0.5574330000000 1.0
C      1  0.4444600000000  0.5119460000000  0.5414030000000 1.0
C      1  0.4720120000000  0.5052320000000  0.4611760000000 1.0
C      1  0.5844980000000  0.5013360000000  0.5278970000000 1.0
C      1  0.5111570000000  0.5962870000000  0.4717920000000 1.0
C      1  0.5595900000000  0.4785620000000  0.4117960000000 1.0
C      1  0.4235750000000  0.4459580000000  0.5286760000000 1.0
C      1  0.5428680000000  0.4556100000000  0.4170130000000 1.0
C      1  0.4764440000000  0.4748920000000  0.4461090000000 1.0
C      1  0.5345310000000  0.5393110000000  0.5156420000000 1.0
C      1  0.4193550000000  0.5143410000000  0.4411060000000 1.0
C      1  0.4740030000000  0.4946000000000  0.4114850000000 1.0
C      1  0.5359960000000  0.4722140000000  0.4678190000000 1.0
C      1  0.5363340000000  0.5609870000000  0.5489510000000 1.0
C      1  0.4292890000000  0.5596930000000  0.4629270000000 1.0
C      1  0.4789490000000  0.4291180000000  0.4437370000000 1.0
C      1  0.4901260000000  0.5055070000000  0.6017720000000 1.0
C      1  0.4849660000000  0.4842060000000  0.5762510000000 1.0
C      1  0.5215240000000  0.4515930000000  0.5506760000000 1.0
C      1  0.4625650000000  0.5590120000000  0.4554770000000 1.0
C      1  0.5152060000000  0.4618050000000  0.4124030000000 1.0
C      1  0.5405740000000  0.5680540000000  0.5067330000000 1.0
C      1  0.5347190000000  0.5541410000000  0.4249960000000 1.0
C      1  0.5520530000000  0.4654250000000  0.5145670000000 1.0
C      1  0.4716230000000  0.5537750000000  0.4879970000000 1.0
C      1  0.5607690000000  0.4967670000000  0.4336310000000 1.0
C      1  0.4742290000000  0.4561630000000  0.5849160000000 1.0
C      1  0.4566570000000  0.4477620000000  0.5363640000000 1.0
C      1  0.4482390000000  0.5490320000000  0.4195490000000 1.0
C      1  0.5833840000000  0.5351850000000  0.5341280000000 1.0
C      1  0.5859750000000  0.5193590000000  0.4771610000000 1.0
C      1  0.5095460000000  0.4888390000000  0.4287630000000 1.0
C      1  0.5265850000000  0.5280730000000  0.5862900000000 1.0
C      1  0.4330670000000  0.4734940000000  0.5733810000000 1.0
C      1  0.4562690000000  0.5285370000000  0.4439070000000 1.0
C      1  0.4563240000000  0.5872750000000  0.4733290000000 1.0
C      1  0.5000120000000  0.5716580000000  0.4609070000000 1.0
C      1  0.5187020000000  0.4280070000000  0.4782020000000 1.0
C      1  0.4091070000000  0.5235950000000  0.4858730000000 1.0
C      1  0.4729210000000  0.5061760000000  0.5140180000000 1.0
C      1  0.5546390000000  0.5323640000000  0.5798140000000 1.0
C      1  0.5023470000000  0.4014740000000  0.5430700000000 1.0
C      1  0.5853140000000  0.4473370000000  0.5407860000000 1.0
C      1  0.5037480000000  0.4215340000000  0.5180880000000 1.0
C      1  0.4091280000000  0.4735160000000  0.4762890000000 1.0
C      1  0.5071430000000  0.5484050000000  0.4199990000000 1.0
C      1  0.4741440000000  0.4372410000000  0.5627220000000 1.0
C      1  0.5121590000000  0.5431550000000  0.4699370000000 1.0
C      1  0.5271310000000  0.4480750000000  0.5001320000000 1.0
C      1  0.5530520000000  0.4436080000000  0.4415730000000 1.0
C      1  0.4460250000000  0.4617810000000  0.5924710000000 1.0
C      1  0.4968940000000  0.5178470000000  0.4186440000000 1.0
C      1  0.5664470000000  0.5499260000000  0.4271370000000 1.0
C      1  0.5585930000000  0.5210020000000  0.5179620000000 1.0
C      1  0.4519680000000  0.5584990000000  0.5684950000000 1.0
C      1  0.5420540000000  0.4968100000000  0.5667900000000 1.0
C      1  0.5203290000000  0.4948430000000  0.5903410000000 1.0
C      1  0.5821110000000  0.4696170000000  0.4885580000000 1.0
C      1  0.4886170000000  0.5648510000000  0.4343960000000 1.0
C      1  0.4836740000000  0.4674970000000  0.4075020000000 1.0
C      1  0.5122480000000  0.5864210000000  0.5113110000000 1.0
C      1  0.4526060000000  0.4714030000000  0.4697470000000 1.0
C      1  0.5661050000000  0.4415590000000  0.4948240000000 1.0
C      1  0.4083660000000  0.4944030000000  0.5226190000000 1.0
C      1  0.4639990000000  0.5392090000000  0.5358320000000 1.0
C      1  0.5268750000000  0.5847750000000  0.5402490000000 1.0
C      1  0.5786620000000  0.4744900000000  0.5426970000000 1.0
C      1  0.5344390000000  0.5817400000000  0.4784570000000 1.0
C      1  0.5605930000000  0.5473630000000  0.5564050000000 1.0
C      1  0.4287220000000  0.5819590000000  0.4860510000000 1.0
C      1  0.4166260000000  0.4577290000000  0.5055750000000 1.0
C      1  0.5921490000000  0.4935060000000  0.4983640000000 1.0
C      1  0.5471830000000  0.4732110000000  0.5473360000000 1.0
C      1  0.4792580000000  0.5626160000000  0.5789390000000 1.0
C      1  0.5398670000000  0.4854880000000  0.4945400000000 1.0
C      1  0.4004590000000  0.4968140000000  0.4944760000000 1.0
C      1  0.4268400000000  0.4833130000000  0.4510160000000 1.0
C      1  0.5702960000000  0.5066660000000  0.5826140000000 1.0
C      1  0.4775670000000  0.4565450000000  0.4874270000000 1.0
C      1  0.4234630000000  0.4143270000000  0.5316140000000 1.0
C      1  0.5704300000000  0.5709190000000  0.4660510000000 1.0
C      1  0.4484050000000  0.5450450000000  0.5081570000000 1.0
C      1  0.5319350000000  0.5055580000000  0.4445820000000 1.0
C      1  0.4313910000000  0.5718340000000  0.5128240000000 1.0
C      1  0.4999520000000  0.6135010000000  0.4948300000000 1.0
C      1  0.5486110000000  0.5233210000000  0.4637600000000 1.0
C      1  0.4165720000000  0.4417990000000  0.4785400000000 1.0
C      1  0.5835750000000  0.4949510000000  0.4535990000000 1.0
C      1  0.5682890000000  0.4309330000000  0.5261060000000 1.0
C      1  0.5157330000000  0.5366010000000  0.5430000000000 1.0
C      1  0.4857390000000  0.5266200000000  0.5555350000000 1.0
C      1  0.5014750000000  0.5197120000000  0.4522870000000 1.0
C      1  0.5282140000000  0.5076750000000  0.5401310000000 1.0
END
