TITL C-2848506-1665-654 0.00191418081181249 125000 -340.52195410872 0 0 62 (C1) n - 1
REM
REM in /home/bkarasulu/work/CARBON/AIRSS/Generating-Clusters/AIREBO/with-SteepDescent/Only-C1/SD-CG-opt/Try1-1.4A-POS3A/HFTN-CG
REM
REM
REM
REM
REM
REM ./C.cell (11c1c37f851c82e70ff6c80c92926a4b)
REM
REM compiler GCC version 9.2.1 20190827 (Red Hat 9.2.1-1)
REM options -cpp -mtune=generic -march=x86-64 -g -O0 -fpre-include=/usr/include/finclude/math-vector-fortran.h
REM seed -35437742 -1386327082 1302830156 2042809372 -1198466517 -797263041 765277974 -1854282307 -1294508819 -698997034 -810945913 -9419593 -1542380881 -893366074 -2078385191 1463120616 517399182 -1598992111 -1949975350 1329764469 -1896002301 668609562 1244931314 -1464329952 -1124810835 1651467525 591405697 -1504476572 -694609172 -699023573 -777695082 1062532255 1129852282
REM
CELL 1.54180   50.00000   50.00000   50.00000   90.00000   90.00000   90.00000
LATT -1
SFAC C  
C      1  0.5662480000000  0.5000240000000  0.4755430000000 1.0
C      1  0.4383740000000  0.5048470000000  0.4812730000000 1.0
C      1  0.5061350000000  0.5274210000000  0.5199420000000 1.0
C      1  0.4518200000000  0.6114540000000  0.5351950000000 1.0
C      1  0.4603970000000  0.5039510000000  0.5654770000000 1.0
C      1  0.4577790000000  0.5051650000000  0.4338870000000 1.0
C      1  0.5173370000000  0.5396430000000  0.4389330000000 1.0
C      1  0.5251000000000  0.4573340000000  0.5583260000000 1.0
C      1  0.4454860000000  0.5526240000000  0.4871050000000 1.0
C      1  0.5264540000000  0.5587350000000  0.4849730000000 1.0
C      1  0.5023200000000  0.4775460000000  0.5208140000000 1.0
C      1  0.4893990000000  0.5149990000000  0.4757000000000 1.0
C      1  0.5516950000000  0.4784630000000  0.5562110000000 1.0
C      1  0.4866020000000  0.4256290000000  0.5256220000000 1.0
C      1  0.4568180000000  0.5872330000000  0.5297780000000 1.0
C      1  0.5264140000000  0.4967410000000  0.5585580000000 1.0
C      1  0.5387000000000  0.4866610000000  0.5082760000000 1.0
C      1  0.5103430000000  0.4343090000000  0.4502810000000 1.0
C      1  0.4281030000000  0.5300230000000  0.4917040000000 1.0
C      1  0.5204460000000  0.5284300000000  0.4707270000000 1.0
C      1  0.5533300000000  0.5585260000000  0.4998170000000 1.0
C      1  0.4996620000000  0.5568680000000  0.5042210000000 1.0
C      1  0.4965820000000  0.4842160000000  0.4684940000000 1.0
C      1  0.5748690000000  0.5034510000000  0.5083000000000 1.0
C      1  0.4646130000000  0.5451180000000  0.4669660000000 1.0
C      1  0.4308050000000  0.4782900000000  0.4892650000000 1.0
C      1  0.5175900000000  0.4186000000000  0.5121720000000 1.0
C      1  0.4805400000000  0.4820790000000  0.4979890000000 1.0
C      1  0.4587060000000  0.5273860000000  0.5190780000000 1.0
C      1  0.5046630000000  0.4784090000000  0.5704310000000 1.0
C      1  0.5207760000000  0.5676740000000  0.4377250000000 1.0
C      1  0.4646670000000  0.4428750000000  0.5219200000000 1.0
C      1  0.5141730000000  0.4426180000000  0.5359940000000 1.0
C      1  0.4594640000000  0.5254030000000  0.5508220000000 1.0
C      1  0.4555680000000  0.5553240000000  0.5384170000000 1.0
C      1  0.4569710000000  0.4184590000000  0.4531430000000 1.0
C      1  0.5109230000000  0.5236240000000  0.4177750000000 1.0
C      1  0.4816840000000  0.5212970000000  0.5049770000000 1.0
C      1  0.5709710000000  0.4832470000000  0.5309880000000 1.0
C      1  0.5325280000000  0.4530390000000  0.4565390000000 1.0
C      1  0.5454000000000  0.4361380000000  0.5047730000000 1.0
C      1  0.4746950000000  0.4764850000000  0.5630530000000 1.0
C      1  0.4605610000000  0.5139180000000  0.4599790000000 1.0
C      1  0.4612700000000  0.4566040000000  0.5781490000000 1.0
C      1  0.5249140000000  0.5796910000000  0.4621510000000 1.0
C      1  0.5654020000000  0.5812970000000  0.5086430000000 1.0
C      1  0.4889390000000  0.5560770000000  0.4719570000000 1.0
C      1  0.5509400000000  0.4467330000000  0.4775970000000 1.0
C      1  0.5185850000000  0.5028140000000  0.5304260000000 1.0
C      1  0.4970750000000  0.4533920000000  0.4755930000000 1.0
C      1  0.4668870000000  0.5647730000000  0.5077800000000 1.0
C      1  0.5250130000000  0.4806160000000  0.4558490000000 1.0
C      1  0.5614410000000  0.4722670000000  0.4872850000000 1.0
C      1  0.4734990000000  0.4713310000000  0.5323570000000 1.0
C      1  0.5410500000000  0.5036760000000  0.4598080000000 1.0
C      1  0.5080820000000  0.4498280000000  0.5026530000000 1.0
C      1  0.4476880000000  0.4606820000000  0.5038070000000 1.0
C      1  0.5602500000000  0.5321410000000  0.5048840000000 1.0
C      1  0.5500480000000  0.4578560000000  0.5224060000000 1.0
C      1  0.4060460000000  0.4695650000000  0.4824030000000 1.0
C      1  0.4801990000000  0.4306520000000  0.4574890000000 1.0
C      1  0.5369630000000  0.5157320000000  0.4976020000000 1.0
END
