TITL C-2848506-1665-424 -0.000233992281825733 125000 -231.148385484676 0 0 42 (C1) n - 1
REM
REM in /home/bkarasulu/work/CARBON/AIRSS/Generating-Clusters/AIREBO/with-SteepDescent/Only-C1/SD-CG-opt/Try1-1.4A-POS3A/HFTN-CG
REM
REM
REM
REM
REM
REM ./C.cell (11c1c37f851c82e70ff6c80c92926a4b)
REM
REM compiler GCC version 9.2.1 20190827 (Red Hat 9.2.1-1)
REM options -cpp -mtune=generic -march=x86-64 -g -O0 -fpre-include=/usr/include/finclude/math-vector-fortran.h
REM seed -1552479200 1866304139 380143185 930510760 520254314 645649185 1361265364 2065307327 1486634700 1479922511 -1795566958 -1173909594 1918839538 -449137017 -1374484304 -1904797579 561027669 -1702026824 503802882 -1162463296 1033922653 -1512647973 1358439304 -1982118413 -1432438056 -1448010028 1809720146 -224836762 34124670 -603896976 -588762785 -1072500517 -890597082
REM
CELL 1.54180   50.00000   50.00000   50.00000   90.00000   90.00000   90.00000
LATT -1
SFAC C  
C      1  0.4819000000000  0.4079830000000  0.4855840000000 1.0
C      1  0.5196870000000  0.4544050000000  0.5323360000000 1.0
C      1  0.4458070000000  0.4981270000000  0.4648380000000 1.0
C      1  0.4988540000000  0.4763770000000  0.5338460000000 1.0
C      1  0.4911160000000  0.4295550000000  0.4986680000000 1.0
C      1  0.5772570000000  0.5189280000000  0.4859390000000 1.0
C      1  0.4807030000000  0.5390530000000  0.4744700000000 1.0
C      1  0.4920140000000  0.5590560000000  0.4997320000000 1.0
C      1  0.5385850000000  0.5441630000000  0.5021240000000 1.0
C      1  0.5079540000000  0.5421720000000  0.4543750000000 1.0
C      1  0.4367880000000  0.4826790000000  0.4857860000000 1.0
C      1  0.4877150000000  0.4828570000000  0.5038050000000 1.0
C      1  0.4836680000000  0.5211880000000  0.5534690000000 1.0
C      1  0.5522990000000  0.5034320000000  0.5213920000000 1.0
C      1  0.5428730000000  0.4838010000000  0.4985670000000 1.0
C      1  0.5515860000000  0.4743350000000  0.4607060000000 1.0
C      1  0.5137330000000  0.5512640000000  0.5172840000000 1.0
C      1  0.5156590000000  0.4307780000000  0.5115420000000 1.0
C      1  0.4669410000000  0.5247870000000  0.5099150000000 1.0
C      1  0.4535190000000  0.5489530000000  0.5020160000000 1.0
C      1  0.5095230000000  0.5020430000000  0.5467980000000 1.0
C      1  0.4620540000000  0.5163310000000  0.5365110000000 1.0
C      1  0.5504080000000  0.4494540000000  0.4747840000000 1.0
C      1  0.4479290000000  0.4724590000000  0.5591950000000 1.0
C      1  0.4492370000000  0.5517480000000  0.4721340000000 1.0
C      1  0.5250730000000  0.4859270000000  0.4534680000000 1.0
C      1  0.5607680000000  0.5276520000000  0.5081600000000 1.0
C      1  0.5196020000000  0.5340860000000  0.4817140000000 1.0
C      1  0.5191050000000  0.4941560000000  0.4805550000000 1.0
C      1  0.4430030000000  0.4955980000000  0.5386470000000 1.0
C      1  0.5080740000000  0.5358170000000  0.5398930000000 1.0
C      1  0.5406850000000  0.5011990000000  0.5456060000000 1.0
C      1  0.4769400000000  0.4532540000000  0.5015980000000 1.0
C      1  0.4927030000000  0.5191460000000  0.4417340000000 1.0
C      1  0.5398070000000  0.4525930000000  0.5049670000000 1.0
C      1  0.4427750000000  0.4786070000000  0.5124980000000 1.0
C      1  0.5675590000000  0.4937630000000  0.4773560000000 1.0
C      1  0.4668740000000  0.4645560000000  0.5319610000000 1.0
C      1  0.4943520000000  0.5139400000000  0.4929140000000 1.0
C      1  0.4677080000000  0.5127920000000  0.4567410000000 1.0
C      1  0.5090030000000  0.4973720000000  0.4337680000000 1.0
C      1  0.4681620000000  0.5736110000000  0.5126050000000 1.0
END
