TITL C-2848508-1660-37 -6.53368107424514e-05 125000 -576.336935336604 0 0 103 (C1) n - 1
REM
REM in /home/bkarasulu/work/CARBON/AIRSS/Generating-Clusters/AIREBO/with-SteepDescent/Only-C1/SD-CG-opt/Try1-1.4A-POS3A/HFTN-CG
REM
REM
REM
REM
REM
REM ./C.cell (11c1c37f851c82e70ff6c80c92926a4b)
REM
REM compiler GCC version 9.2.1 20190827 (Red Hat 9.2.1-1)
REM options -cpp -mtune=generic -march=x86-64 -g -O0 -fpre-include=/usr/include/finclude/math-vector-fortran.h
REM seed 1295180346 944577260 1067488098 -515788349 -1413207025 -188578542 -2107507214 -1145577222 575708886 260453652 -1106046764 -898775929 690053420 332694742 216218045 -1207289357 -1780942600 1604597872 750898876 1765989547 -151552073 88346350 -1194682204 -1121728347 1108718865 105877252 1470803638 -22337472 296201158 572921428 364239141 914961245 470818848
REM
CELL 1.54180   50.00000   50.00000   50.00000   90.00000   90.00000   90.00000
LATT -1
SFAC C  
C      1  0.5350840000000  0.4993340000000  0.4808900000000 1.0
C      1  0.4623110000000  0.5643490000000  0.4661080000000 1.0
C      1  0.4371600000000  0.4444610000000  0.5390190000000 1.0
C      1  0.4686920000000  0.4673770000000  0.4374250000000 1.0
C      1  0.5404900000000  0.4502460000000  0.4533590000000 1.0
C      1  0.4189710000000  0.4954560000000  0.5503890000000 1.0
C      1  0.4985880000000  0.4795900000000  0.4486140000000 1.0
C      1  0.5069240000000  0.4796050000000  0.4062720000000 1.0
C      1  0.5031490000000  0.4321110000000  0.5266850000000 1.0
C      1  0.4763270000000  0.5293040000000  0.4301930000000 1.0
C      1  0.5222610000000  0.5509440000000  0.5677160000000 1.0
C      1  0.5554680000000  0.5534260000000  0.5267230000000 1.0
C      1  0.5280770000000  0.4948490000000  0.5630000000000 1.0
C      1  0.4814100000000  0.5569570000000  0.4428850000000 1.0
C      1  0.5006380000000  0.4441490000000  0.4799810000000 1.0
C      1  0.4595460000000  0.5277580000000  0.5468470000000 1.0
C      1  0.4823090000000  0.5655170000000  0.4918940000000 1.0
C      1  0.5530270000000  0.5564980000000  0.4714470000000 1.0
C      1  0.4101640000000  0.5003600000000  0.5240850000000 1.0
C      1  0.5924450000000  0.5124520000000  0.5265570000000 1.0
C      1  0.4720570000000  0.4438030000000  0.5197760000000 1.0
C      1  0.4369960000000  0.4785920000000  0.4819940000000 1.0
C      1  0.4742520000000  0.4750200000000  0.5330850000000 1.0
C      1  0.4314990000000  0.5177160000000  0.5622110000000 1.0
C      1  0.4521500000000  0.4426580000000  0.4539140000000 1.0
C      1  0.4202280000000  0.4790880000000  0.4348720000000 1.0
C      1  0.4540920000000  0.4266410000000  0.4761190000000 1.0
C      1  0.4423640000000  0.5161020000000  0.4693070000000 1.0
C      1  0.4479820000000  0.4885590000000  0.4298210000000 1.0
C      1  0.5084400000000  0.5022520000000  0.5845870000000 1.0
C      1  0.4657960000000  0.4966660000000  0.4826190000000 1.0
C      1  0.4659620000000  0.4963640000000  0.5582570000000 1.0
C      1  0.5259280000000  0.4644750000000  0.5563230000000 1.0
C      1  0.4890190000000  0.4548020000000  0.4176510000000 1.0
C      1  0.5125380000000  0.4945040000000  0.5342610000000 1.0
C      1  0.5705120000000  0.4457630000000  0.5137860000000 1.0
C      1  0.5473740000000  0.5373000000000  0.5795960000000 1.0
C      1  0.5135460000000  0.4342420000000  0.4537990000000 1.0
C      1  0.5876280000000  0.5033180000000  0.4650530000000 1.0
C      1  0.4887930000000  0.5152920000000  0.4994830000000 1.0
C      1  0.5648860000000  0.5284470000000  0.4856090000000 1.0
C      1  0.4305530000000  0.5690130000000  0.4766920000000 1.0
C      1  0.5699960000000  0.4592150000000  0.4577780000000 1.0
C      1  0.5143550000000  0.5218320000000  0.5209730000000 1.0
C      1  0.5648090000000  0.4844470000000  0.5216120000000 1.0
C      1  0.5422690000000  0.5077050000000  0.5112600000000 1.0
C      1  0.4483100000000  0.4909940000000  0.5179620000000 1.0
C      1  0.4273610000000  0.5496040000000  0.5209810000000 1.0
C      1  0.4424520000000  0.4321800000000  0.5075840000000 1.0
C      1  0.5264310000000  0.4170560000000  0.5042170000000 1.0
C      1  0.4937470000000  0.5066510000000  0.4111820000000 1.0
C      1  0.5606590000000  0.5452060000000  0.6004670000000 1.0
C      1  0.5060400000000  0.5698880000000  0.5236710000000 1.0
C      1  0.5081490000000  0.5778450000000  0.4751010000000 1.0
C      1  0.4626770000000  0.4486960000000  0.5608650000000 1.0
C      1  0.4787560000000  0.4287930000000  0.4921000000000 1.0
C      1  0.5471180000000  0.5641510000000  0.5021420000000 1.0
C      1  0.4123750000000  0.5078920000000  0.4709090000000 1.0
C      1  0.5141980000000  0.5469190000000  0.5365690000000 1.0
C      1  0.5446090000000  0.4584930000000  0.5303260000000 1.0
C      1  0.5226470000000  0.4308390000000  0.5545290000000 1.0
C      1  0.5049360000000  0.5174330000000  0.4375540000000 1.0
C      1  0.5252620000000  0.5006250000000  0.4515160000000 1.0
C      1  0.5117150000000  0.4949310000000  0.6106850000000 1.0
C      1  0.4467370000000  0.5419270000000  0.4864130000000 1.0
C      1  0.5243420000000  0.4659080000000  0.4321610000000 1.0
C      1  0.4877800000000  0.4258530000000  0.5563890000000 1.0
C      1  0.4866570000000  0.5165760000000  0.5739350000000 1.0
C      1  0.5326440000000  0.5487360000000  0.4460370000000 1.0
C      1  0.4694160000000  0.5131720000000  0.5223580000000 1.0
C      1  0.4517140000000  0.5571210000000  0.5382590000000 1.0
C      1  0.5011980000000  0.4329870000000  0.4293500000000 1.0
C      1  0.4756020000000  0.5638660000000  0.5588100000000 1.0
C      1  0.5781620000000  0.4956170000000  0.5696030000000 1.0
C      1  0.4523020000000  0.5146940000000  0.4402040000000 1.0
C      1  0.4945820000000  0.4589330000000  0.5550910000000 1.0
C      1  0.4913240000000  0.4768510000000  0.4799770000000 1.0
C      1  0.5468640000000  0.5656510000000  0.5497770000000 1.0
C      1  0.4917250000000  0.5438260000000  0.5693760000000 1.0
C      1  0.5790860000000  0.5313130000000  0.4549270000000 1.0
C      1  0.4323670000000  0.4634410000000  0.4567210000000 1.0
C      1  0.4023490000000  0.4983440000000  0.4459950000000 1.0
C      1  0.5527100000000  0.5129360000000  0.5627080000000 1.0
C      1  0.5404330000000  0.4826540000000  0.4073280000000 1.0
C      1  0.4329640000000  0.5197180000000  0.5079900000000 1.0
C      1  0.5742790000000  0.4847710000000  0.4488740000000 1.0
C      1  0.5617670000000  0.5234110000000  0.5316090000000 1.0
C      1  0.4331100000000  0.4637340000000  0.5113030000000 1.0
C      1  0.5026090000000  0.5404040000000  0.4878400000000 1.0
C      1  0.4406010000000  0.4740030000000  0.5543180000000 1.0
C      1  0.5311110000000  0.5330730000000  0.4827270000000 1.0
C      1  0.5396060000000  0.4681240000000  0.4820830000000 1.0
C      1  0.5224030000000  0.4507960000000  0.5057470000000 1.0
C      1  0.5217260000000  0.5765710000000  0.5017010000000 1.0
C      1  0.5797610000000  0.5040670000000  0.4980550000000 1.0
C      1  0.5688930000000  0.4519960000000  0.4874940000000 1.0
C      1  0.4755360000000  0.5736150000000  0.5233360000000 1.0
C      1  0.4084120000000  0.4909460000000  0.4957040000000 1.0
C      1  0.5006670000000  0.4762570000000  0.5117080000000 1.0
C      1  0.5556500000000  0.5307960000000  0.4371400000000 1.0
C      1  0.5087120000000  0.5637470000000  0.4497040000000 1.0
C      1  0.5508130000000  0.4986330000000  0.4330150000000 1.0
C      1  0.5888840000000  0.4881780000000  0.5453470000000 1.0
END
