TITL C-2848498-1409-616 6.2774312373814e-05 125000 -942.321305991861 0 0 172 (C1) n - 1
REM
REM in /home/bkarasulu/work/CARBON/AIRSS/Generating-Clusters/AIREBO/with-SteepDescent/Only-C1/SD-CG-opt/Try1-1.4A-POS3A/HFTN-CG
REM
REM
REM
REM
REM
REM ./C.cell (11c1c37f851c82e70ff6c80c92926a4b)
REM
REM compiler GCC version 9.2.1 20190827 (Red Hat 9.2.1-1)
REM options -cpp -mtune=generic -march=x86-64 -g -O0 -fpre-include=/usr/include/finclude/math-vector-fortran.h
REM seed -267620639 -959034375 590033909 -2019679241 -287466034 -164226061 -180581379 590776133 315598333 66846673 -275204318 -1287654762 1849850565 -969468855 1889011349 -579507254 882444555 2001005252 -787369705 489057695 297534815 -1578620776 1306453367 2052826155 -107783088 -14915228 853001600 1513564948 -1851571178 1044579013 -1642878916 -711102584 -1123297874
REM
CELL 1.54180   50.00000   50.00000   50.00000   90.00000   90.00000   90.00000
LATT -1
SFAC C  
C      1  0.4071900000000  0.5392720000000  0.4960530000000 1.0
C      1  0.4994900000000  0.5599630000000  0.5839320000000 1.0
C      1  0.5429830000000  0.5832450000000  0.5134990000000 1.0
C      1  0.5582700000000  0.4699660000000  0.4411320000000 1.0
C      1  0.4866800000000  0.4903240000000  0.4786390000000 1.0
C      1  0.4618980000000  0.6071380000000  0.5296140000000 1.0
C      1  0.5953460000000  0.4663820000000  0.4819950000000 1.0
C      1  0.4346080000000  0.4889180000000  0.5939700000000 1.0
C      1  0.4889910000000  0.5898020000000  0.5398670000000 1.0
C      1  0.4787170000000  0.4751550000000  0.5066440000000 1.0
C      1  0.5480820000000  0.5030680000000  0.4895690000000 1.0
C      1  0.4573530000000  0.4690170000000  0.5545730000000 1.0
C      1  0.5161110000000  0.4942020000000  0.5422080000000 1.0
C      1  0.4684460000000  0.4053350000000  0.4782990000000 1.0
C      1  0.5214660000000  0.6146870000000  0.4753540000000 1.0
C      1  0.4308670000000  0.4373930000000  0.4266720000000 1.0
C      1  0.4467570000000  0.5646070000000  0.5677940000000 1.0
C      1  0.4947740000000  0.4217580000000  0.4336090000000 1.0
C      1  0.4959900000000  0.5052650000000  0.4495490000000 1.0
C      1  0.4760130000000  0.4393480000000  0.4558920000000 1.0
C      1  0.5068050000000  0.4196730000000  0.5589230000000 1.0
C      1  0.5418180000000  0.5168070000000  0.5915140000000 1.0
C      1  0.5286510000000  0.5447330000000  0.4009720000000 1.0
C      1  0.4644670000000  0.5017050000000  0.5607990000000 1.0
C      1  0.4696480000000  0.4986980000000  0.3986460000000 1.0
C      1  0.4219660000000  0.5386260000000  0.5242070000000 1.0
C      1  0.5426080000000  0.4626150000000  0.4605400000000 1.0
C      1  0.4507560000000  0.4911000000000  0.4490050000000 1.0
C      1  0.4869020000000  0.4338330000000  0.5793250000000 1.0
C      1  0.4651380000000  0.4181350000000  0.4241210000000 1.0
C      1  0.5624290000000  0.5825340000000  0.4874650000000 1.0
C      1  0.5913930000000  0.5528140000000  0.5155900000000 1.0
C      1  0.5572590000000  0.5540610000000  0.5149840000000 1.0
C      1  0.4160790000000  0.4713010000000  0.4509230000000 1.0
C      1  0.5195810000000  0.4187320000000  0.5169460000000 1.0
C      1  0.5165600000000  0.4666190000000  0.4980840000000 1.0
C      1  0.5043630000000  0.4940880000000  0.5139910000000 1.0
C      1  0.5157050000000  0.5144150000000  0.6009060000000 1.0
C      1  0.5521970000000  0.5417480000000  0.5884410000000 1.0
C      1  0.5677160000000  0.5520780000000  0.5472950000000 1.0
C      1  0.4333280000000  0.5557130000000  0.4521060000000 1.0
C      1  0.4444240000000  0.4448700000000  0.5344030000000 1.0
C      1  0.4942410000000  0.5230570000000  0.5012610000000 1.0
C      1  0.5263440000000  0.5114560000000  0.4068220000000 1.0
C      1  0.4371010000000  0.5914910000000  0.5230210000000 1.0
C      1  0.4217890000000  0.4870450000000  0.5358910000000 1.0
C      1  0.5875180000000  0.5485570000000  0.4669810000000 1.0
C      1  0.4400190000000  0.5208050000000  0.5468590000000 1.0
C      1  0.4346020000000  0.4202880000000  0.5129670000000 1.0
C      1  0.5581470000000  0.5094650000000  0.4309120000000 1.0
C      1  0.4563530000000  0.4035910000000  0.5331160000000 1.0
C      1  0.5377720000000  0.5337690000000  0.4596800000000 1.0
C      1  0.4898510000000  0.4766490000000  0.4322190000000 1.0
C      1  0.4528740000000  0.4575610000000  0.4438110000000 1.0
C      1  0.4336250000000  0.4614980000000  0.5861100000000 1.0
C      1  0.4698940000000  0.5164260000000  0.5240730000000 1.0
C      1  0.4531560000000  0.4823190000000  0.5235630000000 1.0
C      1  0.4646350000000  0.5256080000000  0.5956010000000 1.0
C      1  0.4693690000000  0.5374920000000  0.4399250000000 1.0
C      1  0.5054310000000  0.5908620000000  0.4363600000000 1.0
C      1  0.5253790000000  0.4577140000000  0.4127100000000 1.0
C      1  0.5001410000000  0.5075600000000  0.3863140000000 1.0
C      1  0.5973130000000  0.5391190000000  0.5419310000000 1.0
C      1  0.4759730000000  0.5642200000000  0.5521940000000 1.0
C      1  0.4988090000000  0.4635480000000  0.4021500000000 1.0
C      1  0.5269740000000  0.4511080000000  0.5256410000000 1.0
C      1  0.4616120000000  0.5265700000000  0.4101210000000 1.0
C      1  0.4815110000000  0.5638730000000  0.4968450000000 1.0
C      1  0.5315680000000  0.3957980000000  0.4934290000000 1.0
C      1  0.5286900000000  0.3966230000000  0.4623130000000 1.0
C      1  0.5508870000000  0.4920740000000  0.5757690000000 1.0
C      1  0.4246160000000  0.4845670000000  0.4783970000000 1.0
C      1  0.4066350000000  0.5027180000000  0.5588390000000 1.0
C      1  0.5577590000000  0.5348480000000  0.4148820000000 1.0
C      1  0.5432960000000  0.4832010000000  0.4152390000000 1.0
C      1  0.5509460000000  0.4467660000000  0.4857750000000 1.0
C      1  0.4934780000000  0.5318490000000  0.5878190000000 1.0
C      1  0.4051450000000  0.4355590000000  0.5157520000000 1.0
C      1  0.5658470000000  0.4479000000000  0.5574880000000 1.0
C      1  0.4997070000000  0.5542210000000  0.3997510000000 1.0
C      1  0.4726190000000  0.5809540000000  0.5826530000000 1.0
C      1  0.5332440000000  0.4405720000000  0.5636360000000 1.0
C      1  0.5254740000000  0.5083480000000  0.4406680000000 1.0
C      1  0.4614180000000  0.4718960000000  0.4141810000000 1.0
C      1  0.5127140000000  0.5732010000000  0.5048670000000 1.0
C      1  0.5857120000000  0.5655540000000  0.4894260000000 1.0
C      1  0.5504270000000  0.5812680000000  0.4608140000000 1.0
C      1  0.5425350000000  0.5338810000000  0.4930060000000 1.0
C      1  0.4842690000000  0.3907260000000  0.5048170000000 1.0
C      1  0.5203790000000  0.5367650000000  0.5400790000000 1.0
C      1  0.4900210000000  0.5616920000000  0.4275410000000 1.0
C      1  0.4968400000000  0.4772300000000  0.3789590000000 1.0
C      1  0.5743100000000  0.4385610000000  0.4627710000000 1.0
C      1  0.5044060000000  0.4900040000000  0.6058460000000 1.0
C      1  0.5046530000000  0.5907920000000  0.5768950000000 1.0
C      1  0.5126570000000  0.6055710000000  0.5002810000000 1.0
C      1  0.5329730000000  0.5983260000000  0.5713280000000 1.0
C      1  0.5977990000000  0.4815010000000  0.5541210000000 1.0
C      1  0.4412640000000  0.5358140000000  0.5773430000000 1.0
C      1  0.4925100000000  0.5687790000000  0.4666620000000 1.0
C      1  0.5215810000000  0.5605890000000  0.5580650000000 1.0
C      1  0.5882600000000  0.4365340000000  0.4944430000000 1.0
C      1  0.4979070000000  0.3878830000000  0.4738560000000 1.0
C      1  0.4020900000000  0.4683080000000  0.5066900000000 1.0
C      1  0.5896980000000  0.4972260000000  0.5183530000000 1.0
C      1  0.5203230000000  0.4396000000000  0.4371090000000 1.0
C      1  0.5163840000000  0.5418870000000  0.5104120000000 1.0
C      1  0.4246450000000  0.4475160000000  0.5619550000000 1.0
C      1  0.5832500000000  0.5007340000000  0.4450750000000 1.0
C      1  0.4324670000000  0.4469870000000  0.4684540000000 1.0
C      1  0.4564380000000  0.5853750000000  0.4744230000000 1.0
C      1  0.5961020000000  0.5222230000000  0.4667130000000 1.0
C      1  0.5784390000000  0.4402930000000  0.5268260000000 1.0
C      1  0.4558310000000  0.4398540000000  0.4042710000000 1.0
C      1  0.4824560000000  0.5287820000000  0.4700810000000 1.0
C      1  0.5206640000000  0.4910650000000  0.4774900000000 1.0
C      1  0.5275780000000  0.5962080000000  0.4543170000000 1.0
C      1  0.5984320000000  0.5112420000000  0.5434320000000 1.0
C      1  0.6035850000000  0.4625340000000  0.5325120000000 1.0
C      1  0.4760090000000  0.5324370000000  0.5518980000000 1.0
C      1  0.4209690000000  0.5099800000000  0.5805830000000 1.0
C      1  0.4714510000000  0.4490980000000  0.4877430000000 1.0
C      1  0.4237640000000  0.5068970000000  0.5121180000000 1.0
C      1  0.5093400000000  0.4373030000000  0.4927270000000 1.0
C      1  0.5884680000000  0.4663900000000  0.4491120000000 1.0
C      1  0.5023150000000  0.4608310000000  0.5786680000000 1.0
C      1  0.4768410000000  0.5914780000000  0.4506650000000 1.0
C      1  0.5625640000000  0.4109220000000  0.5333000000000 1.0
C      1  0.5636160000000  0.5529810000000  0.4499850000000 1.0
C      1  0.5121240000000  0.4680730000000  0.4538920000000 1.0
C      1  0.4601370000000  0.5471370000000  0.5164750000000 1.0
C      1  0.5455970000000  0.4236620000000  0.4521810000000 1.0
C      1  0.4576360000000  0.5514040000000  0.4754930000000 1.0
C      1  0.5602200000000  0.4891410000000  0.5167410000000 1.0
C      1  0.4704380000000  0.4374140000000  0.5175400000000 1.0
C      1  0.5344540000000  0.4661010000000  0.5866030000000 1.0
C      1  0.4965330000000  0.4216370000000  0.4733500000000 1.0
C      1  0.4610040000000  0.4467510000000  0.5785840000000 1.0
C      1  0.5748650000000  0.4726890000000  0.5678200000000 1.0
C      1  0.4399420000000  0.5641110000000  0.5350160000000 1.0
C      1  0.5391780000000  0.5595190000000  0.4291980000000 1.0
C      1  0.4071950000000  0.4587600000000  0.5386620000000 1.0
C      1  0.4998490000000  0.6158000000000  0.5222080000000 1.0
C      1  0.5141190000000  0.5543940000000  0.4499500000000 1.0
C      1  0.4404640000000  0.4185980000000  0.4815460000000 1.0
C      1  0.5548500000000  0.4593680000000  0.5144160000000 1.0
C      1  0.5789050000000  0.4954570000000  0.4780100000000 1.0
C      1  0.4452180000000  0.5260160000000  0.4943980000000 1.0
C      1  0.4139850000000  0.5046170000000  0.4416710000000 1.0
C      1  0.4891590000000  0.4122530000000  0.5306800000000 1.0
C      1  0.4129400000000  0.5219030000000  0.4712290000000 1.0
C      1  0.4405720000000  0.5234660000000  0.4514170000000 1.0
C      1  0.5228960000000  0.5886370000000  0.5403290000000 1.0
C      1  0.4543170000000  0.4990820000000  0.4799050000000 1.0
C      1  0.4604070000000  0.4979290000000  0.6003570000000 1.0
C      1  0.5090250000000  0.3937130000000  0.4361550000000 1.0
C      1  0.4441450000000  0.4147040000000  0.4479540000000 1.0
C      1  0.4298660000000  0.4819000000000  0.4219770000000 1.0
C      1  0.5514410000000  0.5694290000000  0.5693230000000 1.0
C      1  0.4710290000000  0.5957100000000  0.5025690000000 1.0
C      1  0.5031170000000  0.5164530000000  0.5594640000000 1.0
C      1  0.5143550000000  0.4649500000000  0.5493110000000 1.0
C      1  0.5473710000000  0.4982840000000  0.5432640000000 1.0
C      1  0.4815210000000  0.4827180000000  0.5833260000000 1.0
C      1  0.5486900000000  0.5279020000000  0.5438060000000 1.0
C      1  0.5403810000000  0.4091980000000  0.5526470000000 1.0
C      1  0.4422700000000  0.4645480000000  0.4958780000000 1.0
C      1  0.3989630000000  0.4987500000000  0.4918670000000 1.0
C      1  0.5513120000000  0.4205330000000  0.5048420000000 1.0
C      1  0.6083800000000  0.4775110000000  0.5072930000000 1.0
C      1  0.4317300000000  0.5930370000000  0.4958480000000 1.0
C      1  0.4828810000000  0.5346330000000  0.3890510000000 1.0
END
