TITL C-2848499-1157-233 -0.00188859462149027 125000 -716.877056831417 0 0 136 (C1) n - 1
REM
REM in /home/bkarasulu/work/CARBON/AIRSS/Generating-Clusters/AIREBO/with-SteepDescent/Only-C1/SD-CG-opt/Try1-1.4A-POS3A/HFTN-CG
REM
REM
REM
REM
REM
REM ./C.cell (11c1c37f851c82e70ff6c80c92926a4b)
REM
REM compiler GCC version 9.2.1 20190827 (Red Hat 9.2.1-1)
REM options -cpp -mtune=generic -march=x86-64 -g -O0 -fpre-include=/usr/include/finclude/math-vector-fortran.h
REM seed -186988267 547981048 2088149565 1001118824 -115854684 1594405631 -1226264834 339770832 -183143631 1720597097 1596569848 1969112643 -1281166083 -136959919 -2052261772 1108959911 2131681591 -138042230 -4246443 -265066255 -1118750825 121533976 -587104593 -2112703845 -1379245804 1187769734 -2017079484 1065232934 -69758704 523100447 216222383 274971332 -1994095128
REM
CELL 1.54180   50.00000   50.00000   50.00000   90.00000   90.00000   90.00000
LATT -1
SFAC C  
C      1  0.5199850000000  0.5758400000000  0.4903230000000 1.0
C      1  0.5091380000000  0.4255940000000  0.5548300000000 1.0
C      1  0.4780760000000  0.5726750000000  0.5429180000000 1.0
C      1  0.5470990000000  0.5861660000000  0.4775070000000 1.0
C      1  0.4728270000000  0.4203320000000  0.4678350000000 1.0
C      1  0.4102430000000  0.4982670000000  0.4555560000000 1.0
C      1  0.5020750000000  0.4592510000000  0.4291000000000 1.0
C      1  0.4735690000000  0.5842320000000  0.4762430000000 1.0
C      1  0.4554750000000  0.5261170000000  0.5321580000000 1.0
C      1  0.4316450000000  0.4826330000000  0.5215500000000 1.0
C      1  0.4893810000000  0.4185650000000  0.5318420000000 1.0
C      1  0.5323150000000  0.4466430000000  0.5060740000000 1.0
C      1  0.5278840000000  0.5380120000000  0.4173220000000 1.0
C      1  0.4439910000000  0.4186680000000  0.5154480000000 1.0
C      1  0.4741900000000  0.5190950000000  0.4927170000000 1.0
C      1  0.5347830000000  0.5523050000000  0.5749050000000 1.0
C      1  0.4975670000000  0.5651200000000  0.4168680000000 1.0
C      1  0.4216980000000  0.5218720000000  0.4372730000000 1.0
C      1  0.4356730000000  0.5530790000000  0.5382610000000 1.0
C      1  0.4985290000000  0.4013130000000  0.4794180000000 1.0
C      1  0.5117690000000  0.5546550000000  0.4650240000000 1.0
C      1  0.4382730000000  0.5110990000000  0.5073090000000 1.0
C      1  0.4797640000000  0.3891710000000  0.5336470000000 1.0
C      1  0.4003950000000  0.5075390000000  0.5201940000000 1.0
C      1  0.5774950000000  0.4516270000000  0.5110630000000 1.0
C      1  0.5040210000000  0.4790810000000  0.4790370000000 1.0
C      1  0.4455780000000  0.5206080000000  0.5642210000000 1.0
C      1  0.5612930000000  0.5718020000000  0.5047390000000 1.0
C      1  0.4904610000000  0.5048820000000  0.5178770000000 1.0
C      1  0.5461950000000  0.5438750000000  0.4925510000000 1.0
C      1  0.5262690000000  0.5541190000000  0.5359770000000 1.0
C      1  0.5682900000000  0.5211050000000  0.5167160000000 1.0
C      1  0.4626140000000  0.4928930000000  0.5332930000000 1.0
C      1  0.4618240000000  0.4385770000000  0.5366090000000 1.0
C      1  0.4256720000000  0.4744650000000  0.4516370000000 1.0
C      1  0.5565800000000  0.4829150000000  0.4124920000000 1.0
C      1  0.4152380000000  0.4607300000000  0.5031040000000 1.0
C      1  0.4792760000000  0.5463510000000  0.5228090000000 1.0
C      1  0.4296760000000  0.4610890000000  0.5718910000000 1.0
C      1  0.5653850000000  0.4762180000000  0.4507010000000 1.0
C      1  0.5364260000000  0.5461370000000  0.4431880000000 1.0
C      1  0.5471620000000  0.4866280000000  0.5727730000000 1.0
C      1  0.5218860000000  0.5040260000000  0.5097250000000 1.0
C      1  0.5104690000000  0.4205960000000  0.5051390000000 1.0
C      1  0.5123870000000  0.4686460000000  0.5327660000000 1.0
C      1  0.5470070000000  0.4548410000000  0.4316850000000 1.0
C      1  0.4835610000000  0.4162550000000  0.4352900000000 1.0
C      1  0.5195940000000  0.5248160000000  0.5617870000000 1.0
C      1  0.4671490000000  0.4649540000000  0.5174980000000 1.0
C      1  0.5837150000000  0.4774940000000  0.5188100000000 1.0
C      1  0.4823610000000  0.5296910000000  0.5761800000000 1.0
C      1  0.5657250000000  0.4877730000000  0.5438990000000 1.0
C      1  0.4237910000000  0.5528540000000  0.4751200000000 1.0
C      1  0.4310660000000  0.4485120000000  0.5471840000000 1.0
C      1  0.5935040000000  0.4794660000000  0.4394990000000 1.0
C      1  0.4567450000000  0.5666580000000  0.5074390000000 1.0
C      1  0.4902530000000  0.5954000000000  0.5260260000000 1.0
C      1  0.4612970000000  0.4958760000000  0.5790160000000 1.0
C      1  0.5628660000000  0.5114370000000  0.4301090000000 1.0
C      1  0.4798350000000  0.5375680000000  0.4216550000000 1.0
C      1  0.5413300000000  0.4291200000000  0.4475760000000 1.0
C      1  0.5484500000000  0.5761530000000  0.4489010000000 1.0
C      1  0.5166160000000  0.5917610000000  0.5177020000000 1.0
C      1  0.5380990000000  0.4927100000000  0.4393070000000 1.0
C      1  0.5795140000000  0.5667450000000  0.4598840000000 1.0
C      1  0.4962980000000  0.5109760000000  0.5909940000000 1.0
C      1  0.4972600000000  0.4354730000000  0.5782870000000 1.0
C      1  0.5019100000000  0.5089700000000  0.4658350000000 1.0
C      1  0.5651930000000  0.4805410000000  0.4835000000000 1.0
C      1  0.4140020000000  0.5306450000000  0.5071780000000 1.0
C      1  0.4958430000000  0.4629070000000  0.5079730000000 1.0
C      1  0.4806580000000  0.5540550000000  0.4512530000000 1.0
C      1  0.4083780000000  0.5312910000000  0.4646560000000 1.0
C      1  0.5552520000000  0.5129310000000  0.4863880000000 1.0
C      1  0.5062240000000  0.5211020000000  0.4161400000000 1.0
C      1  0.4466840000000  0.4824000000000  0.4260790000000 1.0
C      1  0.4746240000000  0.4894180000000  0.4441620000000 1.0
C      1  0.4281000000000  0.4509320000000  0.4762840000000 1.0
C      1  0.4597230000000  0.4883510000000  0.4939390000000 1.0
C      1  0.4794120000000  0.4412490000000  0.4211900000000 1.0
C      1  0.5040000000000  0.4977490000000  0.5482580000000 1.0
C      1  0.4943270000000  0.4407920000000  0.4832110000000 1.0
C      1  0.5644440000000  0.4606650000000  0.5773840000000 1.0
C      1  0.5680350000000  0.5415560000000  0.4451160000000 1.0
C      1  0.5115080000000  0.4530940000000  0.4584290000000 1.0
C      1  0.5162780000000  0.5290420000000  0.4873430000000 1.0
C      1  0.4733670000000  0.4495770000000  0.5674060000000 1.0
C      1  0.5907160000000  0.5103360000000  0.5404840000000 1.0
C      1  0.5336620000000  0.4760090000000  0.4954140000000 1.0
C      1  0.5423320000000  0.5097670000000  0.5326980000000 1.0
C      1  0.5714360000000  0.4471150000000  0.4830630000000 1.0
C      1  0.5433680000000  0.5891820000000  0.5278340000000 1.0
C      1  0.4148400000000  0.4986590000000  0.5448700000000 1.0
C      1  0.4284530000000  0.4918880000000  0.5714520000000 1.0
C      1  0.3938250000000  0.4852210000000  0.5035820000000 1.0
C      1  0.5097450000000  0.5662830000000  0.5864980000000 1.0
C      1  0.5811700000000  0.5373570000000  0.5508370000000 1.0
C      1  0.4995100000000  0.5518150000000  0.5568690000000 1.0
C      1  0.4546940000000  0.4521750000000  0.4298680000000 1.0
C      1  0.5584760000000  0.4416000000000  0.5590750000000 1.0
C      1  0.4476610000000  0.5603720000000  0.4568530000000 1.0
C      1  0.4717140000000  0.4726450000000  0.4706010000000 1.0
C      1  0.4152210000000  0.4117200000000  0.5232170000000 1.0
C      1  0.4131660000000  0.4413020000000  0.5270680000000 1.0
C      1  0.4697870000000  0.5058110000000  0.4147660000000 1.0
C      1  0.4599460000000  0.5513960000000  0.5626350000000 1.0
C      1  0.5734730000000  0.5138060000000  0.4610500000000 1.0
C      1  0.5078950000000  0.4918010000000  0.4370930000000 1.0
C      1  0.4706390000000  0.5962610000000  0.5045710000000 1.0
C      1  0.4565930000000  0.4491310000000  0.4598590000000 1.0
C      1  0.4479750000000  0.5319190000000  0.4462800000000 1.0
C      1  0.5544960000000  0.4270110000000  0.4729800000000 1.0
C      1  0.4454070000000  0.4234300000000  0.4877010000000 1.0
C      1  0.5922180000000  0.4965340000000  0.4965970000000 1.0
C      1  0.5082110000000  0.5517950000000  0.5112930000000 1.0
C      1  0.5101650000000  0.4195120000000  0.4532860000000 1.0
C      1  0.5557670000000  0.4394020000000  0.5270600000000 1.0
C      1  0.5904730000000  0.5303780000000  0.4926650000000 1.0
C      1  0.5151520000000  0.4835730000000  0.5838610000000 1.0
C      1  0.4693750000000  0.5168470000000  0.4598380000000 1.0
C      1  0.4257200000000  0.5604440000000  0.5065120000000 1.0
C      1  0.5126850000000  0.5780470000000  0.4403450000000 1.0
C      1  0.4993670000000  0.4903970000000  0.4041890000000 1.0
C      1  0.4925890000000  0.5936460000000  0.4588670000000 1.0
C      1  0.5283170000000  0.4452580000000  0.5454680000000 1.0
C      1  0.5596870000000  0.5501540000000  0.5302000000000 1.0
C      1  0.5880380000000  0.5589320000000  0.4881420000000 1.0
C      1  0.5399770000000  0.4101720000000  0.4918070000000 1.0
C      1  0.5108490000000  0.4526850000000  0.5950490000000 1.0
C      1  0.5258660000000  0.4693730000000  0.4093270000000 1.0
C      1  0.4493160000000  0.4502600000000  0.5882910000000 1.0
C      1  0.5434270000000  0.5760990000000  0.5554410000000 1.0
C      1  0.5722390000000  0.5361560000000  0.5786530000000 1.0
C      1  0.4848130000000  0.4798370000000  0.5689230000000 1.0
C      1  0.5497970000000  0.5170920000000  0.5650640000000 1.0
C      1  0.4752120000000  0.5509770000000  0.4837030000000 1.0
END
