TITL C-2848508-1660-475 -0.00158563792775873 125000 -338.703853370004 0 0 60 (C1) n - 1
REM
REM in /home/bkarasulu/work/CARBON/AIRSS/Generating-Clusters/AIREBO/with-SteepDescent/Only-C1/SD-CG-opt/Try1-1.4A-POS3A/HFTN-CG
REM
REM
REM
REM
REM
REM ./C.cell (11c1c37f851c82e70ff6c80c92926a4b)
REM
REM compiler GCC version 9.2.1 20190827 (Red Hat 9.2.1-1)
REM options -cpp -mtune=generic -march=x86-64 -g -O0 -fpre-include=/usr/include/finclude/math-vector-fortran.h
REM seed -1850825950 -1435681985 -1337752134 687753365 -1487136810 373161198 -2137324246 -435359618 11094320 -773455062 217639491 -303238005 472978211 -1791932529 699926763 693902021 -1270478655 1379467625 -1303516855 -1126569465 1827140684 893581349 1674418324 1875264675 1628902736 -1917341265 423431668 323758075 -1953398553 2137729703 783991231 1188213742 1683842577
REM
CELL 1.54180   50.00000   50.00000   50.00000   90.00000   90.00000   90.00000
LATT -1
SFAC C  
C      1  0.5761840000000  0.5465030000000  0.4933760000000 1.0
C      1  0.5292090000000  0.5774170000000  0.5497210000000 1.0
C      1  0.4559500000000  0.5832290000000  0.4834090000000 1.0
C      1  0.4982060000000  0.5219940000000  0.4640250000000 1.0
C      1  0.5688830000000  0.4719150000000  0.5134500000000 1.0
C      1  0.4763490000000  0.5267080000000  0.5059950000000 1.0
C      1  0.5202180000000  0.5093920000000  0.5225640000000 1.0
C      1  0.4793440000000  0.4432230000000  0.4650860000000 1.0
C      1  0.5866940000000  0.4965010000000  0.4773070000000 1.0
C      1  0.5065330000000  0.5073980000000  0.4278510000000 1.0
C      1  0.5123940000000  0.4087000000000  0.4540980000000 1.0
C      1  0.5727340000000  0.4733500000000  0.4855240000000 1.0
C      1  0.5378850000000  0.4859420000000  0.5534650000000 1.0
C      1  0.5439220000000  0.4842730000000  0.5223960000000 1.0
C      1  0.5393310000000  0.5564780000000  0.5359520000000 1.0
C      1  0.4660930000000  0.4663940000000  0.4560660000000 1.0
C      1  0.4706720000000  0.5633650000000  0.4703950000000 1.0
C      1  0.4377990000000  0.5537150000000  0.4345910000000 1.0
C      1  0.5431740000000  0.4803580000000  0.4458740000000 1.0
C      1  0.4676950000000  0.5037600000000  0.5465420000000 1.0
C      1  0.4789780000000  0.4989380000000  0.4944840000000 1.0
C      1  0.5185960000000  0.4721090000000  0.5086160000000 1.0
C      1  0.4905030000000  0.5469200000000  0.4856270000000 1.0
C      1  0.5548130000000  0.4613330000000  0.4672120000000 1.0
C      1  0.4952520000000  0.4797040000000  0.5763160000000 1.0
C      1  0.4249010000000  0.5073660000000  0.5144330000000 1.0
C      1  0.4576180000000  0.4912460000000  0.4740190000000 1.0
C      1  0.5847730000000  0.5219610000000  0.4863480000000 1.0
C      1  0.4897870000000  0.4943070000000  0.5251340000000 1.0
C      1  0.4749260000000  0.4390270000000  0.5143770000000 1.0
C      1  0.5191300000000  0.3833740000000  0.4537480000000 1.0
C      1  0.4700540000000  0.4320290000000  0.4889840000000 1.0
C      1  0.4746890000000  0.4648460000000  0.5331560000000 1.0
C      1  0.4463750000000  0.4701510000000  0.5434170000000 1.0
C      1  0.5589620000000  0.5599940000000  0.5173620000000 1.0
C      1  0.4669280000000  0.5176690000000  0.4548130000000 1.0
C      1  0.4791730000000  0.5029820000000  0.4296270000000 1.0
C      1  0.5316670000000  0.5305340000000  0.5427640000000 1.0
C      1  0.5059730000000  0.4560190000000  0.5328600000000 1.0
C      1  0.4574310000000  0.5296550000000  0.6140650000000 1.0
C      1  0.5207020000000  0.5192920000000  0.4078000000000 1.0
C      1  0.4214990000000  0.5597800000000  0.5120420000000 1.0
C      1  0.5238940000000  0.4558560000000  0.4523440000000 1.0
C      1  0.5142420000000  0.5240400000000  0.4939530000000 1.0
C      1  0.5060350000000  0.4354410000000  0.4570930000000 1.0
C      1  0.4654200000000  0.5143420000000  0.5943530000000 1.0
C      1  0.4327820000000  0.5796160000000  0.4974820000000 1.0
C      1  0.4572550000000  0.5465710000000  0.4523480000000 1.0
C      1  0.4152230000000  0.5336060000000  0.5140300000000 1.0
C      1  0.5208410000000  0.4992960000000  0.4554870000000 1.0
C      1  0.4387630000000  0.4984060000000  0.5374340000000 1.0
C      1  0.5865590000000  0.4605880000000  0.5309520000000 1.0
C      1  0.5094440000000  0.4911700000000  0.4866640000000 1.0
C      1  0.5411330000000  0.5124070000000  0.5629080000000 1.0
C      1  0.4690990000000  0.4763600000000  0.4294730000000 1.0
C      1  0.4306730000000  0.4940840000000  0.4898050000000 1.0
C      1  0.4758310000000  0.5000220000000  0.5731950000000 1.0
C      1  0.5150540000000  0.4713200000000  0.5584850000000 1.0
C      1  0.5107470000000  0.4284260000000  0.5328640000000 1.0
C      1  0.5750080000000  0.5786000000000  0.4962390000000 1.0
END
