TITL C-2848509-3138-687 0.00295398598892858 125000 -893.127485569955 0 0 161 (C1) n - 1
REM
REM in /home/bkarasulu/work/CARBON/AIRSS/Generating-Clusters/AIREBO/with-SteepDescent/Only-C1/SD-CG-opt/Try1-1.4A-POS3A/HFTN-CG
REM
REM
REM
REM
REM
REM ./C.cell (11c1c37f851c82e70ff6c80c92926a4b)
REM
REM compiler GCC version 9.2.1 20190827 (Red Hat 9.2.1-1)
REM options -cpp -mtune=generic -march=x86-64 -g -O0 -fpre-include=/usr/include/finclude/math-vector-fortran.h
REM seed -1104708245 -518034759 -2059258508 -1960129931 -482530872 -11534903 1504611815 -1215857608 620884252 1843093670 847277504 1743517182 -1339352813 -200178140 1275227459 1151404662 -2010117039 -615541904 -1684141478 1323451931 1002040083 -652742388 981908495 1951542745 782574441 -1368192018 -1586986599 322041073 -1954266474 929914659 -709543240 834021092 -384898951
REM
CELL 1.54180   50.00000   50.00000   50.00000   90.00000   90.00000   90.00000
LATT -1
SFAC C  
C      1  0.5644520000000  0.5696630000000  0.5470090000000 1.0
C      1  0.4641370000000  0.4083400000000  0.4762420000000 1.0
C      1  0.5122820000000  0.5749880000000  0.4686560000000 1.0
C      1  0.4424480000000  0.4409750000000  0.5395760000000 1.0
C      1  0.6000040000000  0.4869500000000  0.5067870000000 1.0
C      1  0.5589480000000  0.5759540000000  0.3972120000000 1.0
C      1  0.5269660000000  0.4512440000000  0.4693750000000 1.0
C      1  0.4728440000000  0.4876930000000  0.4181570000000 1.0
C      1  0.4840960000000  0.4444960000000  0.4093300000000 1.0
C      1  0.5820610000000  0.4295810000000  0.5033410000000 1.0
C      1  0.4570790000000  0.4861650000000  0.5957600000000 1.0
C      1  0.4352580000000  0.4687900000000  0.4265150000000 1.0
C      1  0.4478830000000  0.4745740000000  0.5727150000000 1.0
C      1  0.5107510000000  0.4543020000000  0.5593130000000 1.0
C      1  0.3980850000000  0.4852190000000  0.4650280000000 1.0
C      1  0.5543630000000  0.4577280000000  0.5875150000000 1.0
C      1  0.4213060000000  0.5590450000000  0.4653570000000 1.0
C      1  0.4829420000000  0.4260860000000  0.5641940000000 1.0
C      1  0.4673060000000  0.5315630000000  0.3977110000000 1.0
C      1  0.5184450000000  0.5321980000000  0.5687790000000 1.0
C      1  0.5617690000000  0.5546130000000  0.4236980000000 1.0
C      1  0.5403550000000  0.5785250000000  0.5598700000000 1.0
C      1  0.4563400000000  0.4822690000000  0.5082030000000 1.0
C      1  0.4882820000000  0.5971460000000  0.5435330000000 1.0
C      1  0.5241650000000  0.4605890000000  0.5897920000000 1.0
C      1  0.4459340000000  0.3936230000000  0.5238630000000 1.0
C      1  0.5180360000000  0.5909280000000  0.5373960000000 1.0
C      1  0.4158200000000  0.5104680000000  0.4583740000000 1.0
C      1  0.4360440000000  0.5026880000000  0.4333040000000 1.0
C      1  0.5148130000000  0.4879940000000  0.5984170000000 1.0
C      1  0.4633790000000  0.4386820000000  0.4915690000000 1.0
C      1  0.4728340000000  0.4086490000000  0.4434310000000 1.0
C      1  0.4562800000000  0.5259940000000  0.5552140000000 1.0
C      1  0.5163150000000  0.4936190000000  0.5589210000000 1.0
C      1  0.4327300000000  0.5114530000000  0.5697950000000 1.0
C      1  0.4929580000000  0.4216190000000  0.4249490000000 1.0
C      1  0.5055870000000  0.4338340000000  0.5871830000000 1.0
C      1  0.4280470000000  0.5436300000000  0.5019020000000 1.0
C      1  0.5327210000000  0.5413800000000  0.5428470000000 1.0
C      1  0.4305430000000  0.4204450000000  0.5587840000000 1.0
C      1  0.5565730000000  0.5296410000000  0.5804250000000 1.0
C      1  0.5783730000000  0.4918800000000  0.4554980000000 1.0
C      1  0.4899420000000  0.4461630000000  0.5107670000000 1.0
C      1  0.5328140000000  0.5898350000000  0.4470830000000 1.0
C      1  0.4810210000000  0.4717330000000  0.5273970000000 1.0
C      1  0.5462460000000  0.5415980000000  0.4580660000000 1.0
C      1  0.4653740000000  0.5570070000000  0.5785580000000 1.0
C      1  0.4933210000000  0.4490500000000  0.4675530000000 1.0
C      1  0.4603130000000  0.4073420000000  0.5514540000000 1.0
C      1  0.4574210000000  0.4529410000000  0.4060600000000 1.0
C      1  0.5750100000000  0.4580470000000  0.5441030000000 1.0
C      1  0.5573850000000  0.4389550000000  0.4604080000000 1.0
C      1  0.5312410000000  0.5085060000000  0.5009060000000 1.0
C      1  0.5401230000000  0.4766010000000  0.4788580000000 1.0
C      1  0.5726240000000  0.4764900000000  0.4296800000000 1.0
C      1  0.5444370000000  0.4978670000000  0.4576900000000 1.0
C      1  0.5134200000000  0.5410260000000  0.4669520000000 1.0
C      1  0.3959520000000  0.4820150000000  0.5424140000000 1.0
C      1  0.4754770000000  0.4200550000000  0.5255970000000 1.0
C      1  0.4693440000000  0.4555940000000  0.5546080000000 1.0
C      1  0.4845090000000  0.5579450000000  0.5504580000000 1.0
C      1  0.5432730000000  0.5750080000000  0.5061340000000 1.0
C      1  0.4953490000000  0.4176340000000  0.4803550000000 1.0
C      1  0.5971100000000  0.5355480000000  0.4644350000000 1.0
C      1  0.5816160000000  0.4965210000000  0.5521870000000 1.0
C      1  0.4761610000000  0.5170800000000  0.4619780000000 1.0
C      1  0.5710000000000  0.5399490000000  0.4813450000000 1.0
C      1  0.4614560000000  0.4702990000000  0.4789350000000 1.0
C      1  0.5395320000000  0.4281880000000  0.5503420000000 1.0
C      1  0.5445400000000  0.5835890000000  0.4240190000000 1.0
C      1  0.5433270000000  0.5777380000000  0.4773130000000 1.0
C      1  0.5190170000000  0.4270560000000  0.4354230000000 1.0
C      1  0.5675600000000  0.5737790000000  0.5188590000000 1.0
C      1  0.4132450000000  0.4957390000000  0.5090840000000 1.0
C      1  0.4050360000000  0.5372160000000  0.4698430000000 1.0
C      1  0.5977260000000  0.4765230000000  0.5345590000000 1.0
C      1  0.4922560000000  0.5377950000000  0.4405350000000 1.0
C      1  0.4653970000000  0.5631430000000  0.4656510000000 1.0
C      1  0.5615600000000  0.5133730000000  0.4974650000000 1.0
C      1  0.4178160000000  0.4932270000000  0.5542150000000 1.0
C      1  0.4447630000000  0.5575300000000  0.5514240000000 1.0
C      1  0.4683980000000  0.4389100000000  0.4513060000000 1.0
C      1  0.5139830000000  0.4121040000000  0.5629250000000 1.0
C      1  0.5200010000000  0.6071310000000  0.5094660000000 1.0
C      1  0.4744380000000  0.5199820000000  0.4958690000000 1.0
C      1  0.3905520000000  0.5130900000000  0.5119710000000 1.0
C      1  0.4843380000000  0.5093120000000  0.3977080000000 1.0
C      1  0.5159360000000  0.5076840000000  0.4735210000000 1.0
C      1  0.5987920000000  0.5147470000000  0.4504310000000 1.0
C      1  0.5559560000000  0.4946050000000  0.4147420000000 1.0
C      1  0.5831540000000  0.5540490000000  0.5072670000000 1.0
C      1  0.4850670000000  0.5491770000000  0.4838540000000 1.0
C      1  0.4263200000000  0.4399480000000  0.5105280000000 1.0
C      1  0.4790930000000  0.5859900000000  0.5693350000000 1.0
C      1  0.4586700000000  0.4812290000000  0.4468580000000 1.0
C      1  0.4736730000000  0.5040260000000  0.5359410000000 1.0
C      1  0.5704780000000  0.4498130000000  0.4340520000000 1.0
C      1  0.4458910000000  0.4849560000000  0.5404730000000 1.0
C      1  0.5386380000000  0.4100520000000  0.5042240000000 1.0
C      1  0.5237960000000  0.4063350000000  0.4774010000000 1.0
C      1  0.4449470000000  0.5090930000000  0.4715060000000 1.0
C      1  0.4731600000000  0.5518300000000  0.4223660000000 1.0
C      1  0.4432400000000  0.5552340000000  0.4484240000000 1.0
C      1  0.5657400000000  0.5357090000000  0.5482450000000 1.0
C      1  0.4439250000000  0.4126700000000  0.5021780000000 1.0
C      1  0.4971270000000  0.5172320000000  0.5197680000000 1.0
C      1  0.5107800000000  0.5502460000000  0.6035960000000 1.0
C      1  0.4859640000000  0.5357110000000  0.5958830000000 1.0
C      1  0.5230180000000  0.4048030000000  0.5317640000000 1.0
C      1  0.5206870000000  0.5612250000000  0.5237150000000 1.0
C      1  0.4014740000000  0.4602280000000  0.4869980000000 1.0
C      1  0.4555120000000  0.5466840000000  0.5210450000000 1.0
C      1  0.5945240000000  0.5349660000000  0.5301170000000 1.0
C      1  0.4940200000000  0.4977220000000  0.4417820000000 1.0
C      1  0.5506780000000  0.5255760000000  0.4275710000000 1.0
C      1  0.4696960000000  0.5972550000000  0.5226430000000 1.0
C      1  0.4576020000000  0.5963760000000  0.4449360000000 1.0
C      1  0.5188040000000  0.5267930000000  0.4299870000000 1.0
C      1  0.4060780000000  0.4647800000000  0.5181910000000 1.0
C      1  0.4765600000000  0.6019700000000  0.4960930000000 1.0
C      1  0.4925370000000  0.4823460000000  0.4720710000000 1.0
C      1  0.4422910000000  0.5128450000000  0.5043620000000 1.0
C      1  0.4673840000000  0.5813660000000  0.4275860000000 1.0
C      1  0.5226470000000  0.5037660000000  0.5312590000000 1.0
C      1  0.4456840000000  0.5317960000000  0.4239540000000 1.0
C      1  0.4853940000000  0.5017020000000  0.5946650000000 1.0
C      1  0.5083870000000  0.4922140000000  0.4004590000000 1.0
C      1  0.5329380000000  0.5077340000000  0.5830680000000 1.0
C      1  0.5271310000000  0.4530130000000  0.5314570000000 1.0
C      1  0.5509900000000  0.4727500000000  0.5304480000000 1.0
C      1  0.4522510000000  0.4800890000000  0.3921920000000 1.0
C      1  0.4313640000000  0.5762520000000  0.4929940000000 1.0
C      1  0.5759830000000  0.5029060000000  0.5791550000000 1.0
C      1  0.5687170000000  0.4083350000000  0.5053710000000 1.0
C      1  0.5255190000000  0.4931530000000  0.4298260000000 1.0
C      1  0.5922750000000  0.4755150000000  0.4809960000000 1.0
C      1  0.5589530000000  0.4797600000000  0.5020470000000 1.0
C      1  0.5712230000000  0.4524200000000  0.4857950000000 1.0
C      1  0.4994010000000  0.4073850000000  0.5107440000000 1.0
C      1  0.4892000000000  0.5499280000000  0.5177480000000 1.0
C      1  0.5552600000000  0.5057360000000  0.5360650000000 1.0
C      1  0.5661060000000  0.5689290000000  0.4542360000000 1.0
C      1  0.4284480000000  0.4717240000000  0.4708640000000 1.0
C      1  0.3751840000000  0.5010060000000  0.5336900000000 1.0
C      1  0.5622920000000  0.4428450000000  0.5647950000000 1.0
C      1  0.5226840000000  0.4592670000000  0.4365920000000 1.0
C      1  0.5046540000000  0.4647750000000  0.4108830000000 1.0
C      1  0.5703270000000  0.4800630000000  0.5952020000000 1.0
C      1  0.4566550000000  0.5919060000000  0.4770660000000 1.0
C      1  0.4457180000000  0.5782930000000  0.5241160000000 1.0
C      1  0.5217950000000  0.4394090000000  0.5009060000000 1.0
C      1  0.4894520000000  0.4789960000000  0.5689350000000 1.0
C      1  0.4208980000000  0.4338000000000  0.4774900000000 1.0
C      1  0.4394370000000  0.4467590000000  0.4521030000000 1.0
C      1  0.5364610000000  0.4155980000000  0.4541640000000 1.0
C      1  0.5335920000000  0.5582630000000  0.5812740000000 1.0
C      1  0.3965940000000  0.5361440000000  0.4981450000000 1.0
C      1  0.5030090000000  0.5985140000000  0.4896180000000 1.0
C      1  0.4878650000000  0.5276570000000  0.5643890000000 1.0
C      1  0.6188110000000  0.5415580000000  0.5416670000000 1.0
C      1  0.5905100000000  0.5133120000000  0.5086690000000 1.0
END
