TITL C-2847945-6269-233 0.00188958525947011 125000 -1072.92671052156 0 0 194 (C1) n - 1
REM
REM in /home/bkarasulu/work/CARBON/AIRSS/Generating-Clusters/AIREBO/with-SteepDescent/Only-C1/SD-CG-opt/Try1-1.4A-POS3A/HFTN-CG
REM
REM
REM
REM
REM
REM ./C.cell (11c1c37f851c82e70ff6c80c92926a4b)
REM
REM compiler GCC version 9.2.1 20190827 (Red Hat 9.2.1-1)
REM options -cpp -mtune=generic -march=x86-64 -g -O0 -fpre-include=/usr/include/finclude/math-vector-fortran.h
REM seed 951841606 -75164501 1210169146 722359158 -1004156999 -176299288 293199520 705585561 1936192559 30666531 2001040402 -1822621856 1747436389 953888482 -529340805 2016465750 -1288453583 -1029790610 -1773506283 -929263285 -216110668 -650420727 -838240996 1836219937 -1290181468 1862701952 -773499304 1402004079 -463401653 1002440505 872505764 -769997028 662446051
REM
CELL 1.54180   50.00000   50.00000   50.00000   90.00000   90.00000   90.00000
LATT -1
SFAC C  
C      1  0.5368430000000  0.5140430000000  0.4384170000000 1.0
C      1  0.5103410000000  0.5118250000000  0.5981400000000 1.0
C      1  0.4759060000000  0.5946510000000  0.5499810000000 1.0
C      1  0.4186590000000  0.4789310000000  0.4204100000000 1.0
C      1  0.5170010000000  0.3796720000000  0.5232260000000 1.0
C      1  0.5409440000000  0.5568560000000  0.5212450000000 1.0
C      1  0.5175610000000  0.4725730000000  0.5403580000000 1.0
C      1  0.4185800000000  0.4715350000000  0.5293570000000 1.0
C      1  0.5699200000000  0.4658610000000  0.4182380000000 1.0
C      1  0.4088490000000  0.5462210000000  0.4773250000000 1.0
C      1  0.4250440000000  0.4326540000000  0.4105530000000 1.0
C      1  0.3934590000000  0.5178070000000  0.4785560000000 1.0
C      1  0.4143770000000  0.4730920000000  0.4746480000000 1.0
C      1  0.5375220000000  0.4007820000000  0.5228440000000 1.0
C      1  0.5403880000000  0.4959530000000  0.5970110000000 1.0
C      1  0.4946230000000  0.5905480000000  0.4344710000000 1.0
C      1  0.4963120000000  0.3842750000000  0.5406290000000 1.0
C      1  0.4675460000000  0.5298530000000  0.5477290000000 1.0
C      1  0.4890960000000  0.5648190000000  0.5269880000000 1.0
C      1  0.4806270000000  0.5449660000000  0.6197690000000 1.0
C      1  0.4942090000000  0.4668910000000  0.6139680000000 1.0
C      1  0.5480830000000  0.5545090000000  0.4603190000000 1.0
C      1  0.5244830000000  0.4842030000000  0.4331860000000 1.0
C      1  0.3903650000000  0.5619460000000  0.5819430000000 1.0
C      1  0.5052970000000  0.5289640000000  0.5708220000000 1.0
C      1  0.4143520000000  0.5570340000000  0.5755050000000 1.0
C      1  0.4829170000000  0.5372410000000  0.4829980000000 1.0
C      1  0.4734200000000  0.4713290000000  0.3932350000000 1.0
C      1  0.5924970000000  0.5138740000000  0.4646600000000 1.0
C      1  0.6077780000000  0.5295670000000  0.5455090000000 1.0
C      1  0.4351790000000  0.4234700000000  0.5464120000000 1.0
C      1  0.5257710000000  0.6135180000000  0.5353110000000 1.0
C      1  0.6011520000000  0.4802960000000  0.5629420000000 1.0
C      1  0.5024700000000  0.6132790000000  0.4781520000000 1.0
C      1  0.5916840000000  0.5681760000000  0.4642110000000 1.0
C      1  0.5133660000000  0.4384960000000  0.4944170000000 1.0
C      1  0.4154050000000  0.5217090000000  0.4404490000000 1.0
C      1  0.5392280000000  0.5210350000000  0.5389250000000 1.0
C      1  0.4705820000000  0.4629630000000  0.5424700000000 1.0
C      1  0.5272930000000  0.5464680000000  0.4346340000000 1.0
C      1  0.4442190000000  0.4490160000000  0.5261050000000 1.0
C      1  0.5548210000000  0.5157120000000  0.6146730000000 1.0
C      1  0.5469420000000  0.4802610000000  0.5299170000000 1.0
C      1  0.5223380000000  0.5965820000000  0.4364070000000 1.0
C      1  0.6085830000000  0.4505270000000  0.5678600000000 1.0
C      1  0.4175940000000  0.5511890000000  0.4479570000000 1.0
C      1  0.5327110000000  0.5470740000000  0.5620670000000 1.0
C      1  0.4654560000000  0.5637700000000  0.5501170000000 1.0
C      1  0.4153420000000  0.5255490000000  0.5243660000000 1.0
C      1  0.4593990000000  0.4312930000000  0.4650070000000 1.0
C      1  0.4295010000000  0.5260080000000  0.4937850000000 1.0
C      1  0.6134530000000  0.3884290000000  0.4567350000000 1.0
C      1  0.4430290000000  0.5661780000000  0.4430650000000 1.0
C      1  0.4894020000000  0.4879890000000  0.5291380000000 1.0
C      1  0.4736100000000  0.4611710000000  0.4724100000000 1.0
C      1  0.5370830000000  0.4626770000000  0.4974620000000 1.0
C      1  0.5110910000000  0.5429420000000  0.4985810000000 1.0
C      1  0.5537050000000  0.4862060000000  0.4792210000000 1.0
C      1  0.5393730000000  0.4497510000000  0.4529000000000 1.0
C      1  0.4503530000000  0.6075780000000  0.5120030000000 1.0
C      1  0.5267360000000  0.4779730000000  0.4640060000000 1.0
C      1  0.5607350000000  0.5834700000000  0.4682470000000 1.0
C      1  0.4063800000000  0.4323260000000  0.5034630000000 1.0
C      1  0.5695380000000  0.4364770000000  0.4823460000000 1.0
C      1  0.5024760000000  0.6132120000000  0.5121580000000 1.0
C      1  0.4030940000000  0.4816270000000  0.4438810000000 1.0
C      1  0.4922930000000  0.5521900000000  0.5894480000000 1.0
C      1  0.5139030000000  0.4617320000000  0.5701600000000 1.0
C      1  0.5079260000000  0.5258970000000  0.4629320000000 1.0
C      1  0.4667890000000  0.4726310000000  0.6066100000000 1.0
C      1  0.4818430000000  0.4285220000000  0.4977200000000 1.0
C      1  0.4738370000000  0.5564870000000  0.4370070000000 1.0
C      1  0.4225360000000  0.4436590000000  0.4795980000000 1.0
C      1  0.5934290000000  0.5267140000000  0.5072670000000 1.0
C      1  0.4543440000000  0.4016680000000  0.5537980000000 1.0
C      1  0.5805610000000  0.3997890000000  0.4923070000000 1.0
C      1  0.5909020000000  0.4783980000000  0.5018230000000 1.0
C      1  0.4162900000000  0.4143630000000  0.5213100000000 1.0
C      1  0.4888980000000  0.4341680000000  0.5450180000000 1.0
C      1  0.5847990000000  0.4857430000000  0.4722770000000 1.0
C      1  0.5769540000000  0.5431900000000  0.5670160000000 1.0
C      1  0.5219470000000  0.4344400000000  0.5534010000000 1.0
C      1  0.4602870000000  0.5159490000000  0.3704370000000 1.0
C      1  0.4856070000000  0.5158390000000  0.6133210000000 1.0
C      1  0.5629680000000  0.5117990000000  0.4218660000000 1.0
C      1  0.5371250000000  0.5599100000000  0.4902320000000 1.0
C      1  0.5649720000000  0.5729770000000  0.5333970000000 1.0
C      1  0.5496090000000  0.5013740000000  0.5646630000000 1.0
C      1  0.4023200000000  0.4965950000000  0.4960750000000 1.0
C      1  0.3983240000000  0.5493180000000  0.5157650000000 1.0
C      1  0.4869610000000  0.4678430000000  0.5004720000000 1.0
C      1  0.4356070000000  0.4997960000000  0.5208410000000 1.0
C      1  0.3967160000000  0.4975910000000  0.5296050000000 1.0
C      1  0.4769050000000  0.5086800000000  0.4947020000000 1.0
C      1  0.4601330000000  0.5682830000000  0.4723800000000 1.0
C      1  0.5160200000000  0.4722820000000  0.5985730000000 1.0
C      1  0.5323580000000  0.6021920000000  0.4660960000000 1.0
C      1  0.4362620000000  0.5378000000000  0.5580090000000 1.0
C      1  0.5593770000000  0.4711650000000  0.6018050000000 1.0
C      1  0.5803330000000  0.4470200000000  0.5567530000000 1.0
C      1  0.5117950000000  0.5496590000000  0.5372700000000 1.0
C      1  0.6468560000000  0.5294980000000  0.5008400000000 1.0
C      1  0.4486630000000  0.4878990000000  0.5498980000000 1.0
C      1  0.4570700000000  0.4565940000000  0.5818510000000 1.0
C      1  0.4771460000000  0.5962670000000  0.4631230000000 1.0
C      1  0.4536300000000  0.5115430000000  0.4450680000000 1.0
C      1  0.5847520000000  0.5292730000000  0.4302140000000 1.0
C      1  0.4622950000000  0.5563090000000  0.5969980000000 1.0
C      1  0.4890820000000  0.4518370000000  0.4477900000000 1.0
C      1  0.5666600000000  0.5678060000000  0.5605480000000 1.0
C      1  0.4517170000000  0.5350190000000  0.4696610000000 1.0
C      1  0.4781180000000  0.4102070000000  0.4509990000000 1.0
C      1  0.4427260000000  0.5757020000000  0.5076090000000 1.0
C      1  0.5773410000000  0.4933160000000  0.5220640000000 1.0
C      1  0.4933430000000  0.5657010000000  0.4141820000000 1.0
C      1  0.4889820000000  0.4947380000000  0.4512730000000 1.0
C      1  0.5223400000000  0.4411640000000  0.4283430000000 1.0
C      1  0.4249020000000  0.5171270000000  0.4105390000000 1.0
C      1  0.5251360000000  0.4918450000000  0.5065100000000 1.0
C      1  0.4796210000000  0.4055150000000  0.5463080000000 1.0
C      1  0.4797740000000  0.5065990000000  0.5686510000000 1.0
C      1  0.5852120000000  0.5815860000000  0.4917840000000 1.0
C      1  0.4489720000000  0.4938340000000  0.4164040000000 1.0
C      1  0.4909700000000  0.3620420000000  0.4619940000000 1.0
C      1  0.4141690000000  0.4627100000000  0.5617370000000 1.0
C      1  0.5233050000000  0.5993080000000  0.5592040000000 1.0
C      1  0.5027270000000  0.5131720000000  0.3972990000000 1.0
C      1  0.5055570000000  0.5162790000000  0.5391480000000 1.0
C      1  0.6033880000000  0.5445220000000  0.4538020000000 1.0
C      1  0.5187430000000  0.4563170000000  0.4051070000000 1.0
C      1  0.5398280000000  0.5768630000000  0.5739840000000 1.0
C      1  0.4430560000000  0.5954470000000  0.4610880000000 1.0
C      1  0.5088020000000  0.5395160000000  0.4069520000000 1.0
C      1  0.4303900000000  0.5015170000000  0.4650210000000 1.0
C      1  0.5882260000000  0.5726330000000  0.5179890000000 1.0
C      1  0.4120610000000  0.5697110000000  0.4985770000000 1.0
C      1  0.4654280000000  0.5111630000000  0.5224700000000 1.0
C      1  0.5234820000000  0.4897110000000  0.4007740000000 1.0
C      1  0.4214830000000  0.4275030000000  0.4547060000000 1.0
C      1  0.4956600000000  0.4568660000000  0.3864210000000 1.0
C      1  0.5418160000000  0.5807760000000  0.6016600000000 1.0
C      1  0.4999060000000  0.5829110000000  0.5033610000000 1.0
C      1  0.4101530000000  0.4088710000000  0.4154090000000 1.0
C      1  0.4680820000000  0.5593030000000  0.5041960000000 1.0
C      1  0.6091460000000  0.5559850000000  0.5292000000000 1.0
C      1  0.4612290000000  0.4625290000000  0.4215170000000 1.0
C      1  0.5271290000000  0.3753850000000  0.4942880000000 1.0
C      1  0.4807190000000  0.5262220000000  0.4439220000000 1.0
C      1  0.4030890000000  0.4897520000000  0.5613310000000 1.0
C      1  0.6224650000000  0.5353990000000  0.5088980000000 1.0
C      1  0.4280570000000  0.5980220000000  0.4880150000000 1.0
C      1  0.5427950000000  0.4210960000000  0.5408810000000 1.0
C      1  0.4834380000000  0.4749340000000  0.5705040000000 1.0
C      1  0.4740230000000  0.6100410000000  0.5266220000000 1.0
C      1  0.4513630000000  0.4396240000000  0.4970030000000 1.0
C      1  0.4921420000000  0.4750890000000  0.4281330000000 1.0
C      1  0.6139640000000  0.5048660000000  0.5613610000000 1.0
C      1  0.4454480000000  0.5657760000000  0.5753270000000 1.0
C      1  0.3948270000000  0.4537690000000  0.5156970000000 1.0
C      1  0.5828890000000  0.4393280000000  0.4222090000000 1.0
C      1  0.5029570000000  0.5571270000000  0.4546760000000 1.0
C      1  0.5664140000000  0.5312600000000  0.4587800000000 1.0
C      1  0.4143020000000  0.5049090000000  0.5809450000000 1.0
C      1  0.5370730000000  0.5770120000000  0.4233430000000 1.0
C      1  0.5692790000000  0.4293770000000  0.5392270000000 1.0
C      1  0.4594030000000  0.4884740000000  0.4770760000000 1.0
C      1  0.4337810000000  0.4447530000000  0.5702440000000 1.0
C      1  0.5566980000000  0.4878350000000  0.4079100000000 1.0
C      1  0.5387020000000  0.4285700000000  0.4784750000000 1.0
C      1  0.5391260000000  0.5161380000000  0.4723050000000 1.0
C      1  0.5143430000000  0.3598440000000  0.4756690000000 1.0
C      1  0.5869430000000  0.4322160000000  0.4546590000000 1.0
C      1  0.5019650000000  0.4899170000000  0.4816970000000 1.0
C      1  0.4963920000000  0.6007630000000  0.5683190000000 1.0
C      1  0.5031760000000  0.4511800000000  0.5225060000000 1.0
C      1  0.4463470000000  0.4390750000000  0.4345800000000 1.0
C      1  0.5680200000000  0.4763370000000  0.5563330000000 1.0
C      1  0.4139340000000  0.4573240000000  0.4028720000000 1.0
C      1  0.5331940000000  0.5211070000000  0.5054380000000 1.0
C      1  0.4466630000000  0.5101930000000  0.5755070000000 1.0
C      1  0.4781710000000  0.3827820000000  0.4501690000000 1.0
C      1  0.5134650000000  0.5759600000000  0.4762730000000 1.0
C      1  0.5938450000000  0.4042070000000  0.4674020000000 1.0
C      1  0.4622370000000  0.5006790000000  0.6042190000000 1.0
C      1  0.3886360000000  0.5073710000000  0.4511870000000 1.0
C      1  0.4992920000000  0.4255040000000  0.4396530000000 1.0
C      1  0.5663570000000  0.5343670000000  0.5233500000000 1.0
C      1  0.5994690000000  0.4531450000000  0.5060830000000 1.0
C      1  0.5774010000000  0.5145850000000  0.5486130000000 1.0
C      1  0.5490280000000  0.4010860000000  0.4923000000000 1.0
C      1  0.5822350000000  0.4267790000000  0.5121550000000 1.0
C      1  0.4721840000000  0.5033630000000  0.3926090000000 1.0
C      1  0.5706740000000  0.4623390000000  0.4520540000000 1.0
C      1  0.4069750000000  0.4075470000000  0.4431170000000 1.0
END
