TITL C-2847947-6848-289 -0.00350373520742019 125000 -871.450055019798 0 0 164 (C1) n - 1
REM
REM in /home/bkarasulu/work/CARBON/AIRSS/Generating-Clusters/AIREBO/with-SteepDescent/Only-C1/SD-CG-opt/Try1-1.4A-POS3A/HFTN-CG
REM
REM
REM
REM
REM
REM ./C.cell (11c1c37f851c82e70ff6c80c92926a4b)
REM
REM compiler GCC version 9.2.1 20190827 (Red Hat 9.2.1-1)
REM options -cpp -mtune=generic -march=x86-64 -g -O0 -fpre-include=/usr/include/finclude/math-vector-fortran.h
REM seed -285606813 567965362 1398693600 833869843 -1363552562 -236441289 -1864389254 1319538757 -38317602 2120873403 -1191954215 -229345380 -1665423774 722641188 -6530843 -565713702 -762017852 541689555 -135721145 -1454504821 210587826 163319632 935966089 -184604012 1921774354 1882418041 -1694922662 -1753103474 909227930 -1966285101 1795013860 -730488340 -1964773766
REM
CELL 1.54180   50.00000   50.00000   50.00000   90.00000   90.00000   90.00000
LATT -1
SFAC C  
C      1  0.5499000000000  0.5228880000000  0.4963030000000 1.0
C      1  0.5105790000000  0.5234760000000  0.5946300000000 1.0
C      1  0.5712100000000  0.4248400000000  0.5212830000000 1.0
C      1  0.3924400000000  0.4797060000000  0.4900330000000 1.0
C      1  0.5821870000000  0.5123270000000  0.4946960000000 1.0
C      1  0.5047080000000  0.5003060000000  0.4044490000000 1.0
C      1  0.5150060000000  0.5843570000000  0.5871780000000 1.0
C      1  0.4301770000000  0.5356530000000  0.5188290000000 1.0
C      1  0.5325750000000  0.5136970000000  0.5730320000000 1.0
C      1  0.5549930000000  0.4936780000000  0.4677060000000 1.0
C      1  0.5174140000000  0.4771070000000  0.4762420000000 1.0
C      1  0.4433160000000  0.4933230000000  0.4865540000000 1.0
C      1  0.5909930000000  0.5140740000000  0.5383450000000 1.0
C      1  0.5171370000000  0.4721400000000  0.5965360000000 1.0
C      1  0.4349660000000  0.4722590000000  0.4660450000000 1.0
C      1  0.5087240000000  0.4442200000000  0.4761270000000 1.0
C      1  0.5792820000000  0.4448000000000  0.5418660000000 1.0
C      1  0.5333600000000  0.5174350000000  0.4120370000000 1.0
C      1  0.5640260000000  0.5194430000000  0.5821400000000 1.0
C      1  0.4966880000000  0.5325510000000  0.3972380000000 1.0
C      1  0.4266670000000  0.5513800000000  0.4824780000000 1.0
C      1  0.4836570000000  0.5072360000000  0.4685970000000 1.0
C      1  0.5177640000000  0.5152110000000  0.4407350000000 1.0
C      1  0.5712860000000  0.5108670000000  0.4453210000000 1.0
C      1  0.5027500000000  0.4138720000000  0.5548080000000 1.0
C      1  0.5255610000000  0.4423490000000  0.4448930000000 1.0
C      1  0.4641600000000  0.5196220000000  0.5914910000000 1.0
C      1  0.4832050000000  0.5492400000000  0.4213680000000 1.0
C      1  0.4894020000000  0.5091010000000  0.5722470000000 1.0
C      1  0.4756060000000  0.4369630000000  0.4733320000000 1.0
C      1  0.4086110000000  0.5922370000000  0.5404790000000 1.0
C      1  0.4925130000000  0.5694360000000  0.5300660000000 1.0
C      1  0.5524030000000  0.5529330000000  0.5432470000000 1.0
C      1  0.6056630000000  0.4874160000000  0.5296310000000 1.0
C      1  0.5218750000000  0.5979950000000  0.4441810000000 1.0
C      1  0.5608680000000  0.5769130000000  0.4880270000000 1.0
C      1  0.5947310000000  0.5714500000000  0.4845040000000 1.0
C      1  0.4593490000000  0.5525950000000  0.4597220000000 1.0
C      1  0.4500770000000  0.4654160000000  0.4123840000000 1.0
C      1  0.5326020000000  0.5850120000000  0.4913230000000 1.0
C      1  0.5947320000000  0.4750350000000  0.5008760000000 1.0
C      1  0.4733770000000  0.5791480000000  0.5036840000000 1.0
C      1  0.4720380000000  0.4804360000000  0.5780380000000 1.0
C      1  0.4883430000000  0.5199910000000  0.4379420000000 1.0
C      1  0.5562660000000  0.4543210000000  0.4533010000000 1.0
C      1  0.5505790000000  0.4062160000000  0.5301150000000 1.0
C      1  0.5227920000000  0.5734730000000  0.5178600000000 1.0
C      1  0.4899660000000  0.4348550000000  0.5712310000000 1.0
C      1  0.4257780000000  0.4479130000000  0.5440360000000 1.0
C      1  0.5272570000000  0.5984380000000  0.5623640000000 1.0
C      1  0.6124430000000  0.5012980000000  0.4928180000000 1.0
C      1  0.4883200000000  0.5400850000000  0.4724470000000 1.0
C      1  0.5663550000000  0.5421810000000  0.4504310000000 1.0
C      1  0.4534610000000  0.5063370000000  0.5328330000000 1.0
C      1  0.5765040000000  0.4775850000000  0.4388910000000 1.0
C      1  0.4227250000000  0.4487570000000  0.4360650000000 1.0
C      1  0.4423280000000  0.4986150000000  0.5892210000000 1.0
C      1  0.5287270000000  0.3935800000000  0.4899750000000 1.0
C      1  0.5389360000000  0.5901760000000  0.5392470000000 1.0
C      1  0.5354810000000  0.4107340000000  0.4671160000000 1.0
C      1  0.4834180000000  0.4030040000000  0.5358490000000 1.0
C      1  0.4924680000000  0.4592860000000  0.5859190000000 1.0
C      1  0.5183740000000  0.4199760000000  0.4125000000000 1.0
C      1  0.4574880000000  0.6018280000000  0.4749180000000 1.0
C      1  0.5722170000000  0.4366280000000  0.4955440000000 1.0
C      1  0.4456060000000  0.4340900000000  0.4248380000000 1.0
C      1  0.4378080000000  0.5285760000000  0.4238070000000 1.0
C      1  0.4182590000000  0.5123590000000  0.5701530000000 1.0
C      1  0.4716930000000  0.5442510000000  0.6018940000000 1.0
C      1  0.3892410000000  0.5217410000000  0.5611340000000 1.0
C      1  0.5835040000000  0.5404980000000  0.4753420000000 1.0
C      1  0.5349350000000  0.5590200000000  0.5683530000000 1.0
C      1  0.5295100000000  0.4195550000000  0.5442180000000 1.0
C      1  0.5430580000000  0.3857600000000  0.5122830000000 1.0
C      1  0.5305820000000  0.6198810000000  0.4329140000000 1.0
C      1  0.4933850000000  0.4519640000000  0.4395310000000 1.0
C      1  0.4896800000000  0.5381750000000  0.5220420000000 1.0
C      1  0.4519170000000  0.5448590000000  0.5432990000000 1.0
C      1  0.4424510000000  0.5658350000000  0.5091070000000 1.0
C      1  0.4766740000000  0.4819480000000  0.3976930000000 1.0
C      1  0.5686550000000  0.4673630000000  0.5208530000000 1.0
C      1  0.5247960000000  0.5695420000000  0.4308440000000 1.0
C      1  0.5032210000000  0.5665800000000  0.5606980000000 1.0
C      1  0.5342930000000  0.4930760000000  0.5012530000000 1.0
C      1  0.5532690000000  0.5014960000000  0.6089440000000 1.0
C      1  0.4302950000000  0.4678400000000  0.5969860000000 1.0
C      1  0.5318720000000  0.5407050000000  0.5189870000000 1.0
C      1  0.4554280000000  0.4163630000000  0.4448670000000 1.0
C      1  0.5441260000000  0.4690450000000  0.4183950000000 1.0
C      1  0.4680580000000  0.4789890000000  0.5019350000000 1.0
C      1  0.5421970000000  0.4409290000000  0.4812310000000 1.0
C      1  0.5695480000000  0.4809770000000  0.5913580000000 1.0
C      1  0.4487100000000  0.4588570000000  0.5213430000000 1.0
C      1  0.4909660000000  0.4387630000000  0.5112510000000 1.0
C      1  0.5103390000000  0.5285050000000  0.4956430000000 1.0
C      1  0.4221420000000  0.5433360000000  0.5566790000000 1.0
C      1  0.5137470000000  0.4999140000000  0.5502870000000 1.0
C      1  0.5376320000000  0.4601220000000  0.5089500000000 1.0
C      1  0.4436050000000  0.4651990000000  0.5672800000000 1.0
C      1  0.4393370000000  0.4179220000000  0.4731220000000 1.0
C      1  0.4846140000000  0.4759090000000  0.4723980000000 1.0
C      1  0.5604820000000  0.4437510000000  0.4212460000000 1.0
C      1  0.4559750000000  0.4206180000000  0.5303400000000 1.0
C      1  0.4549780000000  0.5500110000000  0.4323700000000 1.0
C      1  0.5765900000000  0.5352030000000  0.5587670000000 1.0
C      1  0.4952180000000  0.4992040000000  0.5015520000000 1.0
C      1  0.5363550000000  0.5089120000000  0.5310540000000 1.0
C      1  0.6366680000000  0.5087140000000  0.4900200000000 1.0
C      1  0.4901780000000  0.5728020000000  0.4748130000000 1.0
C      1  0.5307780000000  0.4842070000000  0.4457830000000 1.0
C      1  0.4640930000000  0.4614700000000  0.4527650000000 1.0
C      1  0.4632540000000  0.5710960000000  0.5432220000000 1.0
C      1  0.4702370000000  0.5346150000000  0.4985030000000 1.0
C      1  0.5676720000000  0.4987360000000  0.5225130000000 1.0
C      1  0.4159340000000  0.4375400000000  0.4614150000000 1.0
C      1  0.3966880000000  0.5099960000000  0.4806490000000 1.0
C      1  0.4803850000000  0.4006530000000  0.5059330000000 1.0
C      1  0.4301520000000  0.4874400000000  0.5168360000000 1.0
C      1  0.5470760000000  0.4845260000000  0.5732570000000 1.0
C      1  0.5257280000000  0.4645200000000  0.5645270000000 1.0
C      1  0.4586060000000  0.3954370000000  0.4898970000000 1.0
C      1  0.4073980000000  0.4603220000000  0.4784380000000 1.0
C      1  0.5883470000000  0.5450000000000  0.5283650000000 1.0
C      1  0.5052960000000  0.4148500000000  0.4929460000000 1.0
C      1  0.4734910000000  0.5128330000000  0.3838360000000 1.0
C      1  0.5679860000000  0.5822070000000  0.5357820000000 1.0
C      1  0.5760280000000  0.5577360000000  0.4230580000000 1.0
C      1  0.5007170000000  0.5538060000000  0.5921130000000 1.0
C      1  0.4284570000000  0.4157970000000  0.5482440000000 1.0
C      1  0.4139010000000  0.5250430000000  0.4650890000000 1.0
C      1  0.5814180000000  0.5864450000000  0.5119640000000 1.0
C      1  0.4020560000000  0.5029930000000  0.5127390000000 1.0
C      1  0.4639730000000  0.5147750000000  0.4159690000000 1.0
C      1  0.4431070000000  0.5232640000000  0.4922370000000 1.0
C      1  0.4831570000000  0.6083660000000  0.4890780000000 1.0
C      1  0.4679370000000  0.4862480000000  0.4301960000000 1.0
C      1  0.5699070000000  0.5489320000000  0.5051110000000 1.0
C      1  0.5012020000000  0.5569490000000  0.4458780000000 1.0
C      1  0.4779370000000  0.4530870000000  0.5377310000000 1.0
C      1  0.5250810000000  0.4966460000000  0.6082620000000 1.0
C      1  0.5140840000000  0.4103870000000  0.4432320000000 1.0
C      1  0.5159630000000  0.5586670000000  0.4005110000000 1.0
C      1  0.4535640000000  0.4337920000000  0.4990850000000 1.0
C      1  0.5050090000000  0.4687680000000  0.5131480000000 1.0
C      1  0.4224200000000  0.5705380000000  0.5361940000000 1.0
C      1  0.5472800000000  0.5464420000000  0.5905980000000 1.0
C      1  0.5066770000000  0.4451100000000  0.4098180000000 1.0
C      1  0.5459880000000  0.5455360000000  0.4233470000000 1.0
C      1  0.5110380000000  0.5968620000000  0.4733250000000 1.0
C      1  0.4286680000000  0.4819600000000  0.4356960000000 1.0
C      1  0.5014690000000  0.4720210000000  0.5448920000000 1.0
C      1  0.5588210000000  0.4976770000000  0.4179040000000 1.0
C      1  0.4310650000000  0.4905670000000  0.5519550000000 1.0
C      1  0.5061710000000  0.4761990000000  0.4237230000000 1.0
C      1  0.4463940000000  0.5766650000000  0.4711730000000 1.0
C      1  0.4605000000000  0.4365850000000  0.5600280000000 1.0
C      1  0.5725200000000  0.4672770000000  0.4802110000000 1.0
C      1  0.4751430000000  0.5229710000000  0.5460450000000 1.0
C      1  0.3966930000000  0.4552040000000  0.5398030000000 1.0
C      1  0.4022430000000  0.5262570000000  0.5325230000000 1.0
C      1  0.4223190000000  0.5130230000000  0.4403920000000 1.0
C      1  0.5324200000000  0.4471970000000  0.5399820000000 1.0
C      1  0.4847170000000  0.4129670000000  0.4510270000000 1.0
C      1  0.5304370000000  0.5172100000000  0.4696550000000 1.0
END
