TITL C-2847945-6269-160 0.00477481953950529 125000 -137.388155735588 0 0 25 (C1) n - 1
REM
REM in /home/bkarasulu/work/CARBON/AIRSS/Generating-Clusters/AIREBO/with-SteepDescent/Only-C1/SD-CG-opt/Try1-1.4A-POS3A/HFTN-CG
REM
REM
REM
REM
REM
REM ./C.cell (11c1c37f851c82e70ff6c80c92926a4b)
REM
REM compiler GCC version 9.2.1 20190827 (Red Hat 9.2.1-1)
REM options -cpp -mtune=generic -march=x86-64 -g -O0 -fpre-include=/usr/include/finclude/math-vector-fortran.h
REM seed -701238756 1798793531 114435965 1958685982 1961096366 -1060615653 1377411370 -1652137110 -1000344172 -1361589006 770925868 1465535784 1473487207 -1656279592 2059882549 -1513944216 -658415336 -1009467624 -1845123917 128433422 -1049566255 -101906966 980289007 1451086919 -1982178299 869160890 1564794373 1485107494 847466568 -606309478 -325966156 -1533760333 1312297179
REM
CELL 1.54180   50.00000   50.00000   50.00000   90.00000   90.00000   90.00000
LATT -1
SFAC C  
C      1  0.4797720000000  0.5061990000000  0.5460750000000 1.0
C      1  0.5360630000000  0.5047000000000  0.5117190000000 1.0
C      1  0.4811450000000  0.4915750000000  0.5171490000000 1.0
C      1  0.5026200000000  0.5296220000000  0.5519330000000 1.0
C      1  0.4603180000000  0.5122520000000  0.4768520000000 1.0
C      1  0.5330840000000  0.4365930000000  0.4828590000000 1.0
C      1  0.5170600000000  0.5449450000000  0.5355680000000 1.0
C      1  0.5283800000000  0.4885200000000  0.5379910000000 1.0
C      1  0.4846550000000  0.5108210000000  0.4938110000000 1.0
C      1  0.4563120000000  0.4585790000000  0.4878660000000 1.0
C      1  0.4509060000000  0.4942800000000  0.5324580000000 1.0
C      1  0.4527090000000  0.4875470000000  0.4989490000000 1.0
C      1  0.4500570000000  0.5415630000000  0.4386940000000 1.0
C      1  0.4662180000000  0.5325300000000  0.4580870000000 1.0
C      1  0.5347120000000  0.5626470000000  0.5167070000000 1.0
C      1  0.5258320000000  0.5316440000000  0.5056360000000 1.0
C      1  0.5466670000000  0.4520680000000  0.5019200000000 1.0
C      1  0.4807160000000  0.4468160000000  0.4874070000000 1.0
C      1  0.5463550000000  0.4229130000000  0.4637660000000 1.0
C      1  0.5051230000000  0.4360440000000  0.4845490000000 1.0
C      1  0.5109800000000  0.4991600000000  0.5561630000000 1.0
C      1  0.4929950000000  0.5427980000000  0.4634850000000 1.0
C      1  0.5029600000000  0.5299370000000  0.4865090000000 1.0
C      1  0.5484330000000  0.4757480000000  0.5157890000000 1.0
C      1  0.5059270000000  0.5604990000000  0.4480570000000 1.0
END
