TITL C-2848500-1637-663 -0.00145642098289615 125000 -907.487386178236 0 0 165 (C1) n - 1
REM
REM in /home/bkarasulu/work/CARBON/AIRSS/Generating-Clusters/AIREBO/with-SteepDescent/Only-C1/SD-CG-opt/Try1-1.4A-POS3A/HFTN-CG
REM
REM
REM
REM
REM
REM ./C.cell (11c1c37f851c82e70ff6c80c92926a4b)
REM
REM compiler GCC version 9.2.1 20190827 (Red Hat 9.2.1-1)
REM options -cpp -mtune=generic -march=x86-64 -g -O0 -fpre-include=/usr/include/finclude/math-vector-fortran.h
REM seed 1300697845 580913927 -265484978 406667153 1963094719 -2045830995 -38619335 -1017684001 594522327 -661403085 1816587481 -159730070 286290702 -1009789370 -1579735152 -1635257901 -1523624432 -634495172 -330625483 -808241387 1592406009 -916803922 533938486 -832923961 907487648 -1922015047 -616312732 -281003618 -351312335 -1226944269 -1693251257 1822688743 1339503101
REM
CELL 1.54180   50.00000   50.00000   50.00000   90.00000   90.00000   90.00000
LATT -1
SFAC C  
C      1  0.4638430000000  0.4044650000000  0.5180670000000 1.0
C      1  0.4287600000000  0.4676290000000  0.5503870000000 1.0
C      1  0.4717850000000  0.4605870000000  0.4622890000000 1.0
C      1  0.4745890000000  0.3974780000000  0.4925300000000 1.0
C      1  0.4846640000000  0.5377150000000  0.5812460000000 1.0
C      1  0.5349460000000  0.4446570000000  0.5704930000000 1.0
C      1  0.4114050000000  0.4943320000000  0.4819240000000 1.0
C      1  0.4830170000000  0.4965980000000  0.5726870000000 1.0
C      1  0.5353810000000  0.4855870000000  0.4428530000000 1.0
C      1  0.4606210000000  0.5251120000000  0.5363050000000 1.0
C      1  0.5527430000000  0.5441070000000  0.5701030000000 1.0
C      1  0.4878980000000  0.5688020000000  0.4781950000000 1.0
C      1  0.4036170000000  0.4566260000000  0.4925380000000 1.0
C      1  0.4381430000000  0.5790250000000  0.5304780000000 1.0
C      1  0.4549800000000  0.4320310000000  0.4399450000000 1.0
C      1  0.6020020000000  0.4874930000000  0.5105600000000 1.0
C      1  0.4912990000000  0.4049080000000  0.4493000000000 1.0
C      1  0.4371290000000  0.4810600000000  0.4706760000000 1.0
C      1  0.5848150000000  0.4978350000000  0.5524250000000 1.0
C      1  0.5469600000000  0.4119960000000  0.5077970000000 1.0
C      1  0.5049100000000  0.4755420000000  0.4457570000000 1.0
C      1  0.4287620000000  0.4771550000000  0.5805970000000 1.0
C      1  0.4798610000000  0.5338440000000  0.4152600000000 1.0
C      1  0.5766670000000  0.5207430000000  0.5762590000000 1.0
C      1  0.4643320000000  0.5063090000000  0.4069830000000 1.0
C      1  0.4556660000000  0.5536830000000  0.4206870000000 1.0
C      1  0.5145980000000  0.4999610000000  0.6085720000000 1.0
C      1  0.5168120000000  0.4776450000000  0.3954180000000 1.0
C      1  0.4696960000000  0.5913060000000  0.4817720000000 1.0
C      1  0.4955260000000  0.4357050000000  0.5032960000000 1.0
C      1  0.4180430000000  0.4984550000000  0.5430800000000 1.0
C      1  0.5118690000000  0.5108450000000  0.5703640000000 1.0
C      1  0.5294700000000  0.4803390000000  0.5967440000000 1.0
C      1  0.5125970000000  0.5890830000000  0.5076990000000 1.0
C      1  0.4207770000000  0.5576820000000  0.5153970000000 1.0
C      1  0.4319810000000  0.4535720000000  0.4529740000000 1.0
C      1  0.5304580000000  0.5985150000000  0.4800330000000 1.0
C      1  0.4332780000000  0.5040020000000  0.5852370000000 1.0
C      1  0.4136230000000  0.4884830000000  0.4156720000000 1.0
C      1  0.4377090000000  0.4183470000000  0.5225480000000 1.0
C      1  0.5218310000000  0.5163580000000  0.4020850000000 1.0
C      1  0.5294780000000  0.4326490000000  0.4240860000000 1.0
C      1  0.5088640000000  0.4522660000000  0.5715910000000 1.0
C      1  0.4464610000000  0.4521400000000  0.4161170000000 1.0
C      1  0.4837300000000  0.5923400000000  0.5566600000000 1.0
C      1  0.5890660000000  0.5449070000000  0.4759930000000 1.0
C      1  0.5750940000000  0.4382190000000  0.4476260000000 1.0
C      1  0.5497280000000  0.5647280000000  0.5440470000000 1.0
C      1  0.5242700000000  0.5927980000000  0.4488410000000 1.0
C      1  0.5451250000000  0.5935690000000  0.5303290000000 1.0
C      1  0.4802000000000  0.5927550000000  0.5091270000000 1.0
C      1  0.4672140000000  0.5714480000000  0.4440810000000 1.0
C      1  0.5782150000000  0.4641420000000  0.5954840000000 1.0
C      1  0.5721590000000  0.5277210000000  0.5202910000000 1.0
C      1  0.5666260000000  0.5561750000000  0.4452070000000 1.0
C      1  0.4971000000000  0.4536030000000  0.5961590000000 1.0
C      1  0.5203790000000  0.5368560000000  0.4273080000000 1.0
C      1  0.5111710000000  0.4962880000000  0.5200320000000 1.0
C      1  0.5019930000000  0.5587290000000  0.4088730000000 1.0
C      1  0.5500180000000  0.4284140000000  0.5514460000000 1.0
C      1  0.4879500000000  0.4381460000000  0.4456650000000 1.0
C      1  0.4579530000000  0.4784720000000  0.4949280000000 1.0
C      1  0.5558420000000  0.4689220000000  0.5785400000000 1.0
C      1  0.5769210000000  0.5042070000000  0.5025420000000 1.0
C      1  0.5626580000000  0.4595070000000  0.5460120000000 1.0
C      1  0.4456860000000  0.4782650000000  0.5228810000000 1.0
C      1  0.5508330000000  0.4753310000000  0.4186020000000 1.0
C      1  0.4480760000000  0.5510910000000  0.5742650000000 1.0
C      1  0.5976440000000  0.5270730000000  0.5406380000000 1.0
C      1  0.4643930000000  0.4151990000000  0.4679640000000 1.0
C      1  0.4054890000000  0.5404310000000  0.5575160000000 1.0
C      1  0.5502970000000  0.5249720000000  0.5407490000000 1.0
C      1  0.4673620000000  0.4734750000000  0.4111340000000 1.0
C      1  0.5375210000000  0.5154580000000  0.4472550000000 1.0
C      1  0.5636490000000  0.5909800000000  0.4800610000000 1.0
C      1  0.3985640000000  0.5505890000000  0.5356330000000 1.0
C      1  0.5177630000000  0.5214420000000  0.5419490000000 1.0
C      1  0.4912210000000  0.4615860000000  0.3962780000000 1.0
C      1  0.4686490000000  0.4927130000000  0.5433970000000 1.0
C      1  0.4194550000000  0.4631870000000  0.4232650000000 1.0
C      1  0.5211290000000  0.4100340000000  0.4393450000000 1.0
C      1  0.4911120000000  0.5329120000000  0.4461400000000 1.0
C      1  0.5082580000000  0.5747190000000  0.5691360000000 1.0
C      1  0.5919000000000  0.4694460000000  0.5350610000000 1.0
C      1  0.5545910000000  0.5739760000000  0.5054400000000 1.0
C      1  0.4766580000000  0.5219170000000  0.4700020000000 1.0
C      1  0.4308720000000  0.4341160000000  0.5448970000000 1.0
C      1  0.5426580000000  0.5158020000000  0.5839620000000 1.0
C      1  0.4582280000000  0.5227580000000  0.5900040000000 1.0
C      1  0.4133310000000  0.4710230000000  0.5143550000000 1.0
C      1  0.5305180000000  0.3999110000000  0.4890180000000 1.0
C      1  0.4274450000000  0.5801490000000  0.4748280000000 1.0
C      1  0.4435420000000  0.5286800000000  0.4737360000000 1.0
C      1  0.4778050000000  0.5655430000000  0.5277460000000 1.0
C      1  0.5086670000000  0.5301330000000  0.5981820000000 1.0
C      1  0.4856180000000  0.5431720000000  0.5510400000000 1.0
C      1  0.4963760000000  0.5835350000000  0.4314370000000 1.0
C      1  0.5248440000000  0.5223200000000  0.4766870000000 1.0
C      1  0.4951730000000  0.5022300000000  0.3964040000000 1.0
C      1  0.5815690000000  0.5565280000000  0.5461790000000 1.0
C      1  0.5413620000000  0.4576800000000  0.5194850000000 1.0
C      1  0.5414510000000  0.4058060000000  0.4611500000000 1.0
C      1  0.5277430000000  0.4832190000000  0.5464210000000 1.0
C      1  0.4530180000000  0.4393550000000  0.5647710000000 1.0
C      1  0.5011750000000  0.5229610000000  0.5010900000000 1.0
C      1  0.3949990000000  0.5460510000000  0.4762690000000 1.0
C      1  0.5673440000000  0.5263020000000  0.4573430000000 1.0
C      1  0.5710980000000  0.4109020000000  0.4522970000000 1.0
C      1  0.5374780000000  0.5063280000000  0.5009690000000 1.0
C      1  0.5558670000000  0.4472180000000  0.4244010000000 1.0
C      1  0.4805630000000  0.5029760000000  0.6063220000000 1.0
C      1  0.4498950000000  0.5963080000000  0.4596100000000 1.0
C      1  0.3918440000000  0.4933850000000  0.5234920000000 1.0
C      1  0.5037100000000  0.4042190000000  0.4933630000000 1.0
C      1  0.4868950000000  0.4194510000000  0.5318940000000 1.0
C      1  0.3848200000000  0.4745420000000  0.4767200000000 1.0
C      1  0.4348020000000  0.5099960000000  0.4221290000000 1.0
C      1  0.4315810000000  0.5406870000000  0.4174670000000 1.0
C      1  0.4673750000000  0.4477630000000  0.4910760000000 1.0
C      1  0.6119840000000  0.5260260000000  0.4839160000000 1.0
C      1  0.4081170000000  0.5671560000000  0.4896220000000 1.0
C      1  0.4497010000000  0.4582950000000  0.5856260000000 1.0
C      1  0.4582740000000  0.5720550000000  0.5548050000000 1.0
C      1  0.5324590000000  0.5574340000000  0.4941150000000 1.0
C      1  0.6126620000000  0.5187030000000  0.5125470000000 1.0
C      1  0.5803080000000  0.4540440000000  0.4774950000000 1.0
C      1  0.5334230000000  0.4764400000000  0.4934070000000 1.0
C      1  0.5180240000000  0.5526220000000  0.5466210000000 1.0
C      1  0.5513770000000  0.4958470000000  0.5582600000000 1.0
C      1  0.6031660000000  0.4792540000000  0.4790830000000 1.0
C      1  0.5074790000000  0.4446130000000  0.4727380000000 1.0
C      1  0.5076110000000  0.4624530000000  0.5196980000000 1.0
C      1  0.4436510000000  0.4271380000000  0.4921550000000 1.0
C      1  0.5388670000000  0.4106220000000  0.5342620000000 1.0
C      1  0.4469620000000  0.5040860000000  0.4504760000000 1.0
C      1  0.5761770000000  0.5525510000000  0.5041650000000 1.0
C      1  0.5121800000000  0.4025950000000  0.5393990000000 1.0
C      1  0.5929330000000  0.4489070000000  0.5086670000000 1.0
C      1  0.5559110000000  0.4400430000000  0.4966160000000 1.0
C      1  0.5511820000000  0.4689450000000  0.4676350000000 1.0
C      1  0.5033410000000  0.5599480000000  0.4549270000000 1.0
C      1  0.5803490000000  0.5753590000000  0.4635930000000 1.0
C      1  0.4418400000000  0.5319040000000  0.5083240000000 1.0
C      1  0.4344140000000  0.5242770000000  0.5579630000000 1.0
C      1  0.4186280000000  0.5102530000000  0.5110720000000 1.0
C      1  0.5054030000000  0.4508020000000  0.4225980000000 1.0
C      1  0.4203730000000  0.4401290000000  0.4782070000000 1.0
C      1  0.5448020000000  0.6127130000000  0.5070920000000 1.0
C      1  0.5367020000000  0.4382730000000  0.4701490000000 1.0
C      1  0.4720900000000  0.4845320000000  0.4422160000000 1.0
C      1  0.5142410000000  0.5920070000000  0.5410970000000 1.0
C      1  0.4984390000000  0.4355280000000  0.6166080000000 1.0
C      1  0.4099080000000  0.5240490000000  0.4718500000000 1.0
C      1  0.4772250000000  0.4393800000000  0.5515500000000 1.0
C      1  0.4911500000000  0.4673800000000  0.5467950000000 1.0
C      1  0.5045940000000  0.4765930000000  0.4786390000000 1.0
C      1  0.5381140000000  0.5646220000000  0.4357430000000 1.0
C      1  0.5314460000000  0.5509450000000  0.4645630000000 1.0
C      1  0.4744190000000  0.4719740000000  0.5944840000000 1.0
C      1  0.6152120000000  0.5019900000000  0.4677790000000 1.0
C      1  0.5606900000000  0.5014760000000  0.4766020000000 1.0
C      1  0.4402280000000  0.5583430000000  0.4572830000000 1.0
C      1  0.4837800000000  0.4962060000000  0.4893070000000 1.0
C      1  0.5439070000000  0.4940340000000  0.3956210000000 1.0
C      1  0.5010610000000  0.5569950000000  0.5049550000000 1.0
END
