TITL C-2848509-3138-158 -0.00265488658880099 125000 -858.779347348242 0 0 163 (C1) n - 1
REM
REM in /home/bkarasulu/work/CARBON/AIRSS/Generating-Clusters/AIREBO/with-SteepDescent/Only-C1/SD-CG-opt/Try1-1.4A-POS3A/HFTN-CG
REM
REM
REM
REM
REM
REM ./C.cell (11c1c37f851c82e70ff6c80c92926a4b)
REM
REM compiler GCC version 9.2.1 20190827 (Red Hat 9.2.1-1)
REM options -cpp -mtune=generic -march=x86-64 -g -O0 -fpre-include=/usr/include/finclude/math-vector-fortran.h
REM seed -1247702467 507818994 -1800320532 -37977517 -1667534467 1792593818 -1125406377 -853811681 -2102881318 -481931970 -148714379 2016708880 -1832060432 1170965038 -1907092853 1106065091 -1902325287 669306314 1800813840 310090606 779307081 1567382181 708478503 673748633 688366968 -2091985434 221267044 -453466928 2010671686 2014979041 675561073 110076370 1713110746
REM
CELL 1.54180   50.00000   50.00000   50.00000   90.00000   90.00000   90.00000
LATT -1
SFAC C  
C      1  0.5869120000000  0.4687810000000  0.4896890000000 1.0
C      1  0.5720710000000  0.4504750000000  0.4678890000000 1.0
C      1  0.4707800000000  0.5252540000000  0.5106490000000 1.0
C      1  0.4572310000000  0.5678070000000  0.4972810000000 1.0
C      1  0.5747690000000  0.5620870000000  0.4505600000000 1.0
C      1  0.4773150000000  0.4429780000000  0.5312450000000 1.0
C      1  0.5869230000000  0.5481760000000  0.5251480000000 1.0
C      1  0.4349320000000  0.5279610000000  0.5711810000000 1.0
C      1  0.5671700000000  0.5193150000000  0.4211530000000 1.0
C      1  0.5379160000000  0.4729320000000  0.4977210000000 1.0
C      1  0.4906790000000  0.5165880000000  0.5858230000000 1.0
C      1  0.4377760000000  0.5109450000000  0.5436260000000 1.0
C      1  0.5652090000000  0.4913280000000  0.5299200000000 1.0
C      1  0.5370650000000  0.4097790000000  0.4696140000000 1.0
C      1  0.4120420000000  0.5409980000000  0.5015480000000 1.0
C      1  0.5249560000000  0.4301120000000  0.5988440000000 1.0
C      1  0.4194530000000  0.4284110000000  0.4754130000000 1.0
C      1  0.5949490000000  0.5033080000000  0.4595030000000 1.0
C      1  0.5357030000000  0.5050290000000  0.4982380000000 1.0
C      1  0.5214140000000  0.4831070000000  0.4627430000000 1.0
C      1  0.5168510000000  0.5224370000000  0.5648580000000 1.0
C      1  0.5263260000000  0.5060690000000  0.5998020000000 1.0
C      1  0.4491850000000  0.4177650000000  0.4678480000000 1.0
C      1  0.5089600000000  0.4936560000000  0.5277750000000 1.0
C      1  0.5116730000000  0.5584970000000  0.5809590000000 1.0
C      1  0.5159230000000  0.4897810000000  0.5706980000000 1.0
C      1  0.4807470000000  0.5070920000000  0.4571010000000 1.0
C      1  0.4558830000000  0.5050390000000  0.4374420000000 1.0
C      1  0.5281020000000  0.4405180000000  0.4933930000000 1.0
C      1  0.4576480000000  0.4328850000000  0.5053950000000 1.0
C      1  0.4530050000000  0.4553680000000  0.4803150000000 1.0
C      1  0.4032560000000  0.5516000000000  0.4731240000000 1.0
C      1  0.4285760000000  0.4702590000000  0.5610430000000 1.0
C      1  0.4570600000000  0.5674530000000  0.4109440000000 1.0
C      1  0.5702890000000  0.5599580000000  0.4979270000000 1.0
C      1  0.4416860000000  0.5720980000000  0.4687700000000 1.0
C      1  0.5779230000000  0.5285650000000  0.5709420000000 1.0
C      1  0.4257940000000  0.4409350000000  0.5471750000000 1.0
C      1  0.5527210000000  0.5220090000000  0.5222310000000 1.0
C      1  0.5637580000000  0.4861050000000  0.4282540000000 1.0
C      1  0.5742320000000  0.5972470000000  0.5349400000000 1.0
C      1  0.5194660000000  0.3975680000000  0.4962760000000 1.0
C      1  0.4715860000000  0.4391200000000  0.5964880000000 1.0
C      1  0.4810060000000  0.4079600000000  0.4588030000000 1.0
C      1  0.4742180000000  0.5474770000000  0.4408460000000 1.0
C      1  0.5786930000000  0.4346130000000  0.5271570000000 1.0
C      1  0.4141700000000  0.5008240000000  0.5651750000000 1.0
C      1  0.4572060000000  0.5196840000000  0.5909200000000 1.0
C      1  0.4308700000000  0.5624920000000  0.4203790000000 1.0
C      1  0.4412670000000  0.4587960000000  0.4306790000000 1.0
C      1  0.5074020000000  0.4257920000000  0.4707260000000 1.0
C      1  0.5419420000000  0.5204900000000  0.3999010000000 1.0
C      1  0.5086170000000  0.4329040000000  0.5399260000000 1.0
C      1  0.5269160000000  0.5568710000000  0.4875970000000 1.0
C      1  0.5578820000000  0.5744410000000  0.4697720000000 1.0
C      1  0.4991820000000  0.5415140000000  0.5199020000000 1.0
C      1  0.5409750000000  0.4700180000000  0.5314810000000 1.0
C      1  0.5764190000000  0.5527610000000  0.5511370000000 1.0
C      1  0.4141690000000  0.4947360000000  0.4806650000000 1.0
C      1  0.5596050000000  0.4655200000000  0.5596710000000 1.0
C      1  0.5376610000000  0.5614280000000  0.4171530000000 1.0
C      1  0.4488840000000  0.4931920000000  0.4103290000000 1.0
C      1  0.5705080000000  0.5320520000000  0.4766190000000 1.0
C      1  0.4998010000000  0.4209080000000  0.5910790000000 1.0
C      1  0.5156430000000  0.4660360000000  0.4116010000000 1.0
C      1  0.5067200000000  0.4493110000000  0.4472960000000 1.0
C      1  0.4769460000000  0.5430970000000  0.4091770000000 1.0
C      1  0.5936570000000  0.4952070000000  0.4859580000000 1.0
C      1  0.5762830000000  0.4636510000000  0.5143870000000 1.0
C      1  0.5385670000000  0.4376760000000  0.4500180000000 1.0
C      1  0.4832090000000  0.4938570000000  0.5065370000000 1.0
C      1  0.4897010000000  0.4880160000000  0.4113980000000 1.0
C      1  0.4679440000000  0.5175770000000  0.5424510000000 1.0
C      1  0.5497950000000  0.5211620000000  0.5564940000000 1.0
C      1  0.5024710000000  0.5388420000000  0.4870730000000 1.0
C      1  0.4948390000000  0.6021220000000  0.4996840000000 1.0
C      1  0.4204530000000  0.4623310000000  0.4775700000000 1.0
C      1  0.4450640000000  0.5907830000000  0.4498830000000 1.0
C      1  0.5718110000000  0.4081760000000  0.5075750000000 1.0
C      1  0.5826830000000  0.5203130000000  0.5061240000000 1.0
C      1  0.5977040000000  0.5483410000000  0.4643190000000 1.0
C      1  0.5420480000000  0.5531160000000  0.5135460000000 1.0
C      1  0.4914210000000  0.3858830000000  0.4810020000000 1.0
C      1  0.4934890000000  0.4787080000000  0.4438790000000 1.0
C      1  0.4406280000000  0.4273030000000  0.5327170000000 1.0
C      1  0.5183290000000  0.5146110000000  0.4751960000000 1.0
C      1  0.5333640000000  0.5720440000000  0.5355710000000 1.0
C      1  0.5419290000000  0.3983320000000  0.5218090000000 1.0
C      1  0.5620220000000  0.5089330000000  0.4531540000000 1.0
C      1  0.4170620000000  0.5458980000000  0.4425780000000 1.0
C      1  0.4398250000000  0.5507890000000  0.5460930000000 1.0
C      1  0.4885540000000  0.4054670000000  0.5403570000000 1.0
C      1  0.4195750000000  0.4889840000000  0.4108590000000 1.0
C      1  0.5940120000000  0.4822600000000  0.5445360000000 1.0
C      1  0.4862630000000  0.5800910000000  0.4219740000000 1.0
C      1  0.4922160000000  0.4131600000000  0.5093310000000 1.0
C      1  0.4670290000000  0.4850920000000  0.4791160000000 1.0
C      1  0.4086410000000  0.4991480000000  0.5311980000000 1.0
C      1  0.4710000000000  0.5878380000000  0.5161740000000 1.0
C      1  0.4653960000000  0.5268450000000  0.4781020000000 1.0
C      1  0.5126550000000  0.4588400000000  0.5742470000000 1.0
C      1  0.4431190000000  0.5447470000000  0.5141580000000 1.0
C      1  0.4982080000000  0.5839690000000  0.4725100000000 1.0
C      1  0.4744170000000  0.4426720000000  0.5631930000000 1.0
C      1  0.4033890000000  0.4489320000000  0.5010120000000 1.0
C      1  0.4695840000000  0.4737400000000  0.5294920000000 1.0
C      1  0.4994340000000  0.4914170000000  0.6070580000000 1.0
C      1  0.4412330000000  0.4888190000000  0.4983900000000 1.0
C      1  0.4227130000000  0.4373510000000  0.4441580000000 1.0
C      1  0.4390130000000  0.4738930000000  0.5288650000000 1.0
C      1  0.5108530000000  0.5623590000000  0.4351690000000 1.0
C      1  0.6074610000000  0.5377310000000  0.4903310000000 1.0
C      1  0.5074530000000  0.5921510000000  0.5268230000000 1.0
C      1  0.5125130000000  0.4632970000000  0.5414060000000 1.0
C      1  0.4062000000000  0.4666150000000  0.5236980000000 1.0
C      1  0.4818980000000  0.5852550000000  0.5482060000000 1.0
C      1  0.4478580000000  0.4608440000000  0.5874390000000 1.0
C      1  0.4642180000000  0.4658910000000  0.4064650000000 1.0
C      1  0.5046470000000  0.4727410000000  0.4907030000000 1.0
C      1  0.5013870000000  0.5306040000000  0.4430770000000 1.0
C      1  0.4866830000000  0.4913860000000  0.5533600000000 1.0
C      1  0.4032270000000  0.5122250000000  0.5047380000000 1.0
C      1  0.5030550000000  0.4053820000000  0.5679980000000 1.0
C      1  0.4650580000000  0.5998940000000  0.4328540000000 1.0
C      1  0.5322700000000  0.4138750000000  0.5504580000000 1.0
C      1  0.4898920000000  0.6159760000000  0.4708040000000 1.0
C      1  0.4972620000000  0.4450400000000  0.5037810000000 1.0
C      1  0.4183310000000  0.5827370000000  0.5353900000000 1.0
C      1  0.5303420000000  0.5172510000000  0.4440210000000 1.0
C      1  0.4498470000000  0.4914740000000  0.6023540000000 1.0
C      1  0.4905670000000  0.4481250000000  0.4107350000000 1.0
C      1  0.4860230000000  0.4278690000000  0.4336520000000 1.0
C      1  0.4889840000000  0.5203040000000  0.4007370000000 1.0
C      1  0.5176710000000  0.5079090000000  0.4141420000000 1.0
C      1  0.5646310000000  0.4227300000000  0.4789400000000 1.0
C      1  0.5473210000000  0.4304430000000  0.5141060000000 1.0
C      1  0.5297330000000  0.5368520000000  0.5928440000000 1.0
C      1  0.5348350000000  0.4735020000000  0.4329900000000 1.0
C      1  0.5046380000000  0.5605360000000  0.5477550000000 1.0
C      1  0.5882530000000  0.4531590000000  0.5510240000000 1.0
C      1  0.5403190000000  0.4404220000000  0.5705450000000 1.0
C      1  0.5634010000000  0.4545270000000  0.4361910000000 1.0
C      1  0.5616280000000  0.5510200000000  0.4290550000000 1.0
C      1  0.4647540000000  0.4024780000000  0.4942250000000 1.0
C      1  0.6031490000000  0.5037940000000  0.5276850000000 1.0
C      1  0.4617970000000  0.4420340000000  0.4508300000000 1.0
C      1  0.4636480000000  0.4850370000000  0.5731060000000 1.0
C      1  0.5667450000000  0.4962770000000  0.5695380000000 1.0
C      1  0.5546760000000  0.4796830000000  0.4689160000000 1.0
C      1  0.4940520000000  0.4646100000000  0.5979880000000 1.0
C      1  0.5198540000000  0.5213840000000  0.5309970000000 1.0
C      1  0.4175140000000  0.5149950000000  0.4567710000000 1.0
C      1  0.4787380000000  0.5576900000000  0.4729630000000 1.0
C      1  0.4071450000000  0.5636350000000  0.5238740000000 1.0
C      1  0.4850630000000  0.5464370000000  0.5796300000000 1.0
C      1  0.4685580000000  0.5452310000000  0.5582130000000 1.0
C      1  0.4303090000000  0.4871950000000  0.4448810000000 1.0
C      1  0.4402040000000  0.5387950000000  0.4659940000000 1.0
C      1  0.5268760000000  0.5761950000000  0.4617390000000 1.0
C      1  0.4494350000000  0.5824230000000  0.5413500000000 1.0
C      1  0.5602280000000  0.5768930000000  0.5494590000000 1.0
C      1  0.5362300000000  0.5467470000000  0.3925400000000 1.0
C      1  0.5792030000000  0.5910950000000  0.5082880000000 1.0
END
