TITL C-2847958-8115-456 -0.00285198016542896 125000 -795.048656858207 0 0 140 (C1) n - 1
REM
REM in /home/bkarasulu/work/CARBON/AIRSS/Generating-Clusters/AIREBO/with-SteepDescent/Only-C1/SD-CG-opt/Try1-1.4A-POS3A/HFTN-CG
REM
REM
REM
REM
REM
REM ./C.cell (11c1c37f851c82e70ff6c80c92926a4b)
REM
REM compiler GCC version 9.2.1 20190827 (Red Hat 9.2.1-1)
REM options -cpp -mtune=generic -march=x86-64 -g -O0 -fpre-include=/usr/include/finclude/math-vector-fortran.h
REM seed 958610557 516701780 -857774680 -1980170560 -984958292 -1597474048 257834626 95187747 1249924086 657978199 753772751 1005595476 -680688085 893336008 -1112998868 -532450855 -1838076140 1811942214 -787227629 -637351026 1269593702 -962252026 42520526 -724876519 -1099433924 865060219 -1678634569 1826521391 -1040560369 493576726 -393792633 -2027027098 1120813857
REM
CELL 1.54180   50.00000   50.00000   50.00000   90.00000   90.00000   90.00000
LATT -1
SFAC C  
C      1  0.5998010000000  0.5043800000000  0.4814590000000 1.0
C      1  0.4772710000000  0.5203990000000  0.5824160000000 1.0
C      1  0.4806410000000  0.4456490000000  0.4726200000000 1.0
C      1  0.5151410000000  0.4350690000000  0.4559990000000 1.0
C      1  0.5470070000000  0.5196890000000  0.4867460000000 1.0
C      1  0.4211050000000  0.5521550000000  0.5353470000000 1.0
C      1  0.4256330000000  0.5153680000000  0.4240770000000 1.0
C      1  0.5097250000000  0.5201350000000  0.6050810000000 1.0
C      1  0.5609450000000  0.4634360000000  0.5221290000000 1.0
C      1  0.4949250000000  0.5155730000000  0.4418640000000 1.0
C      1  0.4562420000000  0.4725160000000  0.4172120000000 1.0
C      1  0.5009530000000  0.4933670000000  0.5019550000000 1.0
C      1  0.4687780000000  0.5363230000000  0.4352950000000 1.0
C      1  0.5468300000000  0.4650650000000  0.5602140000000 1.0
C      1  0.4470030000000  0.4779150000000  0.5818680000000 1.0
C      1  0.5357630000000  0.4872050000000  0.4193630000000 1.0
C      1  0.4739370000000  0.5101600000000  0.4647710000000 1.0
C      1  0.5303980000000  0.5453070000000  0.5313550000000 1.0
C      1  0.4100490000000  0.4942110000000  0.5360670000000 1.0
C      1  0.5557820000000  0.5538480000000  0.4679290000000 1.0
C      1  0.5572320000000  0.4577440000000  0.4648540000000 1.0
C      1  0.4480950000000  0.5314140000000  0.5739030000000 1.0
C      1  0.4348590000000  0.4842780000000  0.5145510000000 1.0
C      1  0.4215970000000  0.5356240000000  0.4832440000000 1.0
C      1  0.4644610000000  0.4719380000000  0.5467320000000 1.0
C      1  0.5614720000000  0.4354220000000  0.5521300000000 1.0
C      1  0.5267960000000  0.5212940000000  0.4379910000000 1.0
C      1  0.4515270000000  0.4447730000000  0.4556630000000 1.0
C      1  0.4499690000000  0.5063540000000  0.5970290000000 1.0
C      1  0.4496950000000  0.5851660000000  0.4517970000000 1.0
C      1  0.5284450000000  0.4784690000000  0.5044800000000 1.0
C      1  0.5136280000000  0.4494900000000  0.4942130000000 1.0
C      1  0.5677600000000  0.5898030000000  0.4971260000000 1.0
C      1  0.5572430000000  0.5153240000000  0.5753340000000 1.0
C      1  0.4818070000000  0.4495580000000  0.5308900000000 1.0
C      1  0.5988380000000  0.5213600000000  0.5091160000000 1.0
C      1  0.5214070000000  0.5923320000000  0.4705780000000 1.0
C      1  0.4796660000000  0.4166520000000  0.4560060000000 1.0
C      1  0.4915420000000  0.4110450000000  0.5400250000000 1.0
C      1  0.5708100000000  0.5579290000000  0.5349900000000 1.0
C      1  0.4610890000000  0.5568460000000  0.5062870000000 1.0
C      1  0.4833430000000  0.4368160000000  0.5030670000000 1.0
C      1  0.5064970000000  0.5736910000000  0.4932960000000 1.0
C      1  0.4916220000000  0.5217750000000  0.5130280000000 1.0
C      1  0.5185170000000  0.4209810000000  0.5703920000000 1.0
C      1  0.5249610000000  0.4899220000000  0.4515010000000 1.0
C      1  0.4444010000000  0.5860850000000  0.4854250000000 1.0
C      1  0.4504680000000  0.4995440000000  0.4459670000000 1.0
C      1  0.5257220000000  0.4139590000000  0.4804650000000 1.0
C      1  0.5515420000000  0.5367950000000  0.4412000000000 1.0
C      1  0.4755620000000  0.4607430000000  0.5876250000000 1.0
C      1  0.4916610000000  0.5592660000000  0.5576000000000 1.0
C      1  0.4583750000000  0.4440440000000  0.5642150000000 1.0
C      1  0.5019450000000  0.5348890000000  0.4861290000000 1.0
C      1  0.4106680000000  0.5024540000000  0.4472490000000 1.0
C      1  0.5552400000000  0.4162030000000  0.4974350000000 1.0
C      1  0.4550970000000  0.5039640000000  0.4128410000000 1.0
C      1  0.5481230000000  0.5417860000000  0.5799090000000 1.0
C      1  0.4518300000000  0.5016140000000  0.5579430000000 1.0
C      1  0.4037720000000  0.5227820000000  0.5380610000000 1.0
C      1  0.5011140000000  0.3981620000000  0.4670160000000 1.0
C      1  0.5444520000000  0.4874040000000  0.4758440000000 1.0
C      1  0.4897230000000  0.4406160000000  0.4340780000000 1.0
C      1  0.4377310000000  0.5225060000000  0.5363740000000 1.0
C      1  0.5755600000000  0.5645060000000  0.5070170000000 1.0
C      1  0.4758640000000  0.5836170000000  0.4982030000000 1.0
C      1  0.4647130000000  0.5004470000000  0.5169060000000 1.0
C      1  0.4321410000000  0.5669830000000  0.5108420000000 1.0
C      1  0.4698580000000  0.5489930000000  0.5335940000000 1.0
C      1  0.5750120000000  0.4798430000000  0.5482080000000 1.0
C      1  0.5071480000000  0.4399650000000  0.5451500000000 1.0
C      1  0.4900000000000  0.3834110000000  0.4883340000000 1.0
C      1  0.4425520000000  0.5405360000000  0.4302940000000 1.0
C      1  0.5923280000000  0.5232540000000  0.4594940000000 1.0
C      1  0.5888540000000  0.4790100000000  0.4784190000000 1.0
C      1  0.5468920000000  0.5602330000000  0.5560160000000 1.0
C      1  0.5181720000000  0.5771600000000  0.5517120000000 1.0
C      1  0.5781090000000  0.4754020000000  0.4500010000000 1.0
C      1  0.4264740000000  0.5603450000000  0.4722720000000 1.0
C      1  0.5115940000000  0.4963590000000  0.5854550000000 1.0
C      1  0.4849910000000  0.4846450000000  0.4792300000000 1.0
C      1  0.5356960000000  0.5078000000000  0.3923050000000 1.0
C      1  0.4547730000000  0.4757670000000  0.4692600000000 1.0
C      1  0.4627440000000  0.5333920000000  0.4833600000000 1.0
C      1  0.4404210000000  0.4245120000000  0.5010730000000 1.0
C      1  0.4267610000000  0.4714910000000  0.4848740000000 1.0
C      1  0.4184370000000  0.4766610000000  0.4529760000000 1.0
C      1  0.4510570000000  0.4191920000000  0.4750180000000 1.0
C      1  0.4969350000000  0.5446020000000  0.4088160000000 1.0
C      1  0.5188220000000  0.4210500000000  0.5121180000000 1.0
C      1  0.5290990000000  0.5489720000000  0.4868510000000 1.0
C      1  0.4836340000000  0.4647820000000  0.4211240000000 1.0
C      1  0.5239170000000  0.4495490000000  0.5799930000000 1.0
C      1  0.5486790000000  0.5268980000000  0.5186530000000 1.0
C      1  0.4698760000000  0.5960540000000  0.5292770000000 1.0
C      1  0.5415840000000  0.4924760000000  0.5796550000000 1.0
C      1  0.5275340000000  0.5452890000000  0.5979240000000 1.0
C      1  0.5747590000000  0.5195640000000  0.4378880000000 1.0
C      1  0.5248970000000  0.4045170000000  0.5412020000000 1.0
C      1  0.5206740000000  0.5265570000000  0.4081400000000 1.0
C      1  0.5398440000000  0.5946330000000  0.4961680000000 1.0
C      1  0.4614840000000  0.4176110000000  0.5515630000000 1.0
C      1  0.5800690000000  0.4594270000000  0.4975000000000 1.0
C      1  0.4965680000000  0.5087020000000  0.5594460000000 1.0
C      1  0.5669660000000  0.4935280000000  0.4320690000000 1.0
C      1  0.5028550000000  0.4667080000000  0.5880010000000 1.0
C      1  0.5233380000000  0.4756760000000  0.5379940000000 1.0
C      1  0.5257260000000  0.5769470000000  0.5197960000000 1.0
C      1  0.5036870000000  0.5328930000000  0.5398090000000 1.0
C      1  0.5411060000000  0.4438670000000  0.4434460000000 1.0
C      1  0.5402470000000  0.4552280000000  0.4182450000000 1.0
C      1  0.4038890000000  0.5191070000000  0.4688710000000 1.0
C      1  0.5766920000000  0.5362430000000  0.4880280000000 1.0
C      1  0.5547610000000  0.4126380000000  0.5277530000000 1.0
C      1  0.4560710000000  0.4144500000000  0.5218890000000 1.0
C      1  0.5466690000000  0.5689750000000  0.4399370000000 1.0
C      1  0.4847000000000  0.5484280000000  0.4621910000000 1.0
C      1  0.5769690000000  0.5098390000000  0.5565140000000 1.0
C      1  0.4830280000000  0.4034250000000  0.5095960000000 1.0
C      1  0.5040640000000  0.4669870000000  0.4602400000000 1.0
C      1  0.4309010000000  0.5628710000000  0.4425710000000 1.0
C      1  0.4415950000000  0.5220890000000  0.5044850000000 1.0
C      1  0.4827540000000  0.5153750000000  0.4042730000000 1.0
C      1  0.4465860000000  0.5555600000000  0.5567610000000 1.0
C      1  0.4284030000000  0.4568400000000  0.5626560000000 1.0
C      1  0.5777170000000  0.5275470000000  0.5329120000000 1.0
C      1  0.4952730000000  0.5466150000000  0.5883580000000 1.0
C      1  0.4372000000000  0.4630850000000  0.4357560000000 1.0
C      1  0.5710540000000  0.4349160000000  0.4845280000000 1.0
C      1  0.5547330000000  0.4956160000000  0.5176000000000 1.0
C      1  0.4180610000000  0.4623660000000  0.5344360000000 1.0
C      1  0.4243340000000  0.4469750000000  0.5059260000000 1.0
C      1  0.5219290000000  0.5813170000000  0.4448760000000 1.0
C      1  0.4961520000000  0.5653560000000  0.4350190000000 1.0
C      1  0.5020090000000  0.4914580000000  0.4189400000000 1.0
C      1  0.4673400000000  0.5827770000000  0.5540540000000 1.0
C      1  0.4913350000000  0.4880980000000  0.5341420000000 1.0
C      1  0.4725870000000  0.5872560000000  0.4378130000000 1.0
C      1  0.5885410000000  0.4917420000000  0.5193710000000 1.0
C      1  0.5339690000000  0.4464100000000  0.5274470000000 1.0
END
