TITL C-2847955-7945-273 0.000168752048029906 125000 -567.297535862314 0 0 104 (C1) n - 1
REM
REM in /home/bkarasulu/work/CARBON/AIRSS/Generating-Clusters/AIREBO/with-SteepDescent/Only-C1/SD-CG-opt/Try1-1.4A-POS3A/HFTN-CG
REM
REM
REM
REM
REM
REM ./C.cell (11c1c37f851c82e70ff6c80c92926a4b)
REM
REM compiler GCC version 9.2.1 20190827 (Red Hat 9.2.1-1)
REM options -cpp -mtune=generic -march=x86-64 -g -O0 -fpre-include=/usr/include/finclude/math-vector-fortran.h
REM seed -1268790430 -1424675541 -1425139105 1380518378 230008728 731549052 704351357 125489608 346943644 -1334458990 -156050462 -1774914086 -1065691079 182103681 -2074883598 -441155132 51820631 1494243760 -1505760098 1894338048 1143851874 -1718063896 -1344417218 2081819257 1595664785 1086117334 852236903 -1748935285 -1281010616 -945075973 -1114056309 -1360686487 54714835
REM
CELL 1.54180   50.00000   50.00000   50.00000   90.00000   90.00000   90.00000
LATT -1
SFAC C  
C      1  0.4582610000000  0.4918330000000  0.5535740000000 1.0
C      1  0.5458560000000  0.5662710000000  0.4692520000000 1.0
C      1  0.5711200000000  0.5436160000000  0.4712120000000 1.0
C      1  0.5689690000000  0.5286230000000  0.5227170000000 1.0
C      1  0.5492680000000  0.4065650000000  0.5389770000000 1.0
C      1  0.5545330000000  0.4730170000000  0.5197860000000 1.0
C      1  0.4920470000000  0.4953720000000  0.5519410000000 1.0
C      1  0.5133500000000  0.4412620000000  0.5516560000000 1.0
C      1  0.5515660000000  0.5525050000000  0.5655680000000 1.0
C      1  0.5084670000000  0.4891630000000  0.5919380000000 1.0
C      1  0.5603200000000  0.4699400000000  0.4437680000000 1.0
C      1  0.5189030000000  0.5526570000000  0.4848880000000 1.0
C      1  0.4749810000000  0.5348310000000  0.4713380000000 1.0
C      1  0.5275460000000  0.4093290000000  0.4865280000000 1.0
C      1  0.4920250000000  0.5270810000000  0.5275790000000 1.0
C      1  0.4317930000000  0.5163240000000  0.4491740000000 1.0
C      1  0.5651550000000  0.4958910000000  0.4322430000000 1.0
C      1  0.5254610000000  0.5912260000000  0.4801060000000 1.0
C      1  0.4999700000000  0.5465740000000  0.4286940000000 1.0
C      1  0.4994820000000  0.5829110000000  0.5350350000000 1.0
C      1  0.5313910000000  0.4757570000000  0.4728860000000 1.0
C      1  0.4496160000000  0.4870670000000  0.4792780000000 1.0
C      1  0.4434400000000  0.5694770000000  0.4724100000000 1.0
C      1  0.5354520000000  0.5721580000000  0.5069340000000 1.0
C      1  0.4688270000000  0.5785150000000  0.4699880000000 1.0
C      1  0.5394040000000  0.4846920000000  0.5806040000000 1.0
C      1  0.4130530000000  0.4968010000000  0.4666490000000 1.0
C      1  0.5833560000000  0.5378480000000  0.4957880000000 1.0
C      1  0.4756220000000  0.4161690000000  0.4834110000000 1.0
C      1  0.5162490000000  0.5147990000000  0.4464780000000 1.0
C      1  0.5010220000000  0.4212330000000  0.5267220000000 1.0
C      1  0.5369270000000  0.5160190000000  0.4123070000000 1.0
C      1  0.4898330000000  0.5523670000000  0.4917400000000 1.0
C      1  0.4712610000000  0.4668530000000  0.5726370000000 1.0
C      1  0.5609350000000  0.5624360000000  0.5871780000000 1.0
C      1  0.4184600000000  0.5219720000000  0.4889020000000 1.0
C      1  0.4486240000000  0.5181330000000  0.5675650000000 1.0
C      1  0.4242340000000  0.4675430000000  0.4735060000000 1.0
C      1  0.4994460000000  0.5881640000000  0.4676130000000 1.0
C      1  0.5536900000000  0.4854330000000  0.4902040000000 1.0
C      1  0.4737360000000  0.5882650000000  0.5247990000000 1.0
C      1  0.5645300000000  0.4976490000000  0.5361840000000 1.0
C      1  0.5673210000000  0.4449760000000  0.5090880000000 1.0
C      1  0.4646070000000  0.5535060000000  0.5770900000000 1.0
C      1  0.5487080000000  0.4196870000000  0.5112000000000 1.0
C      1  0.4284080000000  0.4361670000000  0.4856680000000 1.0
C      1  0.4888270000000  0.5594660000000  0.4524320000000 1.0
C      1  0.4728950000000  0.5544650000000  0.5211640000000 1.0
C      1  0.4433040000000  0.5365360000000  0.4707240000000 1.0
C      1  0.4615920000000  0.5130800000000  0.4331170000000 1.0
C      1  0.4666580000000  0.5041680000000  0.5230120000000 1.0
C      1  0.5713090000000  0.4683680000000  0.4698170000000 1.0
C      1  0.4805290000000  0.4465660000000  0.5568190000000 1.0
C      1  0.5093120000000  0.5077880000000  0.5055490000000 1.0
C      1  0.4719750000000  0.4674930000000  0.4875440000000 1.0
C      1  0.4967580000000  0.5088130000000  0.4737750000000 1.0
C      1  0.4742760000000  0.4714020000000  0.5170240000000 1.0
C      1  0.5364920000000  0.4179230000000  0.5576550000000 1.0
C      1  0.4990770000000  0.4749230000000  0.4753650000000 1.0
C      1  0.4689680000000  0.5263060000000  0.5890370000000 1.0
C      1  0.5573060000000  0.5537310000000  0.4414570000000 1.0
C      1  0.4950900000000  0.5140430000000  0.5869140000000 1.0
C      1  0.5500320000000  0.5006920000000  0.5607460000000 1.0
C      1  0.5280650000000  0.5767040000000  0.5457290000000 1.0
C      1  0.5249950000000  0.4645770000000  0.5298100000000 1.0
C      1  0.5193110000000  0.4595840000000  0.5796970000000 1.0
C      1  0.4436260000000  0.4329790000000  0.5281600000000 1.0
C      1  0.5469060000000  0.5135700000000  0.4933530000000 1.0
C      1  0.4140190000000  0.5159600000000  0.5221070000000 1.0
C      1  0.5353050000000  0.5274230000000  0.5553140000000 1.0
C      1  0.5308760000000  0.5413040000000  0.4308530000000 1.0
C      1  0.4869740000000  0.5220700000000  0.4202430000000 1.0
C      1  0.4435110000000  0.5411300000000  0.5134140000000 1.0
C      1  0.4469230000000  0.5099240000000  0.5003450000000 1.0
C      1  0.5228300000000  0.4402320000000  0.5110580000000 1.0
C      1  0.4305110000000  0.5349380000000  0.5439750000000 1.0
C      1  0.4571600000000  0.5534390000000  0.5511220000000 1.0
C      1  0.5186560000000  0.4480380000000  0.4824320000000 1.0
C      1  0.4469220000000  0.4156100000000  0.4874510000000 1.0
C      1  0.5345280000000  0.5279300000000  0.4703240000000 1.0
C      1  0.4500290000000  0.4537770000000  0.4571290000000 1.0
C      1  0.4228510000000  0.4179100000000  0.5228310000000 1.0
C      1  0.5827000000000  0.4486670000000  0.4867240000000 1.0
C      1  0.5054270000000  0.5236420000000  0.5586390000000 1.0
C      1  0.5357260000000  0.5214840000000  0.5220240000000 1.0
C      1  0.5127310000000  0.5538800000000  0.5244290000000 1.0
C      1  0.5007440000000  0.4468550000000  0.4183640000000 1.0
C      1  0.4989550000000  0.4408530000000  0.4464180000000 1.0
C      1  0.5330000000000  0.4269120000000  0.4609850000000 1.0
C      1  0.5517770000000  0.5563660000000  0.5322980000000 1.0
C      1  0.5025880000000  0.4841190000000  0.5255540000000 1.0
C      1  0.4283030000000  0.4786050000000  0.5475690000000 1.0
C      1  0.4690360000000  0.4970090000000  0.4580120000000 1.0
C      1  0.4999380000000  0.4102740000000  0.4977820000000 1.0
C      1  0.5598890000000  0.5205400000000  0.4489000000000 1.0
C      1  0.4785500000000  0.4416300000000  0.4670430000000 1.0
C      1  0.5289980000000  0.4567180000000  0.4448170000000 1.0
C      1  0.4093530000000  0.4912110000000  0.5322750000000 1.0
C      1  0.4291610000000  0.5631590000000  0.4968250000000 1.0
C      1  0.5166160000000  0.4706810000000  0.4158390000000 1.0
C      1  0.5815220000000  0.4977560000000  0.4102020000000 1.0
C      1  0.5098920000000  0.4989510000000  0.4170740000000 1.0
C      1  0.4668900000000  0.4468980000000  0.5325190000000 1.0
C      1  0.4325810000000  0.5122470000000  0.4154060000000 1.0
END
