TITL C-2847950-6905-68 -1382.15807893021 125000 -964.13191484496 0 0 174 (C1) n - 1
REM
REM in /home/bkarasulu/work/CARBON/AIRSS/Generating-Clusters/AIREBO/with-SteepDescent/Only-C1/SD-CG-opt/Try1-1.4A-POS3A/HFTN-CG
REM
REM
REM
REM
REM
REM ./C.cell (11c1c37f851c82e70ff6c80c92926a4b)
REM
REM compiler GCC version 9.2.1 20190827 (Red Hat 9.2.1-1)
REM options -cpp -mtune=generic -march=x86-64 -g -O0 -fpre-include=/usr/include/finclude/math-vector-fortran.h
REM seed 1314715084 -1199412459 -1525529114 -1393602504 -1039982918 1221602832 152411974 -90959866 1476901845 2018827681 1505955966 -1599137487 1565160486 -1524208868 679194184 761550272 -455302525 1064213746 -387793977 -2059290200 -1638072128 -263891949 1602866899 -2066014108 541391953 280194074 -1109972208 1238901660 -716481908 2138797679 -1000358734 1340624370 653659615
REM
CELL 1.54180   50.00000   50.00000   50.00000   90.00000   90.00000   90.00000
LATT -1
SFAC C  
C      1  0.5688450000000  0.4992310000000  0.4305940000000 1.0
C      1  0.5643740000000  0.4133080000000  0.5095520000000 1.0
C      1  0.5097530000000  0.4988360000000  0.4572530000000 1.0
C      1  0.4187280000000  0.5703140000000  0.5286440000000 1.0
C      1  0.5110420000000  0.5052480000000  0.4100800000000 1.0
C      1  0.4801930000000  0.6077620000000  0.5196960000000 1.0
C      1  0.4938320000000  0.4746980000000  0.4415960000000 1.0
C      1  0.5061920000000  0.5812030000000  0.4266340000000 1.0
C      1  0.4501210000000  0.5315500000000  0.4942110000000 1.0
C      1  0.4917110000000  0.4267350000000  0.4868770000000 1.0
C      1  0.4255860000000  0.4356230000000  0.5512770000000 1.0
C      1  0.4878250000000  0.4578200000000  0.4933270000000 1.0
C      1  0.5054690000000  0.4075460000000  0.5829350000000 1.0
C      1  0.4126720000000  0.4645200000000  0.5502180000000 1.0
C      1  0.4787970000000  0.5692580000000  0.5791080000000 1.0
C      1  0.5292710000000  0.5686220000000  0.4080580000000 1.0
C      1  0.4789410000000  0.4223550000000  0.5779020000000 1.0
C      1  0.5996550000000  0.5392870000000  0.5170370000000 1.0
C      1  0.4466440000000  0.4329840000000  0.5779000000000 1.0
C      1  0.4731650000000  0.3878410000000  0.4594920000000 1.0
C      1  0.5195640000000  0.4799530000000  0.5527180000000 1.0
C      1  0.4537940000000  0.5148410000000  0.3963600000000 1.0
C      1  0.4080200000000  0.4713820000000  0.5238850000000 1.0
C      1  0.5442220000000  0.4494050000000  0.5283550000000 1.0
C      1  0.4351730000000  0.4818570000000  0.4703610000000 1.0
C      1  0.5388100000000  0.5398600000000  0.4201210000000 1.0
C      1  0.5157430000000  0.5307230000000  0.5999350000000 1.0
C      1  0.5889800000000  0.4845270000000  0.5695210000000 1.0
C      1  0.6083920000000  0.4644450000000  0.4927330000000 1.0
C      1  0.4645010000000  0.5070480000000  0.4805180000000 1.0
C      1  0.5803510000000  0.4783370000000  0.4755950000000 1.0
C      1  0.5609040000000  0.5280070000000  0.5733910000000 1.0
C      1  0.5367420000000  0.5898660000000  0.4408470000000 1.0
C      1  0.4832120000000  0.5288500000000  0.5901400000000 1.0
C      1  0.4926300000000  0.5277250000000  0.5472960000000 1.0
C      1  0.5383840000000  0.5279700000000  0.5321020000000 1.0
C      1  0.4523560000000  0.4545090000000  0.5107300000000 1.0
C      1  0.5399570000000  0.4612890000000  0.4234480000000 1.0
C      1  0.5495400000000  0.4387610000000  0.4610510000000 1.0
C      1  0.5560170000000  0.4104800000000  0.5405480000000 1.0
C      1  0.5287620000000  0.4016100000000  0.5229950000000 1.0
C      1  0.4216750000000  0.5174180000000  0.5444600000000 1.0
C      1  0.4593470000000  0.5333220000000  0.4510350000000 1.0
C      1  0.3945050000000  0.5030010000000  0.5036540000000 1.0
C      1  0.4836470000000  0.4910100000000  0.4992910000000 1.0
C      1  0.5252740000000  0.4779420000000  0.5922520000000 1.0
C      1  0.4614870000000  0.4322320000000  0.4315630000000 1.0
C      1  0.5507560000000  0.5126400000000  0.4531380000000 1.0
C      1  0.5670930000000  0.5388520000000  0.5260650000000 1.0
C      1  0.4388690000000  0.4448380000000  0.4159710000000 1.0
C      1  0.5853780000000  0.5130300000000  0.5588060000000 1.0
C      1  0.4962550000000  0.5346850000000  0.4144530000000 1.0
C      1  0.5918460000000  0.4409120000000  0.4804280000000 1.0
C      1  0.4816540000000  0.5218810000000  0.3889660000000 1.0
C      1  0.4710590000000  0.4014180000000  0.5097890000000 1.0
C      1  0.4863460000000  0.4798150000000  0.5500310000000 1.0
C      1  0.3906310000000  0.4743800000000  0.4992830000000 1.0
C      1  0.4825420000000  0.4020480000000  0.5347340000000 1.0
C      1  0.5559420000000  0.5660300000000  0.4334580000000 1.0
C      1  0.5552540000000  0.4887670000000  0.5687870000000 1.0
C      1  0.4908140000000  0.3928030000000  0.4849190000000 1.0
C      1  0.5252930000000  0.4526150000000  0.3963520000000 1.0
C      1  0.4638550000000  0.5881320000000  0.5622150000000 1.0
C      1  0.5360080000000  0.4108660000000  0.4694910000000 1.0
C      1  0.5248970000000  0.5496080000000  0.4868430000000 1.0
C      1  0.5932140000000  0.4655630000000  0.5415840000000 1.0
C      1  0.4739320000000  0.4765660000000  0.6150020000000 1.0
C      1  0.4153690000000  0.5503030000000  0.4998760000000 1.0
C      1  0.4232860000000  0.4282930000000  0.5181280000000 1.0
C      1  0.5422460000000  0.6028890000000  0.4977360000000 1.0
C      1  0.4521230000000  0.5653050000000  0.4980380000000 1.0
C      1  0.4094190000000  0.4736230000000  0.4417190000000 1.0
C      1  0.5605440000000  0.4703590000000  0.5092650000000 1.0
C      1  0.4840600000000  0.4848650000000  0.4145850000000 1.0
C      1  0.4665300000000  0.5478690000000  0.5556930000000 1.0
C      1  0.4918910000000  0.4246200000000  0.4554360000000 1.0
C      1  0.5292480000000  0.5318540000000  0.5623660000000 1.0
C      1  0.3909270000000  0.5140600000000  0.5298720000000 1.0
C      1  0.5954280000000  0.5061140000000  0.4873060000000 1.0
C      1  0.4217780000000  0.5524720000000  0.4474540000000 1.0
C      1  0.4734710000000  0.5885130000000  0.4743980000000 1.0
C      1  0.5757010000000  0.4544200000000  0.5694230000000 1.0
C      1  0.4544410000000  0.5273300000000  0.5799460000000 1.0
C      1  0.4830460000000  0.6048970000000  0.5500840000000 1.0
C      1  0.5420040000000  0.5696800000000  0.5022890000000 1.0
C      1  0.4318520000000  0.5122950000000  0.5733990000000 1.0
C      1  0.4544280000000  0.4477090000000  0.5417640000000 1.0
C      1  0.5909670000000  0.5628950000000  0.5007800000000 1.0
C      1  0.5078000000000  0.3939740000000  0.5421430000000 1.0
C      1  0.5531090000000  0.5812470000000  0.5445520000000 1.0
C      1  0.4717250000000  0.4497480000000  0.5941250000000 1.0
C      1  0.5525350000000  0.3943140000000  0.4919030000000 1.0
C      1  0.4903520000000  0.5427560000000  0.5052970000000 1.0
C      1  0.4791020000000  0.5014660000000  0.5299390000000 1.0
C      1  0.4580610000000  0.4653190000000  0.4794440000000 1.0
C      1  0.4558770000000  0.5631190000000  0.4650400000000 1.0
C      1  0.5231000000000  0.5807660000000  0.5292030000000 1.0
C      1  0.5446780000000  0.6067410000000  0.4659860000000 1.0
C      1  0.4077670000000  0.4386030000000  0.4973460000000 1.0
C      1  0.5759810000000  0.4548770000000  0.4547010000000 1.0
C      1  0.5603990000000  0.5546420000000  0.5521860000000 1.0
C      1  0.4050900000000  0.5250600000000  0.4350540000000 1.0
C      1  0.5463360000000  0.4577420000000  0.5795420000000 1.0
C      1  0.5665510000000  0.4686700000000  0.4291620000000 1.0
C      1  0.5181740000000  0.4492470000000  0.5064980000000 1.0
C      1  0.5319500000000  0.4856450000000  0.3917840000000 1.0
C      1  0.5716120000000  0.4391440000000  0.5011440000000 1.0
C      1  0.5572850000000  0.4996670000000  0.4788370000000 1.0
C      1  0.5918040000000  0.5092560000000  0.4536400000000 1.0
C      1  0.5761680000000  0.5628410000000  0.4530430000000 1.0
C      1  0.4977120000000  0.5583000000000  0.5330170000000 1.0
C      1  0.4248050000000  0.5117940000000  0.4947260000000 1.0
C      1  0.5639590000000  0.5969590000000  0.5214410000000 1.0
C      1  0.5236400000000  0.5557040000000  0.5843120000000 1.0
C      1  0.5909940000000  0.4849360000000  0.5135670000000 1.0
C      1  0.4949660000000  0.5623870000000  0.4779110000000 1.0
C      1  0.4583480000000  0.4718110000000  0.5626950000000 1.0
C      1  0.5400780000000  0.5404940000000  0.4620950000000 1.0
C      1  0.4774910000000  0.6137510000000  0.4888710000000 1.0
C      1  0.4465120000000  0.5073400000000  0.5277870000000 1.0
C      1  0.4061220000000  0.5416090000000  0.5296690000000 1.0
C      1  0.5064350000000  0.6109440000000  0.4766680000000 1.0
C      1  0.5645170000000  0.5526500000000  0.4833150000000 1.0
C      1  0.4508420000000  0.5020380000000  0.4497810000000 1.0
C      1  0.5396550000000  0.4971030000000  0.5068830000000 1.0
C      1  0.4531900000000  0.4923730000000  0.4195580000000 1.0
C      1  0.5084940000000  0.5073030000000  0.5684620000000 1.0
C      1  0.4933130000000  0.4225670000000  0.4244880000000 1.0
C      1  0.5208470000000  0.4175140000000  0.4992030000000 1.0
C      1  0.4750440000000  0.4540990000000  0.4540210000000 1.0
C      1  0.5425300000000  0.4971130000000  0.5407640000000 1.0
C      1  0.5291240000000  0.4131440000000  0.5608350000000 1.0
C      1  0.4941170000000  0.4702450000000  0.5816410000000 1.0
C      1  0.4067420000000  0.4636010000000  0.4742690000000 1.0
C      1  0.5728520000000  0.4384690000000  0.5409690000000 1.0
C      1  0.4286610000000  0.4833090000000  0.5639290000000 1.0
C      1  0.5106240000000  0.6038550000000  0.5086030000000 1.0
C      1  0.5387060000000  0.4225390000000  0.4332010000000 1.0
C      1  0.4345060000000  0.4831880000000  0.5103490000000 1.0
C      1  0.5137700000000  0.4874850000000  0.4870430000000 1.0
C      1  0.4923990000000  0.4989910000000  0.5972920000000 1.0
C      1  0.4562210000000  0.5473290000000  0.4062160000000 1.0
C      1  0.4100920000000  0.5337660000000  0.4733520000000 1.0
C      1  0.5222030000000  0.3822340000000  0.4815730000000 1.0
C      1  0.5106270000000  0.5865590000000  0.4598290000000 1.0
C      1  0.4496090000000  0.5674280000000  0.4328390000000 1.0
C      1  0.5686400000000  0.5235490000000  0.4974790000000 1.0
C      1  0.5007620000000  0.4429790000000  0.5350880000000 1.0
C      1  0.4442470000000  0.5714750000000  0.5436900000000 1.0
C      1  0.5187390000000  0.4283830000000  0.4154450000000 1.0
C      1  0.5226000000000  0.4632800000000  0.4449770000000 1.0
C      1  0.4306710000000  0.4697890000000  0.4227410000000 1.0
C      1  0.4603800000000  0.4026760000000  0.4442780000000 1.0
C      1  0.5196150000000  0.5250150000000  0.5062760000000 1.0
C      1  0.4709030000000  0.5759760000000  0.5232050000000 1.0
C      1  0.5093480000000  0.5948660000000  0.5569170000000 1.0
C      1  0.4770060000000  0.4289020000000  0.5471220000000 1.0
C      1  0.4507600000000  0.4204600000000  0.5076840000000 1.0
C      1  0.5251910000000  0.4466240000000  0.5563990000000 1.0
C      1  0.5001480000000  0.4731430000000  0.3892440000000 1.0
C      1  0.5451650000000  0.5096550000000  0.4115750000000 1.0
C      1  0.4819080000000  0.5631620000000  0.4218920000000 1.0
C      1  0.4884680000000  0.5421510000000  0.4552660000000 1.0
C      1  0.5063800000000  0.5760410000000  0.5783890000000 1.0
C      1  0.4361280000000  0.5306660000000  0.4263350000000 1.0
C      1  0.5290320000000  0.4604160000000  0.4762680000000 1.0
C      1  0.4231920000000  0.5830920000000  0.4975830000000 1.0
C      1  0.5152860000000  0.5287230000000  0.4420100000000 1.0
C      1  0.5967630000000  0.5130030000000  0.5321730000000 1.0
C      1  0.5403830000000  0.5084850000000  0.5924760000000 1.0
C      1  0.4623700000000  0.5369920000000  0.5237400000000 1.0
C      1  0.4549800000000  0.4858510000000  0.5929860000000 1.0
C      1  0.4114580000000  0.5031560000000  0.4584660000000 1.0
C      1  0.5890710000000  0.5887940000000  0.5113810000000 1.0
END
