TITL C-2847956-8218-353 0.00360530896897516 125000 -592.881309341532 0 0 116 (C1) n - 1
REM
REM in /home/bkarasulu/work/CARBON/AIRSS/Generating-Clusters/AIREBO/with-SteepDescent/Only-C1/SD-CG-opt/Try1-1.4A-POS3A/HFTN-CG
REM
REM
REM
REM
REM
REM ./C.cell (11c1c37f851c82e70ff6c80c92926a4b)
REM
REM compiler GCC version 9.2.1 20190827 (Red Hat 9.2.1-1)
REM options -cpp -mtune=generic -march=x86-64 -g -O0 -fpre-include=/usr/include/finclude/math-vector-fortran.h
REM seed 35675400 -447725174 -719127672 704116093 -1256323258 -1765445941 1278823615 1567754109 -1718275804 -1451220277 -357170914 1751189038 1793857895 925661419 157947572 -1801153750 979195316 -1487135116 -1277834405 -470918155 -1244730802 -1755766429 -96922269 321152127 -2013809944 858654391 -727717676 71601919 -484072764 70664837 -1788601104 111716898 -1722894336
REM
CELL 1.54180   50.00000   50.00000   50.00000   90.00000   90.00000   90.00000
LATT -1
SFAC C  
C      1  0.4971870000000  0.5784920000000  0.5171770000000 1.0
C      1  0.5637720000000  0.4477790000000  0.4586600000000 1.0
C      1  0.5416530000000  0.5074500000000  0.5916900000000 1.0
C      1  0.4386690000000  0.4358770000000  0.5233200000000 1.0
C      1  0.5174890000000  0.5097540000000  0.4063570000000 1.0
C      1  0.5006480000000  0.4102460000000  0.5032420000000 1.0
C      1  0.4780230000000  0.4317690000000  0.5177280000000 1.0
C      1  0.5316790000000  0.4552550000000  0.4670710000000 1.0
C      1  0.5727370000000  0.4899440000000  0.4801200000000 1.0
C      1  0.5305890000000  0.4837830000000  0.4856540000000 1.0
C      1  0.4697080000000  0.5548780000000  0.5593190000000 1.0
C      1  0.5086450000000  0.4539700000000  0.5562300000000 1.0
C      1  0.4818860000000  0.5382890000000  0.4723500000000 1.0
C      1  0.4636090000000  0.4517750000000  0.4712770000000 1.0
C      1  0.4949770000000  0.5766190000000  0.4832930000000 1.0
C      1  0.5255130000000  0.5648830000000  0.4926570000000 1.0
C      1  0.4613970000000  0.4764620000000  0.5499400000000 1.0
C      1  0.4890790000000  0.4938560000000  0.3977470000000 1.0
C      1  0.4364300000000  0.5314570000000  0.4336130000000 1.0
C      1  0.4679910000000  0.4797500000000  0.5831330000000 1.0
C      1  0.4145030000000  0.5305180000000  0.5218140000000 1.0
C      1  0.4791420000000  0.4163060000000  0.4810150000000 1.0
C      1  0.5613580000000  0.4499260000000  0.5703050000000 1.0
C      1  0.5300600000000  0.4420350000000  0.4353550000000 1.0
C      1  0.4707430000000  0.5155280000000  0.5661560000000 1.0
C      1  0.5656470000000  0.5448350000000  0.4764670000000 1.0
C      1  0.5260480000000  0.5961920000000  0.5182540000000 1.0
C      1  0.5134600000000  0.4706360000000  0.4028740000000 1.0
C      1  0.5031460000000  0.5739570000000  0.4518750000000 1.0
C      1  0.5486950000000  0.5734260000000  0.4692830000000 1.0
C      1  0.4882050000000  0.5326920000000  0.4309530000000 1.0
C      1  0.4702060000000  0.4621500000000  0.5091570000000 1.0
C      1  0.5812740000000  0.5384320000000  0.4469480000000 1.0
C      1  0.5148610000000  0.4218290000000  0.5508440000000 1.0
C      1  0.4535060000000  0.4154430000000  0.5007330000000 1.0
C      1  0.5226190000000  0.4873930000000  0.5883240000000 1.0
C      1  0.5011390000000  0.5014960000000  0.4350100000000 1.0
C      1  0.5749340000000  0.5590260000000  0.5059420000000 1.0
C      1  0.4746890000000  0.5530130000000  0.5161410000000 1.0
C      1  0.5671910000000  0.5422620000000  0.5543010000000 1.0
C      1  0.5457130000000  0.4395760000000  0.4933600000000 1.0
C      1  0.4677620000000  0.5900500000000  0.5300520000000 1.0
C      1  0.4085460000000  0.4786060000000  0.5153390000000 1.0
C      1  0.4608550000000  0.5176030000000  0.4183290000000 1.0
C      1  0.5416780000000  0.5593160000000  0.5442420000000 1.0
C      1  0.5090420000000  0.5536420000000  0.4348580000000 1.0
C      1  0.5242000000000  0.4924670000000  0.4546340000000 1.0
C      1  0.4365560000000  0.5526010000000  0.4834080000000 1.0
C      1  0.4620230000000  0.5444090000000  0.4466430000000 1.0
C      1  0.5821700000000  0.4609870000000  0.5513070000000 1.0
C      1  0.4465110000000  0.5641230000000  0.5282770000000 1.0
C      1  0.4252660000000  0.4639230000000  0.4710570000000 1.0
C      1  0.4907950000000  0.4749420000000  0.5419810000000 1.0
C      1  0.5847080000000  0.5033700000000  0.5093810000000 1.0
C      1  0.5466560000000  0.4922460000000  0.5144230000000 1.0
C      1  0.4408600000000  0.5477950000000  0.5572320000000 1.0
C      1  0.5509880000000  0.5842590000000  0.5041830000000 1.0
C      1  0.4391600000000  0.5159380000000  0.5611920000000 1.0
C      1  0.5553160000000  0.4794170000000  0.5447140000000 1.0
C      1  0.4945230000000  0.5321390000000  0.5838960000000 1.0
C      1  0.5328400000000  0.4350880000000  0.5307800000000 1.0
C      1  0.5590220000000  0.4693610000000  0.4378920000000 1.0
C      1  0.4812900000000  0.4760880000000  0.4801930000000 1.0
C      1  0.4393460000000  0.4438620000000  0.4902120000000 1.0
C      1  0.5572940000000  0.5208650000000  0.4994560000000 1.0
C      1  0.4250660000000  0.5120910000000  0.5015070000000 1.0
C      1  0.5399220000000  0.5275370000000  0.5683260000000 1.0
C      1  0.5409630000000  0.5244950000000  0.4122120000000 1.0
C      1  0.5045670000000  0.5411200000000  0.5050820000000 1.0
C      1  0.5444140000000  0.5464430000000  0.5140920000000 1.0
C      1  0.4932010000000  0.4986010000000  0.5856210000000 1.0
C      1  0.5002560000000  0.4461820000000  0.4441490000000 1.0
C      1  0.5047280000000  0.5044170000000  0.5408090000000 1.0
C      1  0.4829340000000  0.4322790000000  0.5495650000000 1.0
C      1  0.5842270000000  0.5331580000000  0.5259850000000 1.0
C      1  0.4174790000000  0.5013250000000  0.5390200000000 1.0
C      1  0.4986840000000  0.4807370000000  0.5094140000000 1.0
C      1  0.4755140000000  0.4275950000000  0.4510860000000 1.0
C      1  0.5236990000000  0.5726550000000  0.5689430000000 1.0
C      1  0.4917010000000  0.4695240000000  0.4282870000000 1.0
C      1  0.5568390000000  0.4987580000000  0.4537320000000 1.0
C      1  0.5661350000000  0.5106310000000  0.5439100000000 1.0
C      1  0.5134510000000  0.5401830000000  0.4722620000000 1.0
C      1  0.5649050000000  0.4659660000000  0.5029180000000 1.0
C      1  0.5324630000000  0.5111400000000  0.5391930000000 1.0
C      1  0.4638590000000  0.4867450000000  0.4198420000000 1.0
C      1  0.4855750000000  0.5316820000000  0.5401600000000 1.0
C      1  0.5741360000000  0.4274560000000  0.4786600000000 1.0
C      1  0.4074860000000  0.4799320000000  0.4860660000000 1.0
C      1  0.5117460000000  0.5534960000000  0.5359280000000 1.0
C      1  0.4064940000000  0.5083800000000  0.4760580000000 1.0
C      1  0.5410400000000  0.5279270000000  0.4612800000000 1.0
C      1  0.5669810000000  0.5200140000000  0.4299760000000 1.0
C      1  0.5343430000000  0.5425580000000  0.4347760000000 1.0
C      1  0.5387740000000  0.4623840000000  0.4148950000000 1.0
C      1  0.5889490000000  0.4730620000000  0.5242340000000 1.0
C      1  0.4423230000000  0.4599850000000  0.5727590000000 1.0
C      1  0.4458030000000  0.4980820000000  0.4712430000000 1.0
C      1  0.4449940000000  0.4766810000000  0.4463970000000 1.0
C      1  0.4307080000000  0.5279660000000  0.4652860000000 1.0
C      1  0.4703840000000  0.5134910000000  0.4889880000000 1.0
C      1  0.4260920000000  0.5540270000000  0.5095240000000 1.0
C      1  0.4240110000000  0.4864180000000  0.5681230000000 1.0
C      1  0.5324400000000  0.4678140000000  0.5675380000000 1.0
C      1  0.4826250000000  0.5001980000000  0.4605470000000 1.0
C      1  0.5027980000000  0.4404800000000  0.4772730000000 1.0
C      1  0.5166130000000  0.4519980000000  0.5061350000000 1.0
C      1  0.4369290000000  0.4675670000000  0.5301000000000 1.0
C      1  0.5278730000000  0.4111510000000  0.4988500000000 1.0
C      1  0.4790210000000  0.5073730000000  0.5172810000000 1.0
C      1  0.5141620000000  0.5091510000000  0.4989430000000 1.0
C      1  0.4632560000000  0.5648360000000  0.4798570000000 1.0
C      1  0.4458670000000  0.4851210000000  0.5027050000000 1.0
C      1  0.4522190000000  0.4376960000000  0.5518540000000 1.0
C      1  0.4475170000000  0.4435300000000  0.4423420000000 1.0
C      1  0.5176060000000  0.5459040000000  0.5768940000000 1.0
END
