TITL C-2848505-4874-396 -1018.47404278405 125000 -627.380866319672 0 0 123 (C1) n - 1
REM
REM in /home/bkarasulu/work/CARBON/AIRSS/Generating-Clusters/AIREBO/with-SteepDescent/Only-C1/SD-CG-opt/Try1-1.4A-POS3A/HFTN-CG
REM
REM
REM
REM
REM
REM ./C.cell (11c1c37f851c82e70ff6c80c92926a4b)
REM
REM compiler GCC version 9.2.1 20190827 (Red Hat 9.2.1-1)
REM options -cpp -mtune=generic -march=x86-64 -g -O0 -fpre-include=/usr/include/finclude/math-vector-fortran.h
REM seed 849491086 -819144745 -1391439330 -653660985 1813934932 2056822660 507309865 -1130147852 941271002 1671743873 1844097831 1605464861 -1756225253 -1175580669 -191794436 -914016288 -1453553451 -299864276 -379783163 -2111311890 418077620 -1143396408 1980046564 278841314 1697242119 1515730952 1059045221 215502696 363627847 -1459616398 1942372688 -49547158 2121647121
REM
CELL 1.54180   50.00000   50.00000   50.00000   90.00000   90.00000   90.00000
LATT -1
SFAC C  
C      1  0.4193110000000  0.5360800000000  0.4545690000000 1.0
C      1  0.4177040000000  0.4844060000000  0.5430750000000 1.0
C      1  0.4711580000000  0.4295870000000  0.4200300000000 1.0
C      1  0.4962450000000  0.4365260000000  0.5752020000000 1.0
C      1  0.5018020000000  0.5748130000000  0.5694380000000 1.0
C      1  0.4624910000000  0.5088210000000  0.4629720000000 1.0
C      1  0.5602980000000  0.4766030000000  0.4889920000000 1.0
C      1  0.5003550000000  0.4750420000000  0.4194720000000 1.0
C      1  0.5566920000000  0.5764630000000  0.4908070000000 1.0
C      1  0.5073910000000  0.5029960000000  0.5340760000000 1.0
C      1  0.5971880000000  0.5160820000000  0.4710620000000 1.0
C      1  0.4582840000000  0.5063370000000  0.5121410000000 1.0
C      1  0.5211030000000  0.4796200000000  0.4596710000000 1.0
C      1  0.5132780000000  0.5419020000000  0.5165520000000 1.0
C      1  0.5562060000000  0.4429830000000  0.4859780000000 1.0
C      1  0.4494410000000  0.5716820000000  0.4579290000000 1.0
C      1  0.4055510000000  0.5306430000000  0.4787540000000 1.0
C      1  0.4636970000000  0.4839570000000  0.5334970000000 1.0
C      1  0.5950720000000  0.4964350000000  0.4519580000000 1.0
C      1  0.5392940000000  0.4423480000000  0.4295490000000 1.0
C      1  0.4944630000000  0.4726590000000  0.5257460000000 1.0
C      1  0.5566760000000  0.5103280000000  0.5862820000000 1.0
C      1  0.4785010000000  0.4871290000000  0.4836020000000 1.0
C      1  0.5467790000000  0.5575080000000  0.5453550000000 1.0
C      1  0.5036170000000  0.5149010000000  0.4275160000000 1.0
C      1  0.5204710000000  0.5787150000000  0.5410610000000 1.0
C      1  0.6062880000000  0.5088920000000  0.5002270000000 1.0
C      1  0.5400750000000  0.4542870000000  0.5713870000000 1.0
C      1  0.4376460000000  0.4353400000000  0.5232680000000 1.0
C      1  0.5472160000000  0.4787890000000  0.5203200000000 1.0
C      1  0.4355140000000  0.4855540000000  0.4455260000000 1.0
C      1  0.5184250000000  0.5003310000000  0.5740370000000 1.0
C      1  0.5357320000000  0.5192390000000  0.5436700000000 1.0
C      1  0.4785660000000  0.4995200000000  0.4103880000000 1.0
C      1  0.5358260000000  0.5056360000000  0.4333320000000 1.0
C      1  0.5876890000000  0.4508120000000  0.4757170000000 1.0
C      1  0.4428890000000  0.5667820000000  0.4911010000000 1.0
C      1  0.5138080000000  0.5430190000000  0.4762110000000 1.0
C      1  0.5317850000000  0.5885640000000  0.4592200000000 1.0
C      1  0.4839280000000  0.4441500000000  0.5088450000000 1.0
C      1  0.5509140000000  0.5243060000000  0.4574150000000 1.0
C      1  0.4724830000000  0.5705630000000  0.5558940000000 1.0
C      1  0.4649030000000  0.4449010000000  0.4559000000000 1.0
C      1  0.5138650000000  0.4198780000000  0.4947710000000 1.0
C      1  0.5173490000000  0.5629020000000  0.4506260000000 1.0
C      1  0.4633570000000  0.5417800000000  0.4928930000000 1.0
C      1  0.5360050000000  0.4185580000000  0.4544740000000 1.0
C      1  0.4887620000000  0.5604840000000  0.5020470000000 1.0
C      1  0.4195000000000  0.4692110000000  0.5709820000000 1.0
C      1  0.4293410000000  0.4652010000000  0.5203720000000 1.0
C      1  0.4351430000000  0.5111600000000  0.5498590000000 1.0
C      1  0.4675230000000  0.5869360000000  0.4791390000000 1.0
C      1  0.5350660000000  0.4803990000000  0.5520470000000 1.0
C      1  0.4714050000000  0.3970600000000  0.5092280000000 1.0
C      1  0.4351240000000  0.5274940000000  0.5053590000000 1.0
C      1  0.5241560000000  0.5106270000000  0.4733450000000 1.0
C      1  0.5436640000000  0.4113760000000  0.4849050000000 1.0
C      1  0.5648060000000  0.5043810000000  0.5341650000000 1.0
C      1  0.4890760000000  0.5323390000000  0.5702280000000 1.0
C      1  0.4943660000000  0.5134920000000  0.4578000000000 1.0
C      1  0.5775440000000  0.5594840000000  0.4906670000000 1.0
C      1  0.5472490000000  0.4280410000000  0.5151880000000 1.0
C      1  0.5268840000000  0.4746900000000  0.4099780000000 1.0
C      1  0.4846410000000  0.5248230000000  0.5233420000000 1.0
C      1  0.5768310000000  0.5241660000000  0.5092650000000 1.0
C      1  0.4329660000000  0.4376180000000  0.4650300000000 1.0
C      1  0.5648850000000  0.4512050000000  0.5241400000000 1.0
C      1  0.5931930000000  0.4918270000000  0.5260700000000 1.0
C      1  0.4483580000000  0.4778840000000  0.4963400000000 1.0
C      1  0.4733810000000  0.5131770000000  0.5902210000000 1.0
C      1  0.4631270000000  0.4499980000000  0.5350980000000 1.0
C      1  0.4597160000000  0.4938700000000  0.5657860000000 1.0
C      1  0.4460030000000  0.4685680000000  0.5801060000000 1.0
C      1  0.4564820000000  0.4457250000000  0.4888320000000 1.0
C      1  0.5415390000000  0.5361600000000  0.5714050000000 1.0
C      1  0.5470040000000  0.5378800000000  0.5185110000000 1.0
C      1  0.4704240000000  0.4612020000000  0.4184730000000 1.0
C      1  0.4646500000000  0.4137890000000  0.4804080000000 1.0
C      1  0.5069040000000  0.4745280000000  0.4881810000000 1.0
C      1  0.5084720000000  0.4307770000000  0.4403340000000 1.0
C      1  0.4460850000000  0.5321640000000  0.4527300000000 1.0
C      1  0.4474670000000  0.4858230000000  0.4136680000000 1.0
C      1  0.4948520000000  0.4139520000000  0.5200190000000 1.0
C      1  0.5570730000000  0.5381580000000  0.4274680000000 1.0
C      1  0.5240390000000  0.4987930000000  0.5047250000000 1.0
C      1  0.4433890000000  0.4130120000000  0.5076230000000 1.0
C      1  0.4334070000000  0.5631340000000  0.5235510000000 1.0
C      1  0.4818150000000  0.5432800000000  0.4668000000000 1.0
C      1  0.4677810000000  0.4486070000000  0.5894260000000 1.0
C      1  0.4793450000000  0.4157710000000  0.4494460000000 1.0
C      1  0.4947770000000  0.4603310000000  0.4501020000000 1.0
C      1  0.5927220000000  0.5536070000000  0.5153700000000 1.0
C      1  0.4098960000000  0.5501280000000  0.5026440000000 1.0
C      1  0.5497780000000  0.4746080000000  0.4324460000000 1.0
C      1  0.4968540000000  0.5791890000000  0.4755360000000 1.0
C      1  0.5216860000000  0.4341880000000  0.5637420000000 1.0
C      1  0.5350890000000  0.4518240000000  0.4614390000000 1.0
C      1  0.5213130000000  0.4294450000000  0.5328140000000 1.0
C      1  0.5003780000000  0.4430960000000  0.4790650000000 1.0
C      1  0.5545400000000  0.4843470000000  0.5782230000000 1.0
C      1  0.4796310000000  0.4596020000000  0.5605100000000 1.0
C      1  0.4662240000000  0.5511270000000  0.4375860000000 1.0
C      1  0.4567920000000  0.5841360000000  0.5359800000000 1.0
C      1  0.5086930000000  0.5480090000000  0.5496860000000 1.0
C      1  0.5184520000000  0.5525550000000  0.5880810000000 1.0
C      1  0.4780280000000  0.5336350000000  0.4152300000000 1.0
C      1  0.5280010000000  0.5638630000000  0.4951480000000 1.0
C      1  0.5223990000000  0.5968280000000  0.4889650000000 1.0
C      1  0.4731560000000  0.5980980000000  0.5187730000000 1.0
C      1  0.4261650000000  0.4861370000000  0.4719090000000 1.0
C      1  0.5929750000000  0.4779420000000  0.4955170000000 1.0
C      1  0.4404920000000  0.5366370000000  0.5436720000000 1.0
C      1  0.5208820000000  0.4580850000000  0.5144790000000 1.0
C      1  0.5730190000000  0.4748170000000  0.4566150000000 1.0
C      1  0.4930930000000  0.4889460000000  0.5615620000000 1.0
C      1  0.5725580000000  0.5332320000000  0.4750130000000 1.0
C      1  0.4695950000000  0.5411470000000  0.5475480000000 1.0
C      1  0.4084230000000  0.5033920000000  0.4872410000000 1.0
C      1  0.5093520000000  0.5216730000000  0.5939940000000 1.0
C      1  0.5259120000000  0.5403740000000  0.4307250000000 1.0
C      1  0.4150160000000  0.5023300000000  0.5164480000000 1.0
C      1  0.4693600000000  0.4823570000000  0.4450780000000 1.0
C      1  0.5039820000000  0.5876820000000  0.5160440000000 1.0
END
