TITL C-2848504-8560-541 -0.00320181144413823 125000 -888.227122185061 0 0 169 (C1) n - 1
REM
REM in /home/bkarasulu/work/CARBON/AIRSS/Generating-Clusters/AIREBO/with-SteepDescent/Only-C1/SD-CG-opt/Try1-1.4A-POS3A/HFTN-CG
REM
REM
REM
REM
REM
REM ./C.cell (11c1c37f851c82e70ff6c80c92926a4b)
REM
REM compiler GCC version 9.2.1 20190827 (Red Hat 9.2.1-1)
REM options -cpp -mtune=generic -march=x86-64 -g -O0 -fpre-include=/usr/include/finclude/math-vector-fortran.h
REM seed -1966102198 45548359 -1578262006 -958832233 -2065072316 -1309305781 2054308483 -969166375 1477341503 -521029666 1856589657 873812804 264277308 2128787624 220258778 1687443615 -753844902 -2144007661 571856785 -673114060 -432358601 1041285478 283962007 1703143527 1948373643 1435645954 1498247469 -1346803214 -2017763495 -1633743857 -868714005 -2042748579 -1469342518
REM
CELL 1.54180   50.00000   50.00000   50.00000   90.00000   90.00000   90.00000
LATT -1
SFAC C  
C      1  0.4777180000000  0.5399100000000  0.4418960000000 1.0
C      1  0.5556330000000  0.5450310000000  0.5686940000000 1.0
C      1  0.5140060000000  0.5411760000000  0.5346420000000 1.0
C      1  0.4894390000000  0.4377520000000  0.5063620000000 1.0
C      1  0.4130340000000  0.5434510000000  0.4753180000000 1.0
C      1  0.4842210000000  0.5665880000000  0.5664420000000 1.0
C      1  0.4434900000000  0.5760100000000  0.4612290000000 1.0
C      1  0.5192310000000  0.5981820000000  0.4841740000000 1.0
C      1  0.4017080000000  0.5324110000000  0.5358850000000 1.0
C      1  0.4637450000000  0.4812330000000  0.5090070000000 1.0
C      1  0.6085040000000  0.5116160000000  0.4958640000000 1.0
C      1  0.5633470000000  0.5208780000000  0.5786690000000 1.0
C      1  0.5613650000000  0.4765250000000  0.4400420000000 1.0
C      1  0.5020050000000  0.4119400000000  0.5431820000000 1.0
C      1  0.4576330000000  0.4337350000000  0.5737130000000 1.0
C      1  0.5007760000000  0.5174990000000  0.5528000000000 1.0
C      1  0.4479900000000  0.4632290000000  0.4083140000000 1.0
C      1  0.4309160000000  0.4718180000000  0.4358670000000 1.0
C      1  0.5015100000000  0.5006200000000  0.4036480000000 1.0
C      1  0.5188110000000  0.5283920000000  0.4694580000000 1.0
C      1  0.4782760000000  0.4669390000000  0.5530760000000 1.0
C      1  0.5233450000000  0.4733130000000  0.5759800000000 1.0
C      1  0.4456730000000  0.4971470000000  0.4087900000000 1.0
C      1  0.4515470000000  0.4277640000000  0.5129810000000 1.0
C      1  0.5216630000000  0.5851810000000  0.4529020000000 1.0
C      1  0.4831900000000  0.4320820000000  0.4217090000000 1.0
C      1  0.4626850000000  0.6003980000000  0.5514010000000 1.0
C      1  0.4958260000000  0.5310290000000  0.4943760000000 1.0
C      1  0.5287640000000  0.4566420000000  0.4691070000000 1.0
C      1  0.5045910000000  0.5116790000000  0.4356590000000 1.0
C      1  0.4219100000000  0.4438750000000  0.4498540000000 1.0
C      1  0.5100570000000  0.6144740000000  0.5369940000000 1.0
C      1  0.4833450000000  0.5060100000000  0.4617990000000 1.0
C      1  0.5442900000000  0.4581380000000  0.5899210000000 1.0
C      1  0.4511540000000  0.5528640000000  0.5769370000000 1.0
C      1  0.5107650000000  0.4569360000000  0.5523520000000 1.0
C      1  0.5513020000000  0.5517770000000  0.5066320000000 1.0
C      1  0.5127720000000  0.4241330000000  0.4239540000000 1.0
C      1  0.4415720000000  0.5557700000000  0.4394550000000 1.0
C      1  0.4520140000000  0.5048400000000  0.5386580000000 1.0
C      1  0.4665790000000  0.4093240000000  0.4404350000000 1.0
C      1  0.6010110000000  0.4833950000000  0.5084050000000 1.0
C      1  0.5664930000000  0.5157130000000  0.4716990000000 1.0
C      1  0.4536230000000  0.5168050000000  0.4353760000000 1.0
C      1  0.5810680000000  0.5512620000000  0.4901910000000 1.0
C      1  0.4493040000000  0.5429660000000  0.4139190000000 1.0
C      1  0.5807010000000  0.4676680000000  0.5592750000000 1.0
C      1  0.4181090000000  0.5026630000000  0.5634470000000 1.0
C      1  0.5126980000000  0.5021340000000  0.4999520000000 1.0
C      1  0.4330930000000  0.4296250000000  0.5616410000000 1.0
C      1  0.4469460000000  0.5794520000000  0.5605200000000 1.0
C      1  0.4530660000000  0.4388020000000  0.4372030000000 1.0
C      1  0.3916590000000  0.4730890000000  0.5216170000000 1.0
C      1  0.5133860000000  0.5425110000000  0.4241120000000 1.0
C      1  0.5571500000000  0.4235590000000  0.5246230000000 1.0
C      1  0.4991040000000  0.4611870000000  0.4183390000000 1.0
C      1  0.5717770000000  0.4295850000000  0.5003050000000 1.0
C      1  0.4399130000000  0.4778390000000  0.5554190000000 1.0
C      1  0.4088740000000  0.4421170000000  0.4812540000000 1.0
C      1  0.4769570000000  0.4581420000000  0.4511830000000 1.0
C      1  0.4566590000000  0.4191480000000  0.4718540000000 1.0
C      1  0.4991720000000  0.4577840000000  0.4843810000000 1.0
C      1  0.5338040000000  0.4560010000000  0.5152020000000 1.0
C      1  0.5378790000000  0.4365780000000  0.5494970000000 1.0
C      1  0.5471680000000  0.5355300000000  0.4589540000000 1.0
C      1  0.4051660000000  0.4930330000000  0.5350520000000 1.0
C      1  0.5192100000000  0.4995230000000  0.6108450000000 1.0
C      1  0.5144020000000  0.5724450000000  0.5920250000000 1.0
C      1  0.5582190000000  0.4607450000000  0.5383990000000 1.0
C      1  0.4901680000000  0.6014520000000  0.4946650000000 1.0
C      1  0.5354560000000  0.4984270000000  0.4376950000000 1.0
C      1  0.4857360000000  0.5933640000000  0.5274050000000 1.0
C      1  0.5818990000000  0.4923800000000  0.4551810000000 1.0
C      1  0.5630800000000  0.5629530000000  0.4161990000000 1.0
C      1  0.4604860000000  0.4567910000000  0.5283680000000 1.0
C      1  0.5281260000000  0.4880550000000  0.3956990000000 1.0
C      1  0.4297730000000  0.4501320000000  0.5379920000000 1.0
C      1  0.4591850000000  0.4668650000000  0.5812180000000 1.0
C      1  0.5398600000000  0.3996430000000  0.5200980000000 1.0
C      1  0.6040230000000  0.4785500000000  0.5419270000000 1.0
C      1  0.5308800000000  0.5671770000000  0.4271660000000 1.0
C      1  0.5301980000000  0.4411610000000  0.4388170000000 1.0
C      1  0.5219130000000  0.4957370000000  0.4678100000000 1.0
C      1  0.5540920000000  0.4520610000000  0.4183250000000 1.0
C      1  0.5609420000000  0.4228130000000  0.4742300000000 1.0
C      1  0.6060290000000  0.5131620000000  0.4671000000000 1.0
C      1  0.4340680000000  0.4910840000000  0.4956530000000 1.0
C      1  0.4761980000000  0.4821550000000  0.4073420000000 1.0
C      1  0.4581240000000  0.4864450000000  0.4500890000000 1.0
C      1  0.5676970000000  0.4836260000000  0.5152400000000 1.0
C      1  0.5737710000000  0.5158310000000  0.4090280000000 1.0
C      1  0.4663660000000  0.5300930000000  0.4788150000000 1.0
C      1  0.5564400000000  0.5645530000000  0.4495170000000 1.0
C      1  0.4532220000000  0.5213470000000  0.5089440000000 1.0
C      1  0.5003400000000  0.5634130000000  0.4873050000000 1.0
C      1  0.5045920000000  0.5418490000000  0.5902700000000 1.0
C      1  0.4683470000000  0.5646150000000  0.5221780000000 1.0
C      1  0.4884060000000  0.4304340000000  0.4672780000000 1.0
C      1  0.4854130000000  0.4940330000000  0.5693360000000 1.0
C      1  0.4545000000000  0.4054600000000  0.5384770000000 1.0
C      1  0.5777950000000  0.5379890000000  0.4257730000000 1.0
C      1  0.4842790000000  0.4987840000000  0.5296810000000 1.0
C      1  0.4207620000000  0.5133040000000  0.5151960000000 1.0
C      1  0.4846230000000  0.3858970000000  0.4844080000000 1.0
C      1  0.4709900000000  0.5434060000000  0.3959640000000 1.0
C      1  0.5266770000000  0.5736590000000  0.5065280000000 1.0
C      1  0.5878160000000  0.5342720000000  0.5329710000000 1.0
C      1  0.5689140000000  0.5536750000000  0.5440960000000 1.0
C      1  0.5070810000000  0.4723080000000  0.4481190000000 1.0
C      1  0.5379080000000  0.4060860000000  0.4739510000000 1.0
C      1  0.4813020000000  0.4552770000000  0.6043070000000 1.0
C      1  0.5536670000000  0.4635990000000  0.4904070000000 1.0
C      1  0.5437010000000  0.5750450000000  0.5359850000000 1.0
C      1  0.5484820000000  0.5844270000000  0.4737880000000 1.0
C      1  0.4614880000000  0.6150870000000  0.5042340000000 1.0
C      1  0.4321910000000  0.5750240000000  0.5097410000000 1.0
C      1  0.5511690000000  0.4998970000000  0.4092270000000 1.0
C      1  0.4774490000000  0.4068330000000  0.5058730000000 1.0
C      1  0.6001420000000  0.5364180000000  0.5080880000000 1.0
C      1  0.5041720000000  0.5550930000000  0.4543300000000 1.0
C      1  0.4610230000000  0.5596650000000  0.4930770000000 1.0
C      1  0.5043900000000  0.5706070000000  0.5435460000000 1.0
C      1  0.5614270000000  0.5024040000000  0.5561880000000 1.0
C      1  0.4403790000000  0.6043560000000  0.5126720000000 1.0
C      1  0.4942740000000  0.5312620000000  0.4024280000000 1.0
C      1  0.4868870000000  0.4848400000000  0.4876710000000 1.0
C      1  0.4993970000000  0.4366990000000  0.5941000000000 1.0
C      1  0.4101020000000  0.4484830000000  0.5148300000000 1.0
C      1  0.5273800000000  0.4341250000000  0.5819150000000 1.0
C      1  0.4403120000000  0.4434490000000  0.4849960000000 1.0
C      1  0.5618250000000  0.4438080000000  0.4510120000000 1.0
C      1  0.5340950000000  0.6070830000000  0.5345260000000 1.0
C      1  0.3953240000000  0.5239530000000  0.4816860000000 1.0
C      1  0.3925650000000  0.4703160000000  0.4897660000000 1.0
C      1  0.4173090000000  0.5067550000000  0.4220860000000 1.0
C      1  0.4946360000000  0.5106490000000  0.5975340000000 1.0
C      1  0.5835970000000  0.5045220000000  0.5374460000000 1.0
C      1  0.4375150000000  0.5310740000000  0.4617020000000 1.0
C      1  0.4411930000000  0.5580750000000  0.5378190000000 1.0
C      1  0.5266370000000  0.5819350000000  0.5645970000000 1.0
C      1  0.4893660000000  0.3973350000000  0.4595210000000 1.0
C      1  0.5348860000000  0.5008040000000  0.5404710000000 1.0
C      1  0.5574430000000  0.5081650000000  0.4982400000000 1.0
C      1  0.5250200000000  0.5041660000000  0.5718010000000 1.0
C      1  0.5711600000000  0.5826850000000  0.4908670000000 1.0
C      1  0.5261960000000  0.5455850000000  0.5655590000000 1.0
C      1  0.4376820000000  0.4033570000000  0.4933490000000 1.0
C      1  0.4240540000000  0.5690470000000  0.4811610000000 1.0
C      1  0.5891550000000  0.5733100000000  0.4526680000000 1.0
C      1  0.5868150000000  0.5399160000000  0.4586390000000 1.0
C      1  0.6023260000000  0.4723230000000  0.4701470000000 1.0
C      1  0.5265390000000  0.4603720000000  0.4031410000000 1.0
C      1  0.5867760000000  0.4563620000000  0.4934940000000 1.0
C      1  0.4423470000000  0.5201900000000  0.5802730000000 1.0
C      1  0.4623580000000  0.5000290000000  0.5918720000000 1.0
C      1  0.4446340000000  0.4711660000000  0.4755660000000 1.0
C      1  0.5347830000000  0.5232260000000  0.5149110000000 1.0
C      1  0.4742800000000  0.5812020000000  0.4745510000000 1.0
C      1  0.4320090000000  0.5304000000000  0.5495150000000 1.0
C      1  0.5181520000000  0.4255770000000  0.5165080000000 1.0
C      1  0.4781380000000  0.5353170000000  0.5708620000000 1.0
C      1  0.5121560000000  0.4794730000000  0.5268930000000 1.0
C      1  0.5698830000000  0.4721130000000  0.5851580000000 1.0
C      1  0.4919240000000  0.4310340000000  0.5637980000000 1.0
C      1  0.4078550000000  0.4915500000000  0.4457950000000 1.0
C      1  0.4811850000000  0.3935490000000  0.5352950000000 1.0
C      1  0.4059400000000  0.4944640000000  0.4767120000000 1.0
C      1  0.5146010000000  0.4164980000000  0.4839280000000 1.0
C      1  0.5491260000000  0.4973680000000  0.5948020000000 1.0
END
