TITL C-2848509-3138-207 -0.000175447379398997 125000 -692.478180168618 0 0 129 (C1) n - 1
REM
REM in /home/bkarasulu/work/CARBON/AIRSS/Generating-Clusters/AIREBO/with-SteepDescent/Only-C1/SD-CG-opt/Try1-1.4A-POS3A/HFTN-CG
REM
REM
REM
REM
REM
REM ./C.cell (11c1c37f851c82e70ff6c80c92926a4b)
REM
REM compiler GCC version 9.2.1 20190827 (Red Hat 9.2.1-1)
REM options -cpp -mtune=generic -march=x86-64 -g -O0 -fpre-include=/usr/include/finclude/math-vector-fortran.h
REM seed -680444070 1241631213 685909601 -1677995659 2109075156 706625164 23652567 923785691 846602948 -273774795 966775735 1304534671 -1365002818 1048213472 1430864970 -598532791 426411891 -1809140821 953774663 1174927757 175992951 -1567321232 2045088140 -1145379676 -1427741514 -349748403 -1938801212 1129908914 513633196 2018134434 -393619147 182850078 395569565
REM
CELL 1.54180   50.00000   50.00000   50.00000   90.00000   90.00000   90.00000
LATT -1
SFAC C  
C      1  0.5206320000000  0.4606550000000  0.5395000000000 1.0
C      1  0.5466020000000  0.5015300000000  0.5730420000000 1.0
C      1  0.4544060000000  0.4426610000000  0.4539110000000 1.0
C      1  0.4161100000000  0.5430490000000  0.4839540000000 1.0
C      1  0.5499770000000  0.5334550000000  0.4031090000000 1.0
C      1  0.4832190000000  0.5843440000000  0.4559170000000 1.0
C      1  0.5470390000000  0.5312840000000  0.5742630000000 1.0
C      1  0.4969890000000  0.4494220000000  0.4976030000000 1.0
C      1  0.4296910000000  0.4777940000000  0.4302650000000 1.0
C      1  0.4392430000000  0.5309350000000  0.4377720000000 1.0
C      1  0.4553000000000  0.5753170000000  0.4830040000000 1.0
C      1  0.5242790000000  0.4212140000000  0.5350130000000 1.0
C      1  0.5835840000000  0.5056600000000  0.5300800000000 1.0
C      1  0.5310510000000  0.5717330000000  0.4728290000000 1.0
C      1  0.5551120000000  0.5725720000000  0.4973920000000 1.0
C      1  0.5727660000000  0.4954020000000  0.4596010000000 1.0
C      1  0.4994890000000  0.6035960000000  0.5467220000000 1.0
C      1  0.4980430000000  0.5668800000000  0.4794720000000 1.0
C      1  0.4580760000000  0.4965820000000  0.4520980000000 1.0
C      1  0.5078400000000  0.3973170000000  0.4989180000000 1.0
C      1  0.5368730000000  0.6004990000000  0.4899980000000 1.0
C      1  0.4798350000000  0.5603570000000  0.5598160000000 1.0
C      1  0.4382090000000  0.5192440000000  0.4773240000000 1.0
C      1  0.4851660000000  0.4898330000000  0.4093160000000 1.0
C      1  0.4944790000000  0.5292290000000  0.5469950000000 1.0
C      1  0.4371220000000  0.5148620000000  0.5465510000000 1.0
C      1  0.4910150000000  0.4198280000000  0.4819520000000 1.0
C      1  0.4841330000000  0.6047160000000  0.5240870000000 1.0
C      1  0.4206330000000  0.4721340000000  0.4837710000000 1.0
C      1  0.5306070000000  0.5821870000000  0.5179530000000 1.0
C      1  0.4692750000000  0.5283850000000  0.4503350000000 1.0
C      1  0.3914320000000  0.5571040000000  0.4797610000000 1.0
C      1  0.4803470000000  0.5801380000000  0.5053040000000 1.0
C      1  0.5872170000000  0.4361360000000  0.5241540000000 1.0
C      1  0.5490610000000  0.4776660000000  0.5310110000000 1.0
C      1  0.5263090000000  0.4686540000000  0.4479190000000 1.0
C      1  0.4381880000000  0.5556930000000  0.4611120000000 1.0
C      1  0.5190900000000  0.4600400000000  0.4088110000000 1.0
C      1  0.5028680000000  0.4686050000000  0.4701460000000 1.0
C      1  0.4491310000000  0.4073520000000  0.5179630000000 1.0
C      1  0.4512210000000  0.4549360000000  0.4277320000000 1.0
C      1  0.4555030000000  0.5395730000000  0.5180670000000 1.0
C      1  0.4764700000000  0.4864670000000  0.4962180000000 1.0
C      1  0.4944810000000  0.4906150000000  0.5835140000000 1.0
C      1  0.4747240000000  0.5346570000000  0.3991250000000 1.0
C      1  0.4646500000000  0.5672610000000  0.4430120000000 1.0
C      1  0.5070960000000  0.5037050000000  0.5377010000000 1.0
C      1  0.4955660000000  0.5096680000000  0.6036020000000 1.0
C      1  0.5712090000000  0.4897280000000  0.5538230000000 1.0
C      1  0.4818200000000  0.4733420000000  0.4455020000000 1.0
C      1  0.4630700000000  0.4691040000000  0.4718760000000 1.0
C      1  0.5073130000000  0.5770070000000  0.5664170000000 1.0
C      1  0.4754490000000  0.5417140000000  0.4759270000000 1.0
C      1  0.4942440000000  0.4265460000000  0.5358060000000 1.0
C      1  0.4242460000000  0.4988770000000  0.4546760000000 1.0
C      1  0.4814760000000  0.4407220000000  0.5600530000000 1.0
C      1  0.5307210000000  0.5933180000000  0.5475680000000 1.0
C      1  0.4434450000000  0.4945360000000  0.4953940000000 1.0
C      1  0.4885640000000  0.4469420000000  0.5908550000000 1.0
C      1  0.5010640000000  0.4768880000000  0.5176760000000 1.0
C      1  0.5495340000000  0.4501490000000  0.5818200000000 1.0
C      1  0.5151240000000  0.5396480000000  0.4905650000000 1.0
C      1  0.4402650000000  0.5078000000000  0.4181510000000 1.0
C      1  0.4742560000000  0.5199650000000  0.4994370000000 1.0
C      1  0.5675560000000  0.5438370000000  0.5556040000000 1.0
C      1  0.5577440000000  0.4514650000000  0.4305260000000 1.0
C      1  0.4944190000000  0.4199330000000  0.4513180000000 1.0
C      1  0.4085820000000  0.5165510000000  0.5039390000000 1.0
C      1  0.4272410000000  0.4762600000000  0.5455300000000 1.0
C      1  0.5488990000000  0.5675490000000  0.5503420000000 1.0
C      1  0.4438370000000  0.5471420000000  0.5486340000000 1.0
C      1  0.4728810000000  0.4488620000000  0.5215900000000 1.0
C      1  0.5118590000000  0.5414760000000  0.4361780000000 1.0
C      1  0.5457080000000  0.4732650000000  0.4985200000000 1.0
C      1  0.4312110000000  0.4269050000000  0.5252550000000 1.0
C      1  0.5153790000000  0.5129700000000  0.4494490000000 1.0
C      1  0.4487000000000  0.5191510000000  0.5766270000000 1.0
C      1  0.4579690000000  0.4615980000000  0.5931570000000 1.0
C      1  0.4799350000000  0.4591310000000  0.4166620000000 1.0
C      1  0.5737420000000  0.4768780000000  0.4843630000000 1.0
C      1  0.5380410000000  0.5097380000000  0.5283140000000 1.0
C      1  0.5846060000000  0.5397710000000  0.4780350000000 1.0
C      1  0.4046410000000  0.4983330000000  0.4824560000000 1.0
C      1  0.4134030000000  0.5025760000000  0.5289370000000 1.0
C      1  0.5650070000000  0.5129750000000  0.4245420000000 1.0
C      1  0.5316400000000  0.5407010000000  0.5386230000000 1.0
C      1  0.5433580000000  0.4395520000000  0.5524710000000 1.0
C      1  0.5361230000000  0.5534700000000  0.4169680000000 1.0
C      1  0.5308150000000  0.4458840000000  0.4975800000000 1.0
C      1  0.4409460000000  0.4532730000000  0.5325190000000 1.0
C      1  0.5792750000000  0.4470360000000  0.4762730000000 1.0
C      1  0.5643720000000  0.5281610000000  0.4549570000000 1.0
C      1  0.5019350000000  0.5128510000000  0.4809440000000 1.0
C      1  0.5638680000000  0.4746910000000  0.5830230000000 1.0
C      1  0.5160490000000  0.5441290000000  0.5686670000000 1.0
C      1  0.5007460000000  0.4347680000000  0.4222580000000 1.0
C      1  0.5409520000000  0.5531890000000  0.4497660000000 1.0
C      1  0.5783110000000  0.5330250000000  0.5312330000000 1.0
C      1  0.5429390000000  0.5272970000000  0.5026840000000 1.0
C      1  0.4829790000000  0.5460200000000  0.4263800000000 1.0
C      1  0.5676910000000  0.5460130000000  0.5042720000000 1.0
C      1  0.4937210000000  0.5350000000000  0.5921860000000 1.0
C      1  0.4388300000000  0.5573500000000  0.5010230000000 1.0
C      1  0.4428300000000  0.4858090000000  0.5733780000000 1.0
C      1  0.4676070000000  0.5391930000000  0.5797520000000 1.0
C      1  0.5314440000000  0.4080960000000  0.5105970000000 1.0
C      1  0.5825920000000  0.4268590000000  0.4985250000000 1.0
C      1  0.5550580000000  0.4824480000000  0.4357290000000 1.0
C      1  0.4187740000000  0.4595530000000  0.4584680000000 1.0
C      1  0.5245630000000  0.4885030000000  0.4825330000000 1.0
C      1  0.5285390000000  0.4369530000000  0.4399160000000 1.0
C      1  0.4718900000000  0.4784590000000  0.5350770000000 1.0
C      1  0.5507860000000  0.4226690000000  0.4896940000000 1.0
C      1  0.4274130000000  0.4302850000000  0.4600320000000 1.0
C      1  0.4736560000000  0.4737750000000  0.5655520000000 1.0
C      1  0.5571460000000  0.4315500000000  0.4574560000000 1.0
C      1  0.5147800000000  0.4582560000000  0.5729370000000 1.0
C      1  0.5194890000000  0.4910490000000  0.5651220000000 1.0
C      1  0.5676290000000  0.4495430000000  0.5355580000000 1.0
C      1  0.4790510000000  0.4096380000000  0.5121630000000 1.0
C      1  0.4833170000000  0.5540360000000  0.5265870000000 1.0
C      1  0.5149900000000  0.5552610000000  0.5178030000000 1.0
C      1  0.5404430000000  0.5148040000000  0.4723670000000 1.0
C      1  0.4529620000000  0.4989610000000  0.5255650000000 1.0
C      1  0.4972330000000  0.5047020000000  0.6299020000000 1.0
C      1  0.5158970000000  0.4903580000000  0.4238940000000 1.0
C      1  0.5384340000000  0.5037850000000  0.4062760000000 1.0
C      1  0.5906140000000  0.4914100000000  0.5077820000000 1.0
C      1  0.4650050000000  0.5080360000000  0.4022690000000 1.0
END
