TITL C-2847957-7266-738 0.00137347154051346 125000 -254.818223437591 0 0 48 (C1) n - 1
REM
REM in /home/bkarasulu/work/CARBON/AIRSS/Generating-Clusters/AIREBO/with-SteepDescent/Only-C1/SD-CG-opt/Try1-1.4A-POS3A/HFTN-CG
REM
REM
REM
REM
REM
REM ./C.cell (11c1c37f851c82e70ff6c80c92926a4b)
REM
REM compiler GCC version 9.2.1 20190827 (Red Hat 9.2.1-1)
REM options -cpp -mtune=generic -march=x86-64 -g -O0 -fpre-include=/usr/include/finclude/math-vector-fortran.h
REM seed -850612422 1960436842 -457966157 402416314 1185909279 526063087 -1091369452 -1219990152 -182741320 -1029699233 924745190 -1021445457 1887239961 -859174431 904737111 -769412140 457828951 1118180320 324004772 -2061784491 -789223804 -129664940 1935164862 -1408173043 -49796116 1247682310 -1614261643 -746776670 794744969 529983801 1724740996 -1652760073 -2027247456
REM
CELL 1.54180   50.00000   50.00000   50.00000   90.00000   90.00000   90.00000
LATT -1
SFAC C  
C      1  0.5139520000000  0.5518700000000  0.4906200000000 1.0
C      1  0.4996070000000  0.4870980000000  0.5242100000000 1.0
C      1  0.5163590000000  0.4562870000000  0.4953650000000 1.0
C      1  0.5342220000000  0.4881170000000  0.4669500000000 1.0
C      1  0.4608310000000  0.5595680000000  0.4741730000000 1.0
C      1  0.5398610000000  0.5583000000000  0.5099990000000 1.0
C      1  0.5543920000000  0.4248740000000  0.5076060000000 1.0
C      1  0.4942610000000  0.4622250000000  0.4493250000000 1.0
C      1  0.4719870000000  0.4503890000000  0.4601940000000 1.0
C      1  0.4809690000000  0.5351170000000  0.4758040000000 1.0
C      1  0.4623120000000  0.4564900000000  0.4922200000000 1.0
C      1  0.4762060000000  0.5484790000000  0.5575200000000 1.0
C      1  0.4889650000000  0.4773540000000  0.4955030000000 1.0
C      1  0.4450210000000  0.5182380000000  0.5210690000000 1.0
C      1  0.4600190000000  0.4699750000000  0.5556160000000 1.0
C      1  0.4428950000000  0.5001470000000  0.5015510000000 1.0
C      1  0.5597860000000  0.4743080000000  0.5163860000000 1.0
C      1  0.4400420000000  0.4784310000000  0.4809100000000 1.0
C      1  0.4530060000000  0.4592830000000  0.5248140000000 1.0
C      1  0.4709540000000  0.5032210000000  0.4825850000000 1.0
C      1  0.5200210000000  0.4574480000000  0.4641660000000 1.0
C      1  0.4598350000000  0.4897640000000  0.5742820000000 1.0
C      1  0.4942170000000  0.4890940000000  0.4394450000000 1.0
C      1  0.4690320000000  0.5018750000000  0.4389260000000 1.0
C      1  0.5773960000000  0.4951180000000  0.5072360000000 1.0
C      1  0.5041470000000  0.5194320000000  0.5243490000000 1.0
C      1  0.4851570000000  0.4621010000000  0.5360970000000 1.0
C      1  0.5404380000000  0.5000000000000  0.4928650000000 1.0
C      1  0.5147990000000  0.5049090000000  0.4509950000000 1.0
C      1  0.4742390000000  0.5163920000000  0.5339950000000 1.0
C      1  0.5656640000000  0.5198530000000  0.4934940000000 1.0
C      1  0.5303360000000  0.4846860000000  0.5214900000000 1.0
C      1  0.5420890000000  0.5473830000000  0.4627200000000 1.0
C      1  0.5234510000000  0.5574030000000  0.5394040000000 1.0
C      1  0.5328050000000  0.5239090000000  0.5158070000000 1.0
C      1  0.4705140000000  0.5295950000000  0.4439210000000 1.0
C      1  0.4878510000000  0.5436670000000  0.5082500000000 1.0
C      1  0.5123400000000  0.5328300000000  0.4628690000000 1.0
C      1  0.4477940000000  0.5390240000000  0.5447730000000 1.0
C      1  0.4496190000000  0.4894240000000  0.4559570000000 1.0
C      1  0.4956400000000  0.5557110000000  0.5384160000000 1.0
C      1  0.5478790000000  0.5378770000000  0.5428940000000 1.0
C      1  0.5442170000000  0.4502820000000  0.5071470000000 1.0
C      1  0.4684240000000  0.5162480000000  0.5657340000000 1.0
C      1  0.5563050000000  0.5450070000000  0.4863790000000 1.0
C      1  0.5510470000000  0.4630210000000  0.4513550000000 1.0
C      1  0.4742970000000  0.4258090000000  0.5006780000000 1.0
C      1  0.4947990000000  0.4423670000000  0.5139360000000 1.0
END
