TITL C-2847953-8112-70 0.00114106261866283 125000 -395.708907782181 0 0 72 (C1) n - 1
REM
REM in /home/bkarasulu/work/CARBON/AIRSS/Generating-Clusters/AIREBO/with-SteepDescent/Only-C1/SD-CG-opt/Try1-1.4A-POS3A/HFTN-CG
REM
REM
REM
REM
REM
REM ./C.cell (11c1c37f851c82e70ff6c80c92926a4b)
REM
REM compiler GCC version 9.2.1 20190827 (Red Hat 9.2.1-1)
REM options -cpp -mtune=generic -march=x86-64 -g -O0 -fpre-include=/usr/include/finclude/math-vector-fortran.h
REM seed 604931696 -1840763458 -224357259 -837499522 1715069249 604928142 -187708685 -1561647679 -1867398613 -253179879 768068566 772499485 1799397895 -249558508 -528776387 -484474002 56440168 -1575365191 -949895092 -381078323 599793013 -2101442505 -1245342751 77463984 -369153887 497970554 967298489 -1454576736 -1868696688 718320503 1367849325 962271498 -34096785
REM
CELL 1.54180   50.00000   50.00000   50.00000   90.00000   90.00000   90.00000
LATT -1
SFAC C  
C      1  0.5640840000000  0.5071840000000  0.5068890000000 1.0
C      1  0.4542560000000  0.5308400000000  0.4469350000000 1.0
C      1  0.5009460000000  0.4605750000000  0.4687010000000 1.0
C      1  0.4939270000000  0.6105830000000  0.5557590000000 1.0
C      1  0.5462120000000  0.5325150000000  0.5112620000000 1.0
C      1  0.5395460000000  0.5020890000000  0.5420120000000 1.0
C      1  0.5530590000000  0.5147700000000  0.4639220000000 1.0
C      1  0.5493000000000  0.4658750000000  0.4602480000000 1.0
C      1  0.4749190000000  0.5652730000000  0.5300730000000 1.0
C      1  0.4672900000000  0.4989710000000  0.5126340000000 1.0
C      1  0.5223990000000  0.5696870000000  0.4630150000000 1.0
C      1  0.5312710000000  0.4979670000000  0.4026860000000 1.0
C      1  0.4558770000000  0.5238360000000  0.5569020000000 1.0
C      1  0.4880400000000  0.5121150000000  0.6093140000000 1.0
C      1  0.4296920000000  0.5120900000000  0.5089620000000 1.0
C      1  0.5723650000000  0.4434670000000  0.4979780000000 1.0
C      1  0.4998010000000  0.4994960000000  0.5186340000000 1.0
C      1  0.5814440000000  0.5144070000000  0.4810310000000 1.0
C      1  0.4253430000000  0.4800710000000  0.5503850000000 1.0
C      1  0.5041780000000  0.4313530000000  0.4858380000000 1.0
C      1  0.5416040000000  0.5465920000000  0.4599160000000 1.0
C      1  0.5489380000000  0.4474570000000  0.5108750000000 1.0
C      1  0.4560860000000  0.4738090000000  0.4956760000000 1.0
C      1  0.4617810000000  0.4978240000000  0.5700730000000 1.0
C      1  0.4567090000000  0.4703310000000  0.5533980000000 1.0
C      1  0.4904560000000  0.5602660000000  0.4604450000000 1.0
C      1  0.4582950000000  0.4268380000000  0.5183770000000 1.0
C      1  0.4475580000000  0.5336560000000  0.4959710000000 1.0
C      1  0.4834380000000  0.4964070000000  0.5874970000000 1.0
C      1  0.5348020000000  0.5336600000000  0.5428630000000 1.0
C      1  0.5124540000000  0.4852320000000  0.5459800000000 1.0
C      1  0.5071190000000  0.4824430000000  0.4929310000000 1.0
C      1  0.5179530000000  0.4520350000000  0.5037950000000 1.0
C      1  0.4412190000000  0.4855010000000  0.4690860000000 1.0
C      1  0.4999460000000  0.4604470000000  0.5272850000000 1.0
C      1  0.4459420000000  0.5569950000000  0.5153990000000 1.0
C      1  0.5890530000000  0.5460580000000  0.4840330000000 1.0
C      1  0.4557130000000  0.4673890000000  0.4491310000000 1.0
C      1  0.4188030000000  0.4944090000000  0.4909130000000 1.0
C      1  0.4556580000000  0.4397970000000  0.4564030000000 1.0
C      1  0.4942050000000  0.5514450000000  0.5111570000000 1.0
C      1  0.5721270000000  0.4948210000000  0.5357750000000 1.0
C      1  0.4559900000000  0.4407750000000  0.4873490000000 1.0
C      1  0.5032280000000  0.5698350000000  0.4895620000000 1.0
C      1  0.4401080000000  0.5192040000000  0.4680590000000 1.0
C      1  0.4992260000000  0.5280190000000  0.4667870000000 1.0
C      1  0.4784390000000  0.5170290000000  0.4434920000000 1.0
C      1  0.5465370000000  0.4843730000000  0.4887700000000 1.0
C      1  0.5223600000000  0.4658720000000  0.5938990000000 1.0
C      1  0.4771670000000  0.4262070000000  0.4424410000000 1.0
C      1  0.5130740000000  0.5276520000000  0.5181060000000 1.0
C      1  0.5748050000000  0.4885880000000  0.4609960000000 1.0
C      1  0.5042320000000  0.4774760000000  0.5764160000000 1.0
C      1  0.5262420000000  0.4493190000000  0.4526360000000 1.0
C      1  0.5050400000000  0.4309590000000  0.4422380000000 1.0
C      1  0.4616080000000  0.5587710000000  0.4489730000000 1.0
C      1  0.4805360000000  0.4206250000000  0.4954520000000 1.0
C      1  0.4666070000000  0.4582700000000  0.5234820000000 1.0
C      1  0.4513000000000  0.5483230000000  0.5458790000000 1.0
C      1  0.4803610000000  0.5254070000000  0.4951860000000 1.0
C      1  0.5771030000000  0.4581230000000  0.4759240000000 1.0
C      1  0.5231280000000  0.5064500000000  0.4777520000000 1.0
C      1  0.5378040000000  0.5475970000000  0.5686620000000 1.0
C      1  0.4436580000000  0.5032220000000  0.5350380000000 1.0
C      1  0.5437770000000  0.4764790000000  0.5217340000000 1.0
C      1  0.5589290000000  0.5469120000000  0.4868200000000 1.0
C      1  0.4863270000000  0.4580440000000  0.5576460000000 1.0
C      1  0.5170780000000  0.5056860000000  0.4240250000000 1.0
C      1  0.4912620000000  0.4948840000000  0.4318920000000 1.0
C      1  0.4844630000000  0.5905420000000  0.5431050000000 1.0
C      1  0.4835220000000  0.4721770000000  0.4457040000000 1.0
C      1  0.5222800000000  0.5266050000000  0.4418180000000 1.0
END
