TITL C-2847948-6138-59 0.369776380637784 125000 -217.495107506504 0 0 40 (C1) n - 1
REM
REM in /home/bkarasulu/work/CARBON/AIRSS/Generating-Clusters/AIREBO/with-SteepDescent/Only-C1/SD-CG-opt/Try1-1.4A-POS3A/HFTN-CG
REM
REM
REM
REM
REM
REM ./C.cell (11c1c37f851c82e70ff6c80c92926a4b)
REM
REM compiler GCC version 9.2.1 20190827 (Red Hat 9.2.1-1)
REM options -cpp -mtune=generic -march=x86-64 -g -O0 -fpre-include=/usr/include/finclude/math-vector-fortran.h
REM seed 1420976533 276080538 -968951533 -1420471527 1890929360 -2137238956 1551409138 -131721744 -1153300933 1931010181 -215956285 -836848683 633324254 304542680 15024928 1165714185 -588923643 2085278717 -867939838 -2065551985 1221888298 -1562214151 -1141926004 -1173266250 1380767022 940583334 -2000148423 1665526308 -387781444 1380498525 -352004028 1787631905 1420906392
REM
CELL 1.54180   50.00000   50.00000   50.00000   90.00000   90.00000   90.00000
LATT -1
SFAC C  
C      1  0.5082420000000  0.4631480000000  0.5477870000000 1.0
C      1  0.4780080000000  0.4854890000000  0.4575710000000 1.0
C      1  0.5182380000000  0.5185290000000  0.5625480000000 1.0
C      1  0.4245100000000  0.4839190000000  0.4804400000000 1.0
C      1  0.4732890000000  0.4665930000000  0.5154550000000 1.0
C      1  0.4605480000000  0.5168480000000  0.5042320000000 1.0
C      1  0.4939470000000  0.5266180000000  0.4362980000000 1.0
C      1  0.4727010000000  0.5616110000000  0.5303270000000 1.0
C      1  0.4530390000000  0.4718880000000  0.4667440000000 1.0
C      1  0.5294080000000  0.5054870000000  0.5335840000000 1.0
C      1  0.5726920000000  0.5311850000000  0.5080440000000 1.0
C      1  0.5294460000000  0.4753070000000  0.5314700000000 1.0
C      1  0.4475500000000  0.4682970000000  0.5001390000000 1.0
C      1  0.4913280000000  0.4493750000000  0.5278560000000 1.0
C      1  0.5183330000000  0.4822210000000  0.4280970000000 1.0
C      1  0.5296850000000  0.4620520000000  0.5057970000000 1.0
C      1  0.4762720000000  0.5167840000000  0.4548770000000 1.0
C      1  0.5128450000000  0.5409360000000  0.5410360000000 1.0
C      1  0.4964730000000  0.5130430000000  0.5297510000000 1.0
C      1  0.4349260000000  0.4980980000000  0.5094190000000 1.0
C      1  0.4994010000000  0.4937190000000  0.4810420000000 1.0
C      1  0.4989400000000  0.4762990000000  0.5709190000000 1.0
C      1  0.5676300000000  0.4892830000000  0.4522630000000 1.0
C      1  0.4638300000000  0.5363080000000  0.5274560000000 1.0
C      1  0.5389410000000  0.4874280000000  0.4520130000000 1.0
C      1  0.5225170000000  0.5133140000000  0.4312730000000 1.0
C      1  0.5917000000000  0.5448110000000  0.4962140000000 1.0
C      1  0.5211560000000  0.4522860000000  0.4586190000000 1.0
C      1  0.4627590000000  0.5284390000000  0.4753270000000 1.0
C      1  0.5529420000000  0.5196330000000  0.5212080000000 1.0
C      1  0.5120500000000  0.5221830000000  0.4774400000000 1.0
C      1  0.4705080000000  0.5140200000000  0.5517140000000 1.0
C      1  0.4934450000000  0.4726530000000  0.4335980000000 1.0
C      1  0.4403550000000  0.5067930000000  0.5402180000000 1.0
C      1  0.4947340000000  0.5041910000000  0.5694780000000 1.0
C      1  0.5121740000000  0.4386000000000  0.5098360000000 1.0
C      1  0.4996670000000  0.5648330000000  0.5358480000000 1.0
C      1  0.5273760000000  0.5283670000000  0.4581700000000 1.0
C      1  0.5241070000000  0.4745090000000  0.4787600000000 1.0
C      1  0.4842920000000  0.4949010000000  0.5071310000000 1.0
END
