TITL C-2847958-8115-328 0.00138962212249976 125000 -722.811030373761 0 0 131 (C1) n - 1
REM
REM in /home/bkarasulu/work/CARBON/AIRSS/Generating-Clusters/AIREBO/with-SteepDescent/Only-C1/SD-CG-opt/Try1-1.4A-POS3A/HFTN-CG
REM
REM
REM
REM
REM
REM ./C.cell (11c1c37f851c82e70ff6c80c92926a4b)
REM
REM compiler GCC version 9.2.1 20190827 (Red Hat 9.2.1-1)
REM options -cpp -mtune=generic -march=x86-64 -g -O0 -fpre-include=/usr/include/finclude/math-vector-fortran.h
REM seed -247304678 1767627765 -985992230 -1867520486 -936610888 358475157 -1093141046 304762445 465978405 -1504563425 -935567430 -1860885453 388955478 1905222002 2087312107 -1535639086 -1593224447 -684106093 1750596868 -827513987 -818641443 1674040574 -957934952 1719020764 1519327748 -2131186843 -1519886197 -1507152246 51681300 -418699182 891325461 787052216 -57713431
REM
CELL 1.54180   50.00000   50.00000   50.00000   90.00000   90.00000   90.00000
LATT -1
SFAC C  
C      1  0.6221670000000  0.5092440000000  0.4857330000000 1.0
C      1  0.4750960000000  0.5078300000000  0.4442840000000 1.0
C      1  0.4460610000000  0.5826070000000  0.4997500000000 1.0
C      1  0.5269340000000  0.4943870000000  0.4692320000000 1.0
C      1  0.5164560000000  0.5724360000000  0.5543130000000 1.0
C      1  0.4199910000000  0.5362570000000  0.5154430000000 1.0
C      1  0.3820260000000  0.5256160000000  0.4407560000000 1.0
C      1  0.4721920000000  0.4778590000000  0.5878080000000 1.0
C      1  0.4685410000000  0.5090360000000  0.3944380000000 1.0
C      1  0.5527640000000  0.5309650000000  0.5612560000000 1.0
C      1  0.4262100000000  0.4848210000000  0.5403740000000 1.0
C      1  0.4464050000000  0.4239740000000  0.4902220000000 1.0
C      1  0.4706670000000  0.4097410000000  0.4925680000000 1.0
C      1  0.6450060000000  0.5164110000000  0.4750560000000 1.0
C      1  0.5452940000000  0.4160060000000  0.5452090000000 1.0
C      1  0.5985600000000  0.5044360000000  0.4973920000000 1.0
C      1  0.5489270000000  0.5684660000000  0.5178080000000 1.0
C      1  0.5735070000000  0.5622200000000  0.5298270000000 1.0
C      1  0.4590760000000  0.4553620000000  0.4671540000000 1.0
C      1  0.4328380000000  0.4580840000000  0.5419470000000 1.0
C      1  0.4724560000000  0.5360240000000  0.5052990000000 1.0
C      1  0.4606570000000  0.4403540000000  0.5437750000000 1.0
C      1  0.5349570000000  0.4667090000000  0.4511600000000 1.0
C      1  0.5070160000000  0.5272110000000  0.4582810000000 1.0
C      1  0.4805320000000  0.5139250000000  0.5546950000000 1.0
C      1  0.5396520000000  0.4996670000000  0.5199320000000 1.0
C      1  0.6087000000000  0.4635820000000  0.5284050000000 1.0
C      1  0.4804020000000  0.4547960000000  0.5674010000000 1.0
C      1  0.4307960000000  0.5745000000000  0.5480890000000 1.0
C      1  0.4474350000000  0.5625150000000  0.4758880000000 1.0
C      1  0.5322250000000  0.5131490000000  0.4413430000000 1.0
C      1  0.4828900000000  0.4472940000000  0.4206260000000 1.0
C      1  0.4956500000000  0.4870540000000  0.6003480000000 1.0
C      1  0.4771250000000  0.5460660000000  0.4779720000000 1.0
C      1  0.5286510000000  0.5854630000000  0.5279840000000 1.0
C      1  0.5197840000000  0.5416010000000  0.5416470000000 1.0
C      1  0.4749450000000  0.5903800000000  0.5392480000000 1.0
C      1  0.5544340000000  0.4406130000000  0.4516990000000 1.0
C      1  0.4861480000000  0.5734110000000  0.5580190000000 1.0
C      1  0.5480440000000  0.5048300000000  0.5765840000000 1.0
C      1  0.4471660000000  0.5898110000000  0.5314430000000 1.0
C      1  0.4944740000000  0.4063620000000  0.5158550000000 1.0
C      1  0.4888640000000  0.4274710000000  0.5394720000000 1.0
C      1  0.4817150000000  0.4238040000000  0.4382880000000 1.0
C      1  0.4853750000000  0.5037240000000  0.5250220000000 1.0
C      1  0.4045810000000  0.4554800000000  0.4704850000000 1.0
C      1  0.4919340000000  0.5242210000000  0.3935870000000 1.0
C      1  0.4903240000000  0.5874200000000  0.4587620000000 1.0
C      1  0.4669400000000  0.5712710000000  0.4494850000000 1.0
C      1  0.5455900000000  0.5293270000000  0.5280200000000 1.0
C      1  0.5284010000000  0.4272240000000  0.5187500000000 1.0
C      1  0.4317520000000  0.4806850000000  0.4853820000000 1.0
C      1  0.4484420000000  0.5185650000000  0.5095580000000 1.0
C      1  0.5017510000000  0.4209260000000  0.5655220000000 1.0
C      1  0.5585540000000  0.4781450000000  0.5024160000000 1.0
C      1  0.5302630000000  0.4681250000000  0.4905960000000 1.0
C      1  0.5318740000000  0.4028320000000  0.4733380000000 1.0
C      1  0.5985540000000  0.4412750000000  0.5236610000000 1.0
C      1  0.6027000000000  0.5220990000000  0.4422430000000 1.0
C      1  0.5559590000000  0.5364250000000  0.4437500000000 1.0
C      1  0.5167770000000  0.4810480000000  0.4024950000000 1.0
C      1  0.5492030000000  0.4239460000000  0.4726610000000 1.0
C      1  0.5439800000000  0.5142890000000  0.4909960000000 1.0
C      1  0.5703010000000  0.4792520000000  0.4375800000000 1.0
C      1  0.5030670000000  0.4076430000000  0.4828400000000 1.0
C      1  0.5326630000000  0.5551920000000  0.4273430000000 1.0
C      1  0.4635290000000  0.5365770000000  0.4502810000000 1.0
C      1  0.4369900000000  0.4542570000000  0.4340840000000 1.0
C      1  0.4176730000000  0.5698520000000  0.5106470000000 1.0
C      1  0.4352660000000  0.5281940000000  0.4571130000000 1.0
C      1  0.5739380000000  0.5066020000000  0.4791650000000 1.0
C      1  0.5349040000000  0.5457380000000  0.5002050000000 1.0
C      1  0.3954930000000  0.5248590000000  0.4905410000000 1.0
C      1  0.5032590000000  0.5272100000000  0.5750860000000 1.0
C      1  0.4831590000000  0.4550150000000  0.4888810000000 1.0
C      1  0.5110990000000  0.4519580000000  0.5327640000000 1.0
C      1  0.4631680000000  0.4924350000000  0.4170130000000 1.0
C      1  0.5563760000000  0.5698850000000  0.4435820000000 1.0
C      1  0.5004310000000  0.4896150000000  0.4307750000000 1.0
C      1  0.4238900000000  0.4987710000000  0.4576590000000 1.0
C      1  0.5788200000000  0.4806480000000  0.5484220000000 1.0
C      1  0.4328080000000  0.4377820000000  0.4636610000000 1.0
C      1  0.5404070000000  0.4631990000000  0.5459750000000 1.0
C      1  0.4910980000000  0.4767080000000  0.5447450000000 1.0
C      1  0.3973100000000  0.5175170000000  0.4602120000000 1.0
C      1  0.4917990000000  0.4324820000000  0.4674120000000 1.0
C      1  0.5296070000000  0.4313880000000  0.5676030000000 1.0
C      1  0.5625160000000  0.4762950000000  0.4686930000000 1.0
C      1  0.5162610000000  0.4957790000000  0.5747420000000 1.0
C      1  0.5146670000000  0.5135890000000  0.4122250000000 1.0
C      1  0.4453050000000  0.5277570000000  0.5666220000000 1.0
C      1  0.4788900000000  0.5822530000000  0.5083930000000 1.0
C      1  0.4938510000000  0.5982030000000  0.4848400000000 1.0
C      1  0.5216380000000  0.4893760000000  0.5417810000000 1.0
C      1  0.5800090000000  0.5239730000000  0.4550830000000 1.0
C      1  0.5464590000000  0.4569170000000  0.5788450000000 1.0
C      1  0.5130760000000  0.4619020000000  0.5746840000000 1.0
C      1  0.4817740000000  0.4711230000000  0.4523670000000 1.0
C      1  0.4432540000000  0.4416970000000  0.5140340000000 1.0
C      1  0.4750300000000  0.5451100000000  0.5654340000000 1.0
C      1  0.3992590000000  0.4749840000000  0.4925400000000 1.0
C      1  0.4593340000000  0.4638120000000  0.4201350000000 1.0
C      1  0.4597520000000  0.4986930000000  0.5741650000000 1.0
C      1  0.4966520000000  0.5349770000000  0.5248260000000 1.0
C      1  0.5484060000000  0.4399050000000  0.4977110000000 1.0
C      1  0.4287370000000  0.4946640000000  0.5142550000000 1.0
C      1  0.5981980000000  0.5221920000000  0.5440550000000 1.0
C      1  0.5676780000000  0.4305770000000  0.5241660000000 1.0
C      1  0.5080150000000  0.5541700000000  0.4718820000000 1.0
C      1  0.4716990000000  0.4971590000000  0.4969250000000 1.0
C      1  0.5788000000000  0.5406270000000  0.5471740000000 1.0
C      1  0.5227750000000  0.3955880000000  0.5299720000000 1.0
C      1  0.4233750000000  0.5424410000000  0.4821710000000 1.0
C      1  0.4011870000000  0.5230860000000  0.5405290000000 1.0
C      1  0.5042020000000  0.5600200000000  0.5037790000000 1.0
C      1  0.4928610000000  0.5012920000000  0.4725420000000 1.0
C      1  0.5281720000000  0.5484900000000  0.5740900000000 1.0
C      1  0.4322660000000  0.5476990000000  0.5450250000000 1.0
C      1  0.4571540000000  0.4687310000000  0.5047080000000 1.0
C      1  0.5174450000000  0.5751140000000  0.4500820000000 1.0
C      1  0.5055610000000  0.4637210000000  0.5044420000000 1.0
C      1  0.4165340000000  0.4703820000000  0.4475510000000 1.0
C      1  0.4195300000000  0.5082010000000  0.5560440000000 1.0
C      1  0.5649130000000  0.4624630000000  0.5273580000000 1.0
C      1  0.5639550000000  0.4823250000000  0.5720010000000 1.0
C      1  0.5081680000000  0.4527690000000  0.4427280000000 1.0
C      1  0.5536480000000  0.4930100000000  0.4242670000000 1.0
C      1  0.5997430000000  0.4955390000000  0.5267070000000 1.0
C      1  0.3859340000000  0.4971910000000  0.5009440000000 1.0
C      1  0.5142950000000  0.6006120000000  0.5083970000000 1.0
C      1  0.5455770000000  0.5934400000000  0.4567440000000 1.0
END
