TITL C-2847944-5688-430 0.000436949387921241 125000 -139.555303807125 0 0 25 (C1) n - 1
REM
REM in /home/bkarasulu/work/CARBON/AIRSS/Generating-Clusters/AIREBO/with-SteepDescent/Only-C1/SD-CG-opt/Try1-1.4A-POS3A/HFTN-CG
REM
REM
REM
REM
REM
REM ./C.cell (11c1c37f851c82e70ff6c80c92926a4b)
REM
REM compiler GCC version 9.2.1 20190827 (Red Hat 9.2.1-1)
REM options -cpp -mtune=generic -march=x86-64 -g -O0 -fpre-include=/usr/include/finclude/math-vector-fortran.h
REM seed 601574946 -783058221 1911785143 -872980804 227869955 -1933927135 -1470152198 1466312166 -105001888 -1052885528 -1896560300 1154492264 1916200375 92834084 165350671 -1096047898 1342273935 778281675 -1121775796 2101411015 -1438604230 925840957 -981028569 -934333576 366814286 1884049015 -1155534075 27548786 431043885 265307770 340912286 -1653031467 -1151849187
REM
CELL 1.54180   50.00000   50.00000   50.00000   90.00000   90.00000   90.00000
LATT -1
SFAC C  
C      1  0.4735830000000  0.5052070000000  0.4839100000000 1.0
C      1  0.5325790000000  0.4787350000000  0.5552250000000 1.0
C      1  0.4515460000000  0.4961520000000  0.4950870000000 1.0
C      1  0.3861820000000  0.4734010000000  0.5339820000000 1.0
C      1  0.5196600000000  0.4997610000000  0.5060100000000 1.0
C      1  0.5002450000000  0.4908580000000  0.4834080000000 1.0
C      1  0.4073640000000  0.4805920000000  0.5203200000000 1.0
C      1  0.5014700000000  0.5467190000000  0.4957800000000 1.0
C      1  0.5193630000000  0.5032470000000  0.5530530000000 1.0
C      1  0.5386170000000  0.4643840000000  0.5316320000000 1.0
C      1  0.5479500000000  0.4937590000000  0.4600070000000 1.0
C      1  0.5423900000000  0.4824970000000  0.5074240000000 1.0
C      1  0.5148210000000  0.5162930000000  0.5282370000000 1.0
C      1  0.4587820000000  0.5486250000000  0.4619280000000 1.0
C      1  0.4301880000000  0.4878970000000  0.5086890000000 1.0
C      1  0.5108100000000  0.5328520000000  0.4673070000000 1.0
C      1  0.5233780000000  0.4475780000000  0.5115850000000 1.0
C      1  0.5075110000000  0.5426400000000  0.5221290000000 1.0
C      1  0.5353240000000  0.4512040000000  0.4818870000000 1.0
C      1  0.5067240000000  0.5619800000000  0.5408320000000 1.0
C      1  0.5155510000000  0.5009430000000  0.4577900000000 1.0
C      1  0.5393920000000  0.5244630000000  0.4510280000000 1.0
C      1  0.4783320000000  0.5345890000000  0.4750880000000 1.0
C      1  0.5046500000000  0.4603070000000  0.4875800000000 1.0
C      1  0.5535880000000  0.4753180000000  0.4800850000000 1.0
END
