TITL C-2848505-4874-550 4.92375810720206e-05 125000 -299.802491277277 0 0 56 (C1) n - 1
REM
REM in /home/bkarasulu/work/CARBON/AIRSS/Generating-Clusters/AIREBO/with-SteepDescent/Only-C1/SD-CG-opt/Try1-1.4A-POS3A/HFTN-CG
REM
REM
REM
REM
REM
REM ./C.cell (11c1c37f851c82e70ff6c80c92926a4b)
REM
REM compiler GCC version 9.2.1 20190827 (Red Hat 9.2.1-1)
REM options -cpp -mtune=generic -march=x86-64 -g -O0 -fpre-include=/usr/include/finclude/math-vector-fortran.h
REM seed -626013813 -864913017 -839444753 -852172988 1149740135 -871423407 -646511183 1837670112 753682908 -204940653 -2130939395 -1887426153 -607907931 -453022111 908246364 -58784697 1734797595 1779245789 -1004022461 1498018754 2059704855 -186929356 1499107822 934263934 665351678 -1376111103 1433016199 1222028730 2027975245 -600247092 616304803 755310397 1570244209
REM
CELL 1.54180   50.00000   50.00000   50.00000   90.00000   90.00000   90.00000
LATT -1
SFAC C  
C      1  0.4794890000000  0.5171940000000  0.4803900000000 1.0
C      1  0.4911440000000  0.4527660000000  0.4380460000000 1.0
C      1  0.5160220000000  0.4404510000000  0.5381030000000 1.0
C      1  0.4760020000000  0.5580460000000  0.5262680000000 1.0
C      1  0.5421370000000  0.4979540000000  0.4932450000000 1.0
C      1  0.5701050000000  0.5041440000000  0.4747220000000 1.0
C      1  0.4648620000000  0.5206290000000  0.5417830000000 1.0
C      1  0.4546810000000  0.5587030000000  0.5041960000000 1.0
C      1  0.4293720000000  0.5107690000000  0.4878710000000 1.0
C      1  0.4625770000000  0.5197060000000  0.5082220000000 1.0
C      1  0.4880440000000  0.5623250000000  0.4622330000000 1.0
C      1  0.4504130000000  0.4865080000000  0.4895620000000 1.0
C      1  0.4333450000000  0.4917200000000  0.4605850000000 1.0
C      1  0.4362560000000  0.4578990000000  0.4636690000000 1.0
C      1  0.4617130000000  0.4678850000000  0.4460720000000 1.0
C      1  0.4741260000000  0.5183880000000  0.4301470000000 1.0
C      1  0.5243020000000  0.5456790000000  0.4909090000000 1.0
C      1  0.5121200000000  0.4424300000000  0.4627100000000 1.0
C      1  0.4789500000000  0.5000210000000  0.4090570000000 1.0
C      1  0.5045900000000  0.5120000000000  0.5218360000000 1.0
C      1  0.5559780000000  0.5052000000000  0.5553810000000 1.0
C      1  0.5027140000000  0.4310300000000  0.5156060000000 1.0
C      1  0.5277230000000  0.5537920000000  0.5298580000000 1.0
C      1  0.4751960000000  0.4687080000000  0.5596120000000 1.0
C      1  0.4785970000000  0.5692780000000  0.4883290000000 1.0
C      1  0.5838110000000  0.5264560000000  0.4759820000000 1.0
C      1  0.4781680000000  0.4916510000000  0.5179730000000 1.0
C      1  0.5519870000000  0.5484400000000  0.5065870000000 1.0
C      1  0.4961730000000  0.4411290000000  0.4912670000000 1.0
C      1  0.4890700000000  0.5150330000000  0.5584020000000 1.0
C      1  0.5016220000000  0.4738790000000  0.4623180000000 1.0
C      1  0.4659720000000  0.4997940000000  0.4554520000000 1.0
C      1  0.4426950000000  0.4475630000000  0.4902580000000 1.0
C      1  0.5360540000000  0.5000390000000  0.5266320000000 1.0
C      1  0.4997020000000  0.4820820000000  0.4934600000000 1.0
C      1  0.5202890000000  0.4871200000000  0.5883320000000 1.0
C      1  0.5196710000000  0.4740280000000  0.5411790000000 1.0
C      1  0.5170120000000  0.5623560000000  0.4641270000000 1.0
C      1  0.4357990000000  0.5363660000000  0.4995640000000 1.0
C      1  0.5420110000000  0.4451510000000  0.4672360000000 1.0
C      1  0.5772360000000  0.5487210000000  0.4902610000000 1.0
C      1  0.5455730000000  0.4943970000000  0.5848650000000 1.0
C      1  0.4646600000000  0.4702150000000  0.5345760000000 1.0
C      1  0.4463400000000  0.4542240000000  0.5198600000000 1.0
C      1  0.5042090000000  0.5666260000000  0.5089150000000 1.0
C      1  0.4769440000000  0.4738750000000  0.4162700000000 1.0
C      1  0.4723420000000  0.4620930000000  0.4905490000000 1.0
C      1  0.5566650000000  0.4751550000000  0.4726240000000 1.0
C      1  0.5448650000000  0.4572650000000  0.4970770000000 1.0
C      1  0.5505040000000  0.5300260000000  0.5336170000000 1.0
C      1  0.5766400000000  0.4990540000000  0.5814130000000 1.0
C      1  0.5122830000000  0.5139270000000  0.4887730000000 1.0
C      1  0.4783030000000  0.5373800000000  0.4536740000000 1.0
C      1  0.5219700000000  0.4670430000000  0.5091700000000 1.0
C      1  0.5010060000000  0.4866720000000  0.5638750000000 1.0
C      1  0.4999660000000  0.5390160000000  0.5372980000000 1.0
END
