TITL C-2848504-8560-76 0.000942847245191074 125000 -550.62267048736 0 0 99 (C1) n - 1
REM
REM in /home/bkarasulu/work/CARBON/AIRSS/Generating-Clusters/AIREBO/with-SteepDescent/Only-C1/SD-CG-opt/Try1-1.4A-POS3A/HFTN-CG
REM
REM
REM
REM
REM
REM ./C.cell (11c1c37f851c82e70ff6c80c92926a4b)
REM
REM compiler GCC version 9.2.1 20190827 (Red Hat 9.2.1-1)
REM options -cpp -mtune=generic -march=x86-64 -g -O0 -fpre-include=/usr/include/finclude/math-vector-fortran.h
REM seed 1764645903 -1363033395 1050250999 1916084617 -1192187097 2142358446 1368540498 -1633950483 1666233943 877403678 -629495631 -1026488662 422145262 25387008 -1510933824 2134390707 -1986930305 2078224183 -644455771 -1863768148 1609167155 1638665122 -246928417 -1064034418 -208489894 -1383853203 -1470258947 -1010179209 -1024614507 1115380541 2033884866 -1824661000 918772284
REM
CELL 1.54180   50.00000   50.00000   50.00000   90.00000   90.00000   90.00000
LATT -1
SFAC C  
C      1  0.5506860000000  0.4299340000000  0.4686560000000 1.0
C      1  0.4924420000000  0.5620880000000  0.5714610000000 1.0
C      1  0.4987520000000  0.5040260000000  0.4914670000000 1.0
C      1  0.4293450000000  0.5249580000000  0.5312020000000 1.0
C      1  0.4335700000000  0.4615970000000  0.5395590000000 1.0
C      1  0.4754710000000  0.5116010000000  0.4677600000000 1.0
C      1  0.5040650000000  0.4456650000000  0.4895250000000 1.0
C      1  0.4705250000000  0.5441180000000  0.5671860000000 1.0
C      1  0.5520300000000  0.4508390000000  0.4892290000000 1.0
C      1  0.4631090000000  0.4475950000000  0.5739160000000 1.0
C      1  0.4879240000000  0.5092990000000  0.5760040000000 1.0
C      1  0.4527050000000  0.5214780000000  0.4466660000000 1.0
C      1  0.4578620000000  0.5723880000000  0.5287750000000 1.0
C      1  0.4330370000000  0.4396590000000  0.5187990000000 1.0
C      1  0.5007730000000  0.5603540000000  0.4747100000000 1.0
C      1  0.5117250000000  0.5636210000000  0.5262410000000 1.0
C      1  0.5124990000000  0.4533880000000  0.5535470000000 1.0
C      1  0.4984930000000  0.5047390000000  0.5245310000000 1.0
C      1  0.4572620000000  0.5210040000000  0.5834770000000 1.0
C      1  0.5528860000000  0.4411970000000  0.4426870000000 1.0
C      1  0.4871400000000  0.5801860000000  0.4511030000000 1.0
C      1  0.4618750000000  0.4180120000000  0.4811260000000 1.0
C      1  0.4346240000000  0.4801900000000  0.4726190000000 1.0
C      1  0.4641270000000  0.4680730000000  0.4828130000000 1.0
C      1  0.4963420000000  0.4744230000000  0.4754200000000 1.0
C      1  0.4781730000000  0.5286410000000  0.5152050000000 1.0
C      1  0.4826370000000  0.4586230000000  0.5493240000000 1.0
C      1  0.4955440000000  0.5913890000000  0.4877510000000 1.0
C      1  0.5242950000000  0.5386900000000  0.5397010000000 1.0
C      1  0.4598120000000  0.5696250000000  0.4499710000000 1.0
C      1  0.5286350000000  0.5152510000000  0.4821270000000 1.0
C      1  0.4897920000000  0.5558640000000  0.5050120000000 1.0
C      1  0.4504100000000  0.4749700000000  0.5131940000000 1.0
C      1  0.5493100000000  0.5544070000000  0.5666680000000 1.0
C      1  0.5298800000000  0.4753030000000  0.4809760000000 1.0
C      1  0.5719760000000  0.5637710000000  0.4948100000000 1.0
C      1  0.5134670000000  0.4045340000000  0.5370720000000 1.0
C      1  0.5110770000000  0.4095620000000  0.5047740000000 1.0
C      1  0.5596610000000  0.5243890000000  0.5248470000000 1.0
C      1  0.4535580000000  0.4931750000000  0.5651810000000 1.0
C      1  0.4794360000000  0.4087770000000  0.4619690000000 1.0
C      1  0.4661030000000  0.4696910000000  0.4352220000000 1.0
C      1  0.5740560000000  0.4981520000000  0.4913700000000 1.0
C      1  0.5144640000000  0.5354240000000  0.4628700000000 1.0
C      1  0.5303490000000  0.4724030000000  0.5330410000000 1.0
C      1  0.5316500000000  0.5063860000000  0.5319680000000 1.0
C      1  0.4352130000000  0.5192070000000  0.5575480000000 1.0
C      1  0.5309610000000  0.4113360000000  0.4771680000000 1.0
C      1  0.4264180000000  0.5143690000000  0.4535600000000 1.0
C      1  0.5180230000000  0.4232000000000  0.5531410000000 1.0
C      1  0.4652230000000  0.5426150000000  0.5396540000000 1.0
C      1  0.4233250000000  0.4482420000000  0.4938460000000 1.0
C      1  0.4900110000000  0.5412130000000  0.4265400000000 1.0
C      1  0.5301010000000  0.4735670000000  0.5728330000000 1.0
C      1  0.4129610000000  0.4771030000000  0.4933420000000 1.0
C      1  0.5735840000000  0.5207120000000  0.4702380000000 1.0
C      1  0.4319330000000  0.5025070000000  0.5056620000000 1.0
C      1  0.4947470000000  0.4797410000000  0.4418660000000 1.0
C      1  0.5209860000000  0.5811120000000  0.5022100000000 1.0
C      1  0.5791250000000  0.5366400000000  0.4997680000000 1.0
C      1  0.5267960000000  0.4494910000000  0.5109540000000 1.0
C      1  0.4477650000000  0.5696460000000  0.4754730000000 1.0
C      1  0.4325500000000  0.5516290000000  0.5195200000000 1.0
C      1  0.5618250000000  0.4721420000000  0.5334560000000 1.0
C      1  0.5395430000000  0.5384530000000  0.5013050000000 1.0
C      1  0.5713590000000  0.5044260000000  0.4405290000000 1.0
C      1  0.5507540000000  0.5307520000000  0.4467610000000 1.0
C      1  0.5765080000000  0.4957710000000  0.5310850000000 1.0
C      1  0.5451060000000  0.4942360000000  0.5031770000000 1.0
C      1  0.5412960000000  0.5665680000000  0.4844200000000 1.0
C      1  0.4498810000000  0.4529000000000  0.4436080000000 1.0
C      1  0.5968250000000  0.4936650000000  0.5089710000000 1.0
C      1  0.5166580000000  0.4676090000000  0.4249210000000 1.0
C      1  0.5414240000000  0.4215720000000  0.5143280000000 1.0
C      1  0.4620240000000  0.5451070000000  0.4341400000000 1.0
C      1  0.4665310000000  0.5796150000000  0.4978780000000 1.0
C      1  0.4450850000000  0.4417330000000  0.4728210000000 1.0
C      1  0.5605060000000  0.4722120000000  0.4409900000000 1.0
C      1  0.4586110000000  0.5199190000000  0.4937630000000 1.0
C      1  0.4432060000000  0.4662400000000  0.5642880000000 1.0
C      1  0.4831300000000  0.4914070000000  0.5488630000000 1.0
C      1  0.5640270000000  0.5433700000000  0.5499430000000 1.0
C      1  0.5375600000000  0.4867500000000  0.4225780000000 1.0
C      1  0.4881870000000  0.5748560000000  0.5443370000000 1.0
C      1  0.5068780000000  0.5633670000000  0.4353670000000 1.0
C      1  0.5142940000000  0.5174620000000  0.5786570000000 1.0
C      1  0.5279700000000  0.4414510000000  0.4268050000000 1.0
C      1  0.5297340000000  0.5125980000000  0.4296270000000 1.0
C      1  0.5315920000000  0.4999910000000  0.5653740000000 1.0
C      1  0.4364110000000  0.5453280000000  0.4895650000000 1.0
C      1  0.4667070000000  0.4468350000000  0.5231910000000 1.0
C      1  0.5042830000000  0.4201880000000  0.4669480000000 1.0
C      1  0.4193270000000  0.5201180000000  0.4792580000000 1.0
C      1  0.5190360000000  0.5468570000000  0.5718210000000 1.0
C      1  0.5359780000000  0.5588460000000  0.4520740000000 1.0
C      1  0.5690530000000  0.4511620000000  0.5167230000000 1.0
C      1  0.4983410000000  0.5135610000000  0.4426590000000 1.0
C      1  0.4816880000000  0.4272510000000  0.5038110000000 1.0
C      1  0.5453850000000  0.4938940000000  0.4611060000000 1.0
END
