TITL C-2848503-6230-716 -0.000262213524202331 125000 -602.873093328113 0 0 112 (C1) n - 1
REM
REM in /home/bkarasulu/work/CARBON/AIRSS/Generating-Clusters/AIREBO/with-SteepDescent/Only-C1/SD-CG-opt/Try1-1.4A-POS3A/HFTN-CG
REM
REM
REM
REM
REM
REM ./C.cell (11c1c37f851c82e70ff6c80c92926a4b)
REM
REM compiler GCC version 9.2.1 20190827 (Red Hat 9.2.1-1)
REM options -cpp -mtune=generic -march=x86-64 -g -O0 -fpre-include=/usr/include/finclude/math-vector-fortran.h
REM seed -1948230115 -405966870 592635437 1980996273 -326207685 -612377806 -1716652866 -127271830 223967758 -436095533 -1738676363 -111894279 -1065428767 522878015 1475001277 -1127964511 2005857292 1344085069 1086716858 -927574787 -812760004 1455830690 226492182 135659471 -636363789 1605977312 -127484979 14472862 -374070427 495760657 449493663 -434422075 2079584061
REM
CELL 1.54180   50.00000   50.00000   50.00000   90.00000   90.00000   90.00000
LATT -1
SFAC C  
C      1  0.4155770000000  0.4831520000000  0.4427280000000 1.0
C      1  0.4060600000000  0.5008000000000  0.4899010000000 1.0
C      1  0.4963230000000  0.4819510000000  0.5915790000000 1.0
C      1  0.5108350000000  0.5381140000000  0.5858280000000 1.0
C      1  0.5274320000000  0.4860800000000  0.5406370000000 1.0
C      1  0.4943510000000  0.4380660000000  0.5562850000000 1.0
C      1  0.4469160000000  0.5127410000000  0.4745940000000 1.0
C      1  0.5353830000000  0.5188860000000  0.5834500000000 1.0
C      1  0.4760630000000  0.5319160000000  0.4044480000000 1.0
C      1  0.4615380000000  0.5634400000000  0.5385340000000 1.0
C      1  0.5718970000000  0.5651460000000  0.5283350000000 1.0
C      1  0.4991980000000  0.5165850000000  0.5543460000000 1.0
C      1  0.5593470000000  0.4484780000000  0.5369030000000 1.0
C      1  0.4722080000000  0.4234390000000  0.4527130000000 1.0
C      1  0.4627800000000  0.4277570000000  0.5490000000000 1.0
C      1  0.5251590000000  0.5994080000000  0.5208150000000 1.0
C      1  0.4695570000000  0.4570080000000  0.4275610000000 1.0
C      1  0.5024650000000  0.5557790000000  0.5603570000000 1.0
C      1  0.4505280000000  0.4130440000000  0.5305120000000 1.0
C      1  0.5122480000000  0.4965100000000  0.5125560000000 1.0
C      1  0.5468430000000  0.4162240000000  0.5035700000000 1.0
C      1  0.4432210000000  0.4743200000000  0.5050680000000 1.0
C      1  0.4285220000000  0.4826120000000  0.4177760000000 1.0
C      1  0.4303700000000  0.5308530000000  0.5567740000000 1.0
C      1  0.5346710000000  0.4737380000000  0.4173710000000 1.0
C      1  0.5935750000000  0.5001010000000  0.5117920000000 1.0
C      1  0.5164300000000  0.4045400000000  0.4954990000000 1.0
C      1  0.4719300000000  0.5063700000000  0.4142630000000 1.0
C      1  0.4546890000000  0.5243770000000  0.5338910000000 1.0
C      1  0.4871500000000  0.4587550000000  0.4824070000000 1.0
C      1  0.5015230000000  0.4701190000000  0.4538140000000 1.0
C      1  0.4166210000000  0.5070580000000  0.4602130000000 1.0
C      1  0.5134330000000  0.5946100000000  0.4713150000000 1.0
C      1  0.4648590000000  0.4844030000000  0.4808500000000 1.0
C      1  0.5029720000000  0.5292210000000  0.5116290000000 1.0
C      1  0.5699280000000  0.4935770000000  0.4894140000000 1.0
C      1  0.5359860000000  0.4603500000000  0.5465350000000 1.0
C      1  0.4238240000000  0.5583840000000  0.5052560000000 1.0
C      1  0.5355490000000  0.4592890000000  0.3956400000000 1.0
C      1  0.4669830000000  0.5160370000000  0.5619150000000 1.0
C      1  0.5794750000000  0.4672820000000  0.5343720000000 1.0
C      1  0.5538150000000  0.5293950000000  0.4266960000000 1.0
C      1  0.4584130000000  0.4994280000000  0.5816050000000 1.0
C      1  0.4866120000000  0.5103290000000  0.4787670000000 1.0
C      1  0.4684070000000  0.4692870000000  0.5833750000000 1.0
C      1  0.5393350000000  0.4127420000000  0.4716900000000 1.0
C      1  0.4440510000000  0.5570190000000  0.5597010000000 1.0
C      1  0.4160080000000  0.4860840000000  0.5102040000000 1.0
C      1  0.4956960000000  0.4405590000000  0.4380300000000 1.0
C      1  0.4874750000000  0.5497070000000  0.4728940000000 1.0
C      1  0.6044040000000  0.5306120000000  0.5127930000000 1.0
C      1  0.4149040000000  0.4598860000000  0.4571350000000 1.0
C      1  0.4625630000000  0.4353010000000  0.4807990000000 1.0
C      1  0.5433590000000  0.4852850000000  0.5039540000000 1.0
C      1  0.4554700000000  0.4526040000000  0.6015680000000 1.0
C      1  0.5139960000000  0.5554010000000  0.4934000000000 1.0
C      1  0.4295940000000  0.5371730000000  0.4598750000000 1.0
C      1  0.4860610000000  0.5246610000000  0.4497200000000 1.0
C      1  0.5706830000000  0.4854480000000  0.5819460000000 1.0
C      1  0.5422740000000  0.5095100000000  0.5528360000000 1.0
C      1  0.5207460000000  0.4439130000000  0.5679910000000 1.0
C      1  0.4177510000000  0.5605610000000  0.4791820000000 1.0
C      1  0.5343970000000  0.5054760000000  0.4175380000000 1.0
C      1  0.4388480000000  0.4543700000000  0.4778350000000 1.0
C      1  0.4519090000000  0.5477040000000  0.5129740000000 1.0
C      1  0.5709640000000  0.5323420000000  0.5186950000000 1.0
C      1  0.5414050000000  0.4196530000000  0.5579270000000 1.0
C      1  0.5447610000000  0.5435530000000  0.5017620000000 1.0
C      1  0.5011510000000  0.5801830000000  0.5133650000000 1.0
C      1  0.4608810000000  0.5845400000000  0.4635570000000 1.0
C      1  0.5804050000000  0.4891920000000  0.5559570000000 1.0
C      1  0.4652150000000  0.5342940000000  0.4899060000000 1.0
C      1  0.5538090000000  0.4200380000000  0.5294730000000 1.0
C      1  0.5402970000000  0.5541470000000  0.5317690000000 1.0
C      1  0.4948110000000  0.4439830000000  0.5251030000000 1.0
C      1  0.4022060000000  0.4784610000000  0.5325880000000 1.0
C      1  0.5430440000000  0.4892630000000  0.5880570000000 1.0
C      1  0.5250340000000  0.4357320000000  0.4526570000000 1.0
C      1  0.4994350000000  0.4655980000000  0.5100120000000 1.0
C      1  0.5638410000000  0.5000510000000  0.5282980000000 1.0
C      1  0.5326750000000  0.5009730000000  0.4500030000000 1.0
C      1  0.4565720000000  0.4802950000000  0.4131860000000 1.0
C      1  0.5616900000000  0.5086580000000  0.4659770000000 1.0
C      1  0.5185780000000  0.5060730000000  0.4805300000000 1.0
C      1  0.4864410000000  0.5822280000000  0.4827630000000 1.0
C      1  0.5258480000000  0.5363840000000  0.5488850000000 1.0
C      1  0.4527880000000  0.4715200000000  0.4519860000000 1.0
C      1  0.5463470000000  0.5859810000000  0.5310590000000 1.0
C      1  0.4970980000000  0.5088930000000  0.5868520000000 1.0
C      1  0.5330610000000  0.5489340000000  0.4437360000000 1.0
C      1  0.4900890000000  0.4211980000000  0.5061270000000 1.0
C      1  0.5037510000000  0.4296850000000  0.4764090000000 1.0
C      1  0.5258070000000  0.4729810000000  0.4775360000000 1.0
C      1  0.5968580000000  0.4746690000000  0.4898970000000 1.0
C      1  0.4601220000000  0.4148150000000  0.5053170000000 1.0
C      1  0.5212930000000  0.4698910000000  0.5873670000000 1.0
C      1  0.4083500000000  0.5182990000000  0.5656420000000 1.0
C      1  0.5625990000000  0.4865370000000  0.4417630000000 1.0
C      1  0.5064610000000  0.5212380000000  0.4279070000000 1.0
C      1  0.4953870000000  0.5516370000000  0.4043960000000 1.0
C      1  0.5709830000000  0.5533580000000  0.4330170000000 1.0
C      1  0.5396040000000  0.5327310000000  0.4729120000000 1.0
C      1  0.4882490000000  0.5691860000000  0.5402700000000 1.0
C      1  0.5403060000000  0.4618940000000  0.4486740000000 1.0
C      1  0.5133910000000  0.5613850000000  0.4226640000000 1.0
C      1  0.5337460000000  0.5751200000000  0.4739540000000 1.0
C      1  0.4684480000000  0.4599340000000  0.5535330000000 1.0
C      1  0.4826630000000  0.5054970000000  0.5267740000000 1.0
C      1  0.4399580000000  0.5690740000000  0.4585420000000 1.0
C      1  0.5576600000000  0.5678120000000  0.4576930000000 1.0
C      1  0.4657680000000  0.4772380000000  0.5283440000000 1.0
C      1  0.4789620000000  0.4918700000000  0.4442080000000 1.0
END
