TITL C-2847944-5688-552 0.000557044725291743 125000 -798.462457209343 0 0 148 (C1) n - 1
REM
REM in /home/bkarasulu/work/CARBON/AIRSS/Generating-Clusters/AIREBO/with-SteepDescent/Only-C1/SD-CG-opt/Try1-1.4A-POS3A/HFTN-CG
REM
REM
REM
REM
REM
REM ./C.cell (11c1c37f851c82e70ff6c80c92926a4b)
REM
REM compiler GCC version 9.2.1 20190827 (Red Hat 9.2.1-1)
REM options -cpp -mtune=generic -march=x86-64 -g -O0 -fpre-include=/usr/include/finclude/math-vector-fortran.h
REM seed -552391662 1013884914 358314396 1454782417 1044055985 -1318859137 2066746029 -372788173 -475314985 1909364831 -756680280 -657182727 -344550184 1467614304 -857611402 76619879 -186711028 -641423881 1497336152 -1832548546 1085967964 734352374 1552635743 -2119127931 -153476158 682850939 891106660 1665819210 1352223866 1401706852 -654281358 21139326 -1508183823
REM
CELL 1.54180   50.00000   50.00000   50.00000   90.00000   90.00000   90.00000
LATT -1
SFAC C  
C      1  0.5874550000000  0.5280230000000  0.5457940000000 1.0
C      1  0.4919480000000  0.4806310000000  0.4460800000000 1.0
C      1  0.5636530000000  0.3979060000000  0.4764810000000 1.0
C      1  0.5218210000000  0.5036670000000  0.4134980000000 1.0
C      1  0.4919010000000  0.5377180000000  0.5001960000000 1.0
C      1  0.5529750000000  0.4281170000000  0.4860270000000 1.0
C      1  0.5392310000000  0.4757910000000  0.5681150000000 1.0
C      1  0.4879670000000  0.4669360000000  0.5776810000000 1.0
C      1  0.6001140000000  0.5038580000000  0.4564630000000 1.0
C      1  0.4306670000000  0.4416440000000  0.5350630000000 1.0
C      1  0.4931470000000  0.4862800000000  0.4159500000000 1.0
C      1  0.4640390000000  0.4963160000000  0.4222380000000 1.0
C      1  0.5419480000000  0.4672690000000  0.5106110000000 1.0
C      1  0.5359870000000  0.4201950000000  0.5654400000000 1.0
C      1  0.4866510000000  0.4247510000000  0.5644000000000 1.0
C      1  0.4249120000000  0.4948140000000  0.4631570000000 1.0
C      1  0.4301380000000  0.5107290000000  0.4340580000000 1.0
C      1  0.4695780000000  0.5812490000000  0.4474680000000 1.0
C      1  0.4701870000000  0.5410060000000  0.5537140000000 1.0
C      1  0.5618470000000  0.4875830000000  0.4919470000000 1.0
C      1  0.5831830000000  0.4552830000000  0.4496130000000 1.0
C      1  0.5109730000000  0.4647280000000  0.5527300000000 1.0
C      1  0.3983310000000  0.4729800000000  0.4588130000000 1.0
C      1  0.5361410000000  0.4566310000000  0.4068180000000 1.0
C      1  0.4417230000000  0.5517650000000  0.6003000000000 1.0
C      1  0.5434960000000  0.4341390000000  0.5181220000000 1.0
C      1  0.4156370000000  0.4430190000000  0.5045960000000 1.0
C      1  0.4597270000000  0.4569630000000  0.4810190000000 1.0
C      1  0.4719500000000  0.4184700000000  0.5135770000000 1.0
C      1  0.5936270000000  0.4844650000000  0.5004500000000 1.0
C      1  0.5029900000000  0.5270170000000  0.4043350000000 1.0
C      1  0.4415300000000  0.5061920000000  0.5319040000000 1.0
C      1  0.4256020000000  0.5862660000000  0.5535090000000 1.0
C      1  0.4946820000000  0.5118970000000  0.4835020000000 1.0
C      1  0.4405690000000  0.4207080000000  0.5101310000000 1.0
C      1  0.5347400000000  0.5075980000000  0.4425850000000 1.0
C      1  0.4611260000000  0.4917260000000  0.6141190000000 1.0
C      1  0.4138950000000  0.5279370000000  0.5601480000000 1.0
C      1  0.4280930000000  0.5680720000000  0.5245420000000 1.0
C      1  0.4739510000000  0.4691850000000  0.5234470000000 1.0
C      1  0.5908390000000  0.5414070000000  0.4663890000000 1.0
C      1  0.5021470000000  0.5759260000000  0.5254870000000 1.0
C      1  0.3991270000000  0.5175610000000  0.5368070000000 1.0
C      1  0.4433960000000  0.4441470000000  0.4471360000000 1.0
C      1  0.5586550000000  0.5127170000000  0.4776760000000 1.0
C      1  0.5608750000000  0.4369840000000  0.4382270000000 1.0
C      1  0.4960760000000  0.4698270000000  0.3881230000000 1.0
C      1  0.4889280000000  0.4427340000000  0.3896870000000 1.0
C      1  0.4217000000000  0.4763540000000  0.5074280000000 1.0
C      1  0.4648620000000  0.4195590000000  0.4573400000000 1.0
C      1  0.3999610000000  0.5431730000000  0.4877440000000 1.0
C      1  0.4782730000000  0.5607120000000  0.4704520000000 1.0
C      1  0.4427830000000  0.5423100000000  0.4341040000000 1.0
C      1  0.5123540000000  0.4468590000000  0.5232300000000 1.0
C      1  0.4766250000000  0.5189590000000  0.4002040000000 1.0
C      1  0.5294810000000  0.6189180000000  0.4742150000000 1.0
C      1  0.5604780000000  0.3727890000000  0.4758040000000 1.0
C      1  0.4361550000000  0.4361890000000  0.4794730000000 1.0
C      1  0.5247390000000  0.4780430000000  0.3935850000000 1.0
C      1  0.4541170000000  0.5920280000000  0.4750300000000 1.0
C      1  0.4451610000000  0.5543090000000  0.4660540000000 1.0
C      1  0.5094340000000  0.4498690000000  0.4894760000000 1.0
C      1  0.4407040000000  0.5240970000000  0.5547920000000 1.0
C      1  0.5371270000000  0.4481440000000  0.4330750000000 1.0
C      1  0.4886580000000  0.5170750000000  0.6030510000000 1.0
C      1  0.5241890000000  0.5209900000000  0.5508360000000 1.0
C      1  0.5025330000000  0.4973910000000  0.5483590000000 1.0
C      1  0.4553070000000  0.5237080000000  0.6041510000000 1.0
C      1  0.4735550000000  0.4949770000000  0.4675480000000 1.0
C      1  0.5661810000000  0.5230900000000  0.5637370000000 1.0
C      1  0.4057640000000  0.5127600000000  0.4847780000000 1.0
C      1  0.4470750000000  0.4860170000000  0.4869220000000 1.0
C      1  0.4542750000000  0.5217820000000  0.4699450000000 1.0
C      1  0.4379840000000  0.5699630000000  0.5807060000000 1.0
C      1  0.4635240000000  0.4451490000000  0.5725570000000 1.0
C      1  0.4923670000000  0.4328470000000  0.4424070000000 1.0
C      1  0.4578990000000  0.5374130000000  0.4999210000000 1.0
C      1  0.4564870000000  0.5652410000000  0.4165910000000 1.0
C      1  0.5868750000000  0.4808630000000  0.4392120000000 1.0
C      1  0.5192040000000  0.5377390000000  0.4467550000000 1.0
C      1  0.4448140000000  0.4730750000000  0.5668470000000 1.0
C      1  0.5555060000000  0.5697620000000  0.5527810000000 1.0
C      1  0.5436530000000  0.5971830000000  0.5428410000000 1.0
C      1  0.5775870000000  0.4244130000000  0.4628300000000 1.0
C      1  0.4061710000000  0.5457430000000  0.5191390000000 1.0
C      1  0.5829800000000  0.4544240000000  0.4886000000000 1.0
C      1  0.4788790000000  0.4081510000000  0.4819250000000 1.0
C      1  0.4917520000000  0.4942540000000  0.5191910000000 1.0
C      1  0.5349460000000  0.5275250000000  0.5201050000000 1.0
C      1  0.5677860000000  0.5741410000000  0.5213780000000 1.0
C      1  0.5537390000000  0.4764780000000  0.5980480000000 1.0
C      1  0.5379700000000  0.5945500000000  0.4757430000000 1.0
C      1  0.5794060000000  0.4676910000000  0.5364440000000 1.0
C      1  0.6067430000000  0.5336040000000  0.4954110000000 1.0
C      1  0.5338200000000  0.5739270000000  0.5197040000000 1.0
C      1  0.5056370000000  0.5385610000000  0.5975300000000 1.0
C      1  0.5188360000000  0.5575330000000  0.4939520000000 1.0
C      1  0.5134880000000  0.4563630000000  0.4562580000000 1.0
C      1  0.4968090000000  0.5562370000000  0.5516440000000 1.0
C      1  0.5443820000000  0.5448500000000  0.5643850000000 1.0
C      1  0.5450110000000  0.5551170000000  0.4216580000000 1.0
C      1  0.6021170000000  0.4844350000000  0.5297930000000 1.0
C      1  0.4911340000000  0.5334650000000  0.4598170000000 1.0
C      1  0.4910070000000  0.5771590000000  0.4950340000000 1.0
C      1  0.5271770000000  0.5650390000000  0.4627170000000 1.0
C      1  0.5566160000000  0.4821890000000  0.5441350000000 1.0
C      1  0.4118500000000  0.5586480000000  0.4682240000000 1.0
C      1  0.5705220000000  0.5433980000000  0.4398210000000 1.0
C      1  0.4350090000000  0.4345890000000  0.5623360000000 1.0
C      1  0.5043250000000  0.4199570000000  0.5031710000000 1.0
C      1  0.4736560000000  0.4576880000000  0.4531390000000 1.0
C      1  0.5116880000000  0.3956450000000  0.5346460000000 1.0
C      1  0.4561110000000  0.4982420000000  0.5811250000000 1.0
C      1  0.4680180000000  0.5223550000000  0.4390920000000 1.0
C      1  0.4124830000000  0.4759850000000  0.5567210000000 1.0
C      1  0.5751870000000  0.4464790000000  0.5181110000000 1.0
C      1  0.5361820000000  0.4103010000000  0.5386860000000 1.0
C      1  0.5871420000000  0.5459580000000  0.5205180000000 1.0
C      1  0.4487040000000  0.5626260000000  0.5503480000000 1.0
C      1  0.4863240000000  0.4085170000000  0.5412170000000 1.0
C      1  0.4281100000000  0.5227770000000  0.5073350000000 1.0
C      1  0.4783620000000  0.4499490000000  0.5024420000000 1.0
C      1  0.5149770000000  0.5508220000000  0.5754540000000 1.0
C      1  0.5443600000000  0.5350910000000  0.4930010000000 1.0
C      1  0.6062670000000  0.5062140000000  0.4832920000000 1.0
C      1  0.6070150000000  0.5076500000000  0.5443220000000 1.0
C      1  0.3954580000000  0.4827790000000  0.4871830000000 1.0
C      1  0.5709850000000  0.5491250000000  0.4909030000000 1.0
C      1  0.4767350000000  0.5097550000000  0.5612640000000 1.0
C      1  0.5683710000000  0.5108510000000  0.4464390000000 1.0
C      1  0.4873200000000  0.5724570000000  0.4211470000000 1.0
C      1  0.5523900000000  0.4600510000000  0.4743650000000 1.0
C      1  0.4448090000000  0.5686950000000  0.4973770000000 1.0
C      1  0.5159940000000  0.4934820000000  0.4967020000000 1.0
C      1  0.5048890000000  0.5362270000000  0.5274210000000 1.0
C      1  0.5601060000000  0.5011340000000  0.5791050000000 1.0
C      1  0.5112060000000  0.5532530000000  0.4185240000000 1.0
C      1  0.5127470000000  0.4355370000000  0.5700730000000 1.0
C      1  0.4443200000000  0.4727050000000  0.5328430000000 1.0
C      1  0.5296930000000  0.4842850000000  0.4669690000000 1.0
C      1  0.5380610000000  0.4967420000000  0.5224170000000 1.0
C      1  0.4049840000000  0.4901150000000  0.5336500000000 1.0
C      1  0.5591350000000  0.5673760000000  0.4576340000000 1.0
C      1  0.5656150000000  0.5812950000000  0.4881870000000 1.0
C      1  0.4941010000000  0.4279540000000  0.4121320000000 1.0
C      1  0.4416630000000  0.4773070000000  0.4392990000000 1.0
C      1  0.4638170000000  0.5049650000000  0.5090210000000 1.0
C      1  0.4893360000000  0.4850000000000  0.5987830000000 1.0
END
