TITL C-2847958-8115-428 -0.000269527199452855 125000 -617.256944422992 0 0 120 (C1) n - 1
REM
REM in /home/bkarasulu/work/CARBON/AIRSS/Generating-Clusters/AIREBO/with-SteepDescent/Only-C1/SD-CG-opt/Try1-1.4A-POS3A/HFTN-CG
REM
REM
REM
REM
REM
REM ./C.cell (11c1c37f851c82e70ff6c80c92926a4b)
REM
REM compiler GCC version 9.2.1 20190827 (Red Hat 9.2.1-1)
REM options -cpp -mtune=generic -march=x86-64 -g -O0 -fpre-include=/usr/include/finclude/math-vector-fortran.h
REM seed 654075862 -701017410 630402027 -1774977749 -1367917289 -547594229 -602681429 1751424998 872496129 -1668637779 -1938450790 -1244602661 -1127157336 -1623740433 -529624275 -1436642765 1498220644 2095388191 231082843 244660277 1530103330 1159841091 2016804128 -614590188 -1342332973 683288747 -1865120311 368232530 -774777732 2115951462 1659876897 1709159570 1691822149
REM
CELL 1.54180   50.00000   50.00000   50.00000   90.00000   90.00000   90.00000
LATT -1
SFAC C  
C      1  0.4193100000000  0.4700990000000  0.5296870000000 1.0
C      1  0.5540130000000  0.4003150000000  0.5003410000000 1.0
C      1  0.5460680000000  0.4351460000000  0.4478640000000 1.0
C      1  0.4823100000000  0.5838380000000  0.5467990000000 1.0
C      1  0.5584690000000  0.4920450000000  0.5686860000000 1.0
C      1  0.4979840000000  0.4403860000000  0.5738560000000 1.0
C      1  0.4164950000000  0.5750080000000  0.5246470000000 1.0
C      1  0.5259340000000  0.5595330000000  0.5299720000000 1.0
C      1  0.5074240000000  0.5688400000000  0.5569660000000 1.0
C      1  0.4698850000000  0.4454270000000  0.5597530000000 1.0
C      1  0.4784580000000  0.5120260000000  0.5177270000000 1.0
C      1  0.5018290000000  0.4084240000000  0.5339720000000 1.0
C      1  0.5072130000000  0.4616220000000  0.5199790000000 1.0
C      1  0.5381470000000  0.4311650000000  0.5501280000000 1.0
C      1  0.4563210000000  0.4463270000000  0.4342650000000 1.0
C      1  0.4312310000000  0.4904710000000  0.5051880000000 1.0
C      1  0.4881680000000  0.6067310000000  0.5317350000000 1.0
C      1  0.5138600000000  0.4207980000000  0.5608850000000 1.0
C      1  0.5340880000000  0.5152730000000  0.4165410000000 1.0
C      1  0.5907610000000  0.5298770000000  0.5173870000000 1.0
C      1  0.5077170000000  0.6064900000000  0.5066500000000 1.0
C      1  0.5117020000000  0.5230830000000  0.4851700000000 1.0
C      1  0.4742460000000  0.5273300000000  0.5937160000000 1.0
C      1  0.5408850000000  0.5335760000000  0.4853080000000 1.0
C      1  0.4172620000000  0.4574330000000  0.4979990000000 1.0
C      1  0.5843710000000  0.5077090000000  0.4923850000000 1.0
C      1  0.5479260000000  0.5572230000000  0.5041300000000 1.0
C      1  0.5680090000000  0.4585350000000  0.5277260000000 1.0
C      1  0.4997170000000  0.5284870000000  0.4477590000000 1.0
C      1  0.5114900000000  0.4636240000000  0.5806670000000 1.0
C      1  0.4955360000000  0.5486610000000  0.5782450000000 1.0
C      1  0.5288820000000  0.5276820000000  0.5333070000000 1.0
C      1  0.5521170000000  0.4278970000000  0.4805410000000 1.0
C      1  0.5251040000000  0.4793100000000  0.4736680000000 1.0
C      1  0.4973260000000  0.4867590000000  0.5833240000000 1.0
C      1  0.5622640000000  0.4664310000000  0.4190050000000 1.0
C      1  0.4487860000000  0.4473180000000  0.4917880000000 1.0
C      1  0.4715500000000  0.5462760000000  0.4408820000000 1.0
C      1  0.4401990000000  0.5423910000000  0.4264530000000 1.0
C      1  0.5104560000000  0.5110620000000  0.5644880000000 1.0
C      1  0.4438180000000  0.4662130000000  0.5530370000000 1.0
C      1  0.4877880000000  0.5438150000000  0.4826970000000 1.0
C      1  0.5839340000000  0.5054450000000  0.5323110000000 1.0
C      1  0.4922370000000  0.4410420000000  0.5344900000000 1.0
C      1  0.4217620000000  0.5039790000000  0.5349290000000 1.0
C      1  0.4746700000000  0.5877050000000  0.4952830000000 1.0
C      1  0.5413710000000  0.4756790000000  0.5033140000000 1.0
C      1  0.4624250000000  0.5135530000000  0.4422840000000 1.0
C      1  0.4904060000000  0.4139190000000  0.4962970000000 1.0
C      1  0.5062930000000  0.4319500000000  0.4479280000000 1.0
C      1  0.4288700000000  0.5120910000000  0.4369290000000 1.0
C      1  0.5086550000000  0.5648050000000  0.4353670000000 1.0
C      1  0.4567120000000  0.5287300000000  0.5467980000000 1.0
C      1  0.5384710000000  0.4672850000000  0.5673080000000 1.0
C      1  0.5226760000000  0.4245900000000  0.4976310000000 1.0
C      1  0.5475940000000  0.4749520000000  0.4484740000000 1.0
C      1  0.5454330000000  0.5823410000000  0.4868880000000 1.0
C      1  0.4886500000000  0.5444530000000  0.5167090000000 1.0
C      1  0.5856080000000  0.4758230000000  0.5043260000000 1.0
C      1  0.4551550000000  0.5261720000000  0.5049670000000 1.0
C      1  0.4532370000000  0.4924650000000  0.4793340000000 1.0
C      1  0.4498930000000  0.4192100000000  0.4977220000000 1.0
C      1  0.5888620000000  0.5308370000000  0.4678340000000 1.0
C      1  0.5300380000000  0.5403730000000  0.4387180000000 1.0
C      1  0.5532060000000  0.5063790000000  0.5259750000000 1.0
C      1  0.5435860000000  0.5185020000000  0.5625650000000 1.0
C      1  0.4722290000000  0.5012650000000  0.5851980000000 1.0
C      1  0.5107320000000  0.5116170000000  0.5126260000000 1.0
C      1  0.4552790000000  0.4974390000000  0.5601720000000 1.0
C      1  0.5178890000000  0.4138210000000  0.4657260000000 1.0
C      1  0.4604750000000  0.5250790000000  0.4729390000000 1.0
C      1  0.4721720000000  0.4646830000000  0.4742220000000 1.0
C      1  0.5586870000000  0.5469110000000  0.5514720000000 1.0
C      1  0.4635850000000  0.5706900000000  0.4610170000000 1.0
C      1  0.5274380000000  0.3963410000000  0.5159480000000 1.0
C      1  0.4765550000000  0.4374370000000  0.4543580000000 1.0
C      1  0.4785100000000  0.4112770000000  0.4713020000000 1.0
C      1  0.4707090000000  0.4682920000000  0.4172900000000 1.0
C      1  0.4839240000000  0.6030980000000  0.4714740000000 1.0
C      1  0.4500520000000  0.5713340000000  0.4901080000000 1.0
C      1  0.4566380000000  0.4703630000000  0.5155250000000 1.0
C      1  0.4638120000000  0.5595670000000  0.5343450000000 1.0
C      1  0.4320210000000  0.4534470000000  0.4454380000000 1.0
C      1  0.5775070000000  0.4678940000000  0.4630590000000 1.0
C      1  0.5002860000000  0.4667340000000  0.4909640000000 1.0
C      1  0.4716470000000  0.4880460000000  0.5346130000000 1.0
C      1  0.5639200000000  0.4550440000000  0.4883930000000 1.0
C      1  0.4504860000000  0.4893990000000  0.4259660000000 1.0
C      1  0.4126510000000  0.5003380000000  0.4604220000000 1.0
C      1  0.4106500000000  0.5097480000000  0.4889660000000 1.0
C      1  0.5004750000000  0.5740040000000  0.5126780000000 1.0
C      1  0.4149490000000  0.5383550000000  0.4924400000000 1.0
C      1  0.5577990000000  0.4410630000000  0.5687900000000 1.0
C      1  0.5374360000000  0.4460310000000  0.5195500000000 1.0
C      1  0.5415750000000  0.5710950000000  0.5578810000000 1.0
C      1  0.5026600000000  0.4765500000000  0.4181810000000 1.0
C      1  0.4839900000000  0.4801980000000  0.4463620000000 1.0
C      1  0.5371260000000  0.4820380000000  0.5366890000000 1.0
C      1  0.5519950000000  0.5070020000000  0.4954200000000 1.0
C      1  0.4971620000000  0.5721990000000  0.4661630000000 1.0
C      1  0.5770480000000  0.4992680000000  0.4602570000000 1.0
C      1  0.4895090000000  0.5514560000000  0.4130750000000 1.0
C      1  0.4293700000000  0.5377060000000  0.4675400000000 1.0
C      1  0.5761900000000  0.4813990000000  0.5470860000000 1.0
C      1  0.5231000000000  0.4562040000000  0.4341660000000 1.0
C      1  0.5101480000000  0.5050200000000  0.4064480000000 1.0
C      1  0.5518950000000  0.5070810000000  0.4401270000000 1.0
C      1  0.4244840000000  0.5320640000000  0.5393930000000 1.0
C      1  0.5140380000000  0.5268290000000  0.5947040000000 1.0
C      1  0.5029050000000  0.5003450000000  0.4623030000000 1.0
C      1  0.4939690000000  0.5272790000000  0.3979500000000 1.0
C      1  0.4902630000000  0.5337150000000  0.5491400000000 1.0
C      1  0.4365050000000  0.5522270000000  0.5147850000000 1.0
C      1  0.5202150000000  0.5910650000000  0.4825870000000 1.0
C      1  0.4272870000000  0.4727230000000  0.4696190000000 1.0
C      1  0.5052780000000  0.4904380000000  0.5379280000000 1.0
C      1  0.5699280000000  0.5481330000000  0.5251600000000 1.0
C      1  0.5565440000000  0.5339670000000  0.4584610000000 1.0
C      1  0.4535960000000  0.4403980000000  0.5311400000000 1.0
C      1  0.4698430000000  0.4113530000000  0.5227340000000 1.0
END
