TITL C-2847958-8115-666 0.00149779666283434 125000 -618.836773399769 0 0 114 (C1) n - 1
REM
REM in /home/bkarasulu/work/CARBON/AIRSS/Generating-Clusters/AIREBO/with-SteepDescent/Only-C1/SD-CG-opt/Try1-1.4A-POS3A/HFTN-CG
REM
REM
REM
REM
REM
REM ./C.cell (11c1c37f851c82e70ff6c80c92926a4b)
REM
REM compiler GCC version 9.2.1 20190827 (Red Hat 9.2.1-1)
REM options -cpp -mtune=generic -march=x86-64 -g -O0 -fpre-include=/usr/include/finclude/math-vector-fortran.h
REM seed 2013825409 -512233038 182901645 -71837384 675231019 1950149075 -1726703105 1778155596 1389998787 -518322001 757099310 503820369 -834127967 367463588 -515012342 1582212656 1506478606 31430007 703291247 -1025055192 -242446286 -28437324 1504190649 1054486840 1835756049 815583280 169266443 -1984341133 -1750691163 -1128810589 71146282 115461008 -563751687
REM
CELL 1.54180   50.00000   50.00000   50.00000   90.00000   90.00000   90.00000
LATT -1
SFAC C  
C      1  0.5880020000000  0.4646530000000  0.4473770000000 1.0
C      1  0.4627080000000  0.4988830000000  0.4819850000000 1.0
C      1  0.4253730000000  0.5034960000000  0.4605190000000 1.0
C      1  0.4919950000000  0.4488740000000  0.5551720000000 1.0
C      1  0.4324640000000  0.5754800000000  0.5340250000000 1.0
C      1  0.5206450000000  0.5267490000000  0.5954420000000 1.0
C      1  0.5556720000000  0.4980820000000  0.5166320000000 1.0
C      1  0.5007970000000  0.4201250000000  0.5382860000000 1.0
C      1  0.4794500000000  0.5483440000000  0.4835170000000 1.0
C      1  0.4795800000000  0.5846010000000  0.4668280000000 1.0
C      1  0.5806390000000  0.4965980000000  0.5676040000000 1.0
C      1  0.4480920000000  0.5301530000000  0.4415730000000 1.0
C      1  0.5703360000000  0.5448440000000  0.5195630000000 1.0
C      1  0.5004500000000  0.5996330000000  0.4890690000000 1.0
C      1  0.4637370000000  0.5521630000000  0.5736640000000 1.0
C      1  0.5354580000000  0.5253940000000  0.5181840000000 1.0
C      1  0.5447610000000  0.5486730000000  0.5396950000000 1.0
C      1  0.4948060000000  0.5187700000000  0.6000350000000 1.0
C      1  0.5342410000000  0.4479610000000  0.4237130000000 1.0
C      1  0.5111350000000  0.5159050000000  0.5318900000000 1.0
C      1  0.5665540000000  0.4523210000000  0.4339800000000 1.0
C      1  0.4579080000000  0.4810720000000  0.5193780000000 1.0
C      1  0.5345470000000  0.4956900000000  0.4205360000000 1.0
C      1  0.5819820000000  0.5357720000000  0.4796490000000 1.0
C      1  0.4267740000000  0.4605720000000  0.5440670000000 1.0
C      1  0.5072050000000  0.5666690000000  0.4906170000000 1.0
C      1  0.5460360000000  0.4627520000000  0.5848730000000 1.0
C      1  0.4868380000000  0.4534320000000  0.4848860000000 1.0
C      1  0.5478920000000  0.4208780000000  0.4942800000000 1.0
C      1  0.4746310000000  0.4513840000000  0.4187670000000 1.0
C      1  0.4452040000000  0.4665140000000  0.4270930000000 1.0
C      1  0.4841820000000  0.5663930000000  0.5751040000000 1.0
C      1  0.4310930000000  0.4899910000000  0.4912060000000 1.0
C      1  0.4430560000000  0.5875110000000  0.5118330000000 1.0
C      1  0.5538580000000  0.5876320000000  0.4941810000000 1.0
C      1  0.5203550000000  0.5634810000000  0.3904740000000 1.0
C      1  0.5174210000000  0.4134590000000  0.4811280000000 1.0
C      1  0.4625670000000  0.5430810000000  0.4169870000000 1.0
C      1  0.5492130000000  0.4441980000000  0.5637780000000 1.0
C      1  0.5167870000000  0.4450540000000  0.4889450000000 1.0
C      1  0.4862850000000  0.4964500000000  0.5802230000000 1.0
C      1  0.5868410000000  0.4969460000000  0.5411760000000 1.0
C      1  0.5080390000000  0.4940020000000  0.4607940000000 1.0
C      1  0.5419750000000  0.4594080000000  0.4543000000000 1.0
C      1  0.4788780000000  0.5010220000000  0.4233350000000 1.0
C      1  0.4678060000000  0.4511340000000  0.5778040000000 1.0
C      1  0.5783580000000  0.5022430000000  0.4839840000000 1.0
C      1  0.5308080000000  0.5422360000000  0.4889820000000 1.0
C      1  0.4425240000000  0.4425610000000  0.5206950000000 1.0
C      1  0.4565700000000  0.4985360000000  0.5717490000000 1.0
C      1  0.5745380000000  0.4715840000000  0.5267570000000 1.0
C      1  0.4376400000000  0.4440900000000  0.4708720000000 1.0
C      1  0.5523700000000  0.5130130000000  0.4653440000000 1.0
C      1  0.4474040000000  0.4966990000000  0.4353650000000 1.0
C      1  0.5356680000000  0.5397590000000  0.5692170000000 1.0
C      1  0.5174840000000  0.5458660000000  0.4121430000000 1.0
C      1  0.5560650000000  0.4887360000000  0.5791990000000 1.0
C      1  0.4981820000000  0.5341620000000  0.5563210000000 1.0
C      1  0.4540620000000  0.4377280000000  0.5499100000000 1.0
C      1  0.5610800000000  0.5574370000000  0.4919590000000 1.0
C      1  0.4792490000000  0.5278230000000  0.5287870000000 1.0
C      1  0.4146980000000  0.4703030000000  0.5135790000000 1.0
C      1  0.5825180000000  0.5168090000000  0.5148040000000 1.0
C      1  0.4921770000000  0.4761760000000  0.4123010000000 1.0
C      1  0.5209530000000  0.4690840000000  0.5332480000000 1.0
C      1  0.4828130000000  0.5011950000000  0.5079380000000 1.0
C      1  0.5338410000000  0.5067390000000  0.5729620000000 1.0
C      1  0.5822390000000  0.4724490000000  0.4742220000000 1.0
C      1  0.4831320000000  0.4793910000000  0.4702170000000 1.0
C      1  0.5040920000000  0.4374010000000  0.4161460000000 1.0
C      1  0.5356950000000  0.4898540000000  0.4508760000000 1.0
C      1  0.5258680000000  0.5882130000000  0.5085510000000 1.0
C      1  0.5132260000000  0.5629300000000  0.5597170000000 1.0
C      1  0.5240750000000  0.4416980000000  0.5491240000000 1.0
C      1  0.5675560000000  0.4417260000000  0.5135760000000 1.0
C      1  0.5064770000000  0.5782600000000  0.4483760000000 1.0
C      1  0.4470330000000  0.5268490000000  0.5280050000000 1.0
C      1  0.4366400000000  0.5221140000000  0.5008810000000 1.0
C      1  0.4916040000000  0.4051460000000  0.4715180000000 1.0
C      1  0.4687360000000  0.5770970000000  0.4981680000000 1.0
C      1  0.5197810000000  0.4620110000000  0.5970110000000 1.0
C      1  0.3861860000000  0.5336500000000  0.4630240000000 1.0
C      1  0.4479710000000  0.5757420000000  0.4601070000000 1.0
C      1  0.4127070000000  0.5297760000000  0.4599330000000 1.0
C      1  0.4488780000000  0.5255300000000  0.5613060000000 1.0
C      1  0.4969690000000  0.5189970000000  0.4441140000000 1.0
C      1  0.5567010000000  0.4517260000000  0.4829420000000 1.0
C      1  0.4116650000000  0.4486340000000  0.4924020000000 1.0
C      1  0.4828240000000  0.5595570000000  0.5213900000000 1.0
C      1  0.5353540000000  0.5200920000000  0.4099100000000 1.0
C      1  0.4939890000000  0.4671180000000  0.5905610000000 1.0
C      1  0.5087520000000  0.5075170000000  0.4914020000000 1.0
C      1  0.5338920000000  0.4679820000000  0.5022260000000 1.0
C      1  0.5375700000000  0.4970960000000  0.4901610000000 1.0
C      1  0.4505220000000  0.4199290000000  0.5025410000000 1.0
C      1  0.4950860000000  0.4696300000000  0.5112700000000 1.0
C      1  0.4727030000000  0.4145270000000  0.5485830000000 1.0
C      1  0.4469060000000  0.4732660000000  0.5666080000000 1.0
C      1  0.4680580000000  0.4294350000000  0.4750170000000 1.0
C      1  0.4491290000000  0.4614780000000  0.4955050000000 1.0
C      1  0.4896220000000  0.5320110000000  0.4146190000000 1.0
C      1  0.5088330000000  0.4921450000000  0.5551130000000 1.0
C      1  0.5709230000000  0.4446150000000  0.5461870000000 1.0
C      1  0.5229770000000  0.5580470000000  0.4395520000000 1.0
C      1  0.4569440000000  0.4390590000000  0.4433540000000 1.0
C      1  0.4824270000000  0.4756300000000  0.5410030000000 1.0
C      1  0.5031540000000  0.5317350000000  0.4720660000000 1.0
C      1  0.5393140000000  0.5421020000000  0.4560610000000 1.0
C      1  0.4566980000000  0.5296260000000  0.4744670000000 1.0
C      1  0.5285990000000  0.5778410000000  0.5362460000000 1.0
C      1  0.4318270000000  0.5544340000000  0.4558680000000 1.0
C      1  0.5200400000000  0.4735980000000  0.4104290000000 1.0
C      1  0.5197810000000  0.4217970000000  0.5140050000000 1.0
C      1  0.4335760000000  0.5515640000000  0.5453570000000 1.0
END
