TITL C-2847956-8218-649 0.000175531077931462 125000 -441.119000431836 0 0 79 (C1) n - 1
REM
REM in /home/bkarasulu/work/CARBON/AIRSS/Generating-Clusters/AIREBO/with-SteepDescent/Only-C1/SD-CG-opt/Try1-1.4A-POS3A/HFTN-CG
REM
REM
REM
REM
REM
REM ./C.cell (11c1c37f851c82e70ff6c80c92926a4b)
REM
REM compiler GCC version 9.2.1 20190827 (Red Hat 9.2.1-1)
REM options -cpp -mtune=generic -march=x86-64 -g -O0 -fpre-include=/usr/include/finclude/math-vector-fortran.h
REM seed 986096465 -1046321362 -634235106 1545416004 1561070677 -198062603 1265516886 97982227 1729118992 -1472411695 -1152561706 -1759949724 6238440 -748485259 -922398856 743605848 626022711 1142271624 -202846442 1178981361 1523792785 -747496118 706917295 -666602794 -422912875 -1719093677 -293907553 1937235220 1885184321 -1414721115 -1775254478 512438539 -142251598
REM
CELL 1.54180   50.00000   50.00000   50.00000   90.00000   90.00000   90.00000
LATT -1
SFAC C  
C      1  0.5566460000000  0.4646740000000  0.4682550000000 1.0
C      1  0.5164060000000  0.4701190000000  0.5395090000000 1.0
C      1  0.5530340000000  0.5240450000000  0.4572680000000 1.0
C      1  0.5319380000000  0.5341410000000  0.5298720000000 1.0
C      1  0.4826230000000  0.5525550000000  0.5322250000000 1.0
C      1  0.5531330000000  0.5009420000000  0.5686770000000 1.0
C      1  0.5078570000000  0.5377770000000  0.4122040000000 1.0
C      1  0.4918410000000  0.4924170000000  0.5656700000000 1.0
C      1  0.4748520000000  0.4479300000000  0.5473570000000 1.0
C      1  0.4409010000000  0.5398790000000  0.4933820000000 1.0
C      1  0.4832710000000  0.4804830000000  0.4144160000000 1.0
C      1  0.4463040000000  0.4544690000000  0.4769540000000 1.0
C      1  0.5167260000000  0.5685520000000  0.4635370000000 1.0
C      1  0.5764900000000  0.5358910000000  0.5373150000000 1.0
C      1  0.4848070000000  0.5379890000000  0.5547520000000 1.0
C      1  0.5028010000000  0.4397810000000  0.5466210000000 1.0
C      1  0.5312110000000  0.5005870000000  0.5354480000000 1.0
C      1  0.4387240000000  0.4736710000000  0.4575200000000 1.0
C      1  0.5306610000000  0.5292690000000  0.4359480000000 1.0
C      1  0.5293440000000  0.4960050000000  0.4304110000000 1.0
C      1  0.5024340000000  0.5752800000000  0.5276020000000 1.0
C      1  0.5360200000000  0.4565570000000  0.4513590000000 1.0
C      1  0.4376160000000  0.5360410000000  0.5252030000000 1.0
C      1  0.4279750000000  0.4725160000000  0.5308880000000 1.0
C      1  0.5120020000000  0.4895590000000  0.4829140000000 1.0
C      1  0.5658500000000  0.5559950000000  0.5543380000000 1.0
C      1  0.4658980000000  0.5180090000000  0.5211190000000 1.0
C      1  0.4787700000000  0.5347210000000  0.4572570000000 1.0
C      1  0.4892940000000  0.4425080000000  0.4429230000000 1.0
C      1  0.4293090000000  0.5163840000000  0.4803400000000 1.0
C      1  0.4907490000000  0.4484630000000  0.5014770000000 1.0
C      1  0.5708820000000  0.5092910000000  0.5470320000000 1.0
C      1  0.4149570000000  0.4982030000000  0.5234390000000 1.0
C      1  0.4666230000000  0.4446960000000  0.5207140000000 1.0
C      1  0.5238740000000  0.5163130000000  0.5646910000000 1.0
C      1  0.4677890000000  0.4723150000000  0.5602360000000 1.0
C      1  0.4841410000000  0.4987760000000  0.5352000000000 1.0
C      1  0.5753640000000  0.5422360000000  0.5048300000000 1.0
C      1  0.4871010000000  0.5195000000000  0.5807740000000 1.0
C      1  0.4442610000000  0.4853370000000  0.5518350000000 1.0
C      1  0.5113240000000  0.5427720000000  0.5754890000000 1.0
C      1  0.4642820000000  0.4860460000000  0.4388100000000 1.0
C      1  0.5238490000000  0.4827610000000  0.5701940000000 1.0
C      1  0.5246910000000  0.4471950000000  0.4992380000000 1.0
C      1  0.5032710000000  0.5478040000000  0.4443700000000 1.0
C      1  0.4339920000000  0.5041910000000  0.4567050000000 1.0
C      1  0.5155330000000  0.4174570000000  0.5028230000000 1.0
C      1  0.5534140000000  0.5191920000000  0.5092450000000 1.0
C      1  0.4741380000000  0.5370540000000  0.4175980000000 1.0
C      1  0.4731880000000  0.4389600000000  0.4735360000000 1.0
C      1  0.5202860000000  0.5813960000000  0.5476160000000 1.0
C      1  0.4906760000000  0.5162070000000  0.4807980000000 1.0
C      1  0.5515540000000  0.4551770000000  0.4946080000000 1.0
C      1  0.4590970000000  0.5523740000000  0.4771210000000 1.0
C      1  0.5095260000000  0.4162620000000  0.5310750000000 1.0
C      1  0.5404390000000  0.5082720000000  0.4844870000000 1.0
C      1  0.4771060000000  0.4780740000000  0.4673990000000 1.0
C      1  0.5060930000000  0.4603020000000  0.4665460000000 1.0
C      1  0.5278440000000  0.4682960000000  0.4262610000000 1.0
C      1  0.4438150000000  0.4613940000000  0.5084810000000 1.0
C      1  0.5617460000000  0.4921610000000  0.4655600000000 1.0
C      1  0.4407240000000  0.5016580000000  0.5051070000000 1.0
C      1  0.5346600000000  0.5543550000000  0.5565690000000 1.0
C      1  0.4678730000000  0.4826050000000  0.4971860000000 1.0
C      1  0.4397070000000  0.5133590000000  0.5509430000000 1.0
C      1  0.4098550000000  0.5233720000000  0.5401980000000 1.0
C      1  0.5634080000000  0.4920040000000  0.5228030000000 1.0
C      1  0.4926750000000  0.5095280000000  0.4235090000000 1.0
C      1  0.4883020000000  0.5337130000000  0.5044900000000 1.0
C      1  0.5623630000000  0.4633050000000  0.5189210000000 1.0
C      1  0.5053030000000  0.5037580000000  0.4527410000000 1.0
C      1  0.4570760000000  0.5182300000000  0.4393230000000 1.0
C      1  0.4981910000000  0.4792560000000  0.5122460000000 1.0
C      1  0.5048710000000  0.4267240000000  0.4718940000000 1.0
C      1  0.5151030000000  0.5511450000000  0.5092830000000 1.0
C      1  0.5308760000000  0.5596790000000  0.4851340000000 1.0
C      1  0.5555160000000  0.5467760000000  0.4805680000000 1.0
C      1  0.5462680000000  0.4538500000000  0.5394370000000 1.0
C      1  0.5008840000000  0.4594610000000  0.4201760000000 1.0
END
