TITL C-2848498-1409-136 -0.00232386555955346 125000 -1021.08936681897 0 0 188 (C1) n - 1
REM
REM in /home/bkarasulu/work/CARBON/AIRSS/Generating-Clusters/AIREBO/with-SteepDescent/Only-C1/SD-CG-opt/Try1-1.4A-POS3A/HFTN-CG
REM
REM
REM
REM
REM
REM ./C.cell (11c1c37f851c82e70ff6c80c92926a4b)
REM
REM compiler GCC version 9.2.1 20190827 (Red Hat 9.2.1-1)
REM options -cpp -mtune=generic -march=x86-64 -g -O0 -fpre-include=/usr/include/finclude/math-vector-fortran.h
REM seed 1428334317 1987429504 1906652186 1891174146 1893389329 1565242331 46147388 -41997029 986243590 419049566 1120473400 2051550724 1494471512 1698311892 -414339081 -268882255 -1065603473 34159367 1711745514 858028429 -423794154 -376597013 -1826537357 -234159467 235315982 759135333 -360481839 -1303578406 225710212 -1291449320 135969254 -1541386915 1640551905
REM
CELL 1.54180   50.00000   50.00000   50.00000   90.00000   90.00000   90.00000
LATT -1
SFAC C  
C      1  0.5274120000000  0.4086260000000  0.4309500000000 1.0
C      1  0.5620670000000  0.5352150000000  0.5627340000000 1.0
C      1  0.5621140000000  0.4942690000000  0.4492080000000 1.0
C      1  0.5989320000000  0.4993500000000  0.5143040000000 1.0
C      1  0.4380940000000  0.4472340000000  0.4799640000000 1.0
C      1  0.4470670000000  0.4111870000000  0.5233190000000 1.0
C      1  0.4646360000000  0.4039070000000  0.5491660000000 1.0
C      1  0.5388520000000  0.4032680000000  0.4581200000000 1.0
C      1  0.4049630000000  0.4615180000000  0.4629470000000 1.0
C      1  0.5294000000000  0.5484150000000  0.4177960000000 1.0
C      1  0.5500790000000  0.4124490000000  0.5642330000000 1.0
C      1  0.4996480000000  0.5884640000000  0.5549370000000 1.0
C      1  0.3978920000000  0.5198160000000  0.4679320000000 1.0
C      1  0.4067810000000  0.4508200000000  0.4927830000000 1.0
C      1  0.4781970000000  0.4656600000000  0.5289860000000 1.0
C      1  0.5237280000000  0.4590370000000  0.5984450000000 1.0
C      1  0.4345900000000  0.3984150000000  0.4956300000000 1.0
C      1  0.4533790000000  0.5726770000000  0.4331570000000 1.0
C      1  0.5107990000000  0.5001610000000  0.4331290000000 1.0
C      1  0.4305810000000  0.5025080000000  0.4163360000000 1.0
C      1  0.4530720000000  0.4101780000000  0.4436170000000 1.0
C      1  0.4821940000000  0.5881130000000  0.4264740000000 1.0
C      1  0.4265250000000  0.5727870000000  0.4832480000000 1.0
C      1  0.4085150000000  0.5024800000000  0.5512920000000 1.0
C      1  0.5560230000000  0.5083020000000  0.5825250000000 1.0
C      1  0.5242340000000  0.5668040000000  0.4986450000000 1.0
C      1  0.4509440000000  0.4944000000000  0.5241420000000 1.0
C      1  0.5728770000000  0.5352590000000  0.4288460000000 1.0
C      1  0.5891870000000  0.5058430000000  0.4662300000000 1.0
C      1  0.4024870000000  0.5621300000000  0.4836070000000 1.0
C      1  0.4376870000000  0.5035800000000  0.5917320000000 1.0
C      1  0.5920890000000  0.5463720000000  0.4988880000000 1.0
C      1  0.4778980000000  0.4116580000000  0.5125860000000 1.0
C      1  0.4868830000000  0.3989620000000  0.4757990000000 1.0
C      1  0.4028290000000  0.3932560000000  0.5012430000000 1.0
C      1  0.4043440000000  0.4747320000000  0.5412640000000 1.0
C      1  0.5340890000000  0.5713570000000  0.4664160000000 1.0
C      1  0.4963630000000  0.4925600000000  0.4737710000000 1.0
C      1  0.5269870000000  0.4407300000000  0.4421880000000 1.0
C      1  0.4989010000000  0.5329360000000  0.5774880000000 1.0
C      1  0.4547190000000  0.5470570000000  0.3873480000000 1.0
C      1  0.5247340000000  0.4770110000000  0.4626190000000 1.0
C      1  0.6126180000000  0.4699660000000  0.5093570000000 1.0
C      1  0.4998730000000  0.4044120000000  0.5754240000000 1.0
C      1  0.5309940000000  0.4127880000000  0.5292670000000 1.0
C      1  0.4231260000000  0.4958160000000  0.4954570000000 1.0
C      1  0.5427150000000  0.5133790000000  0.5452580000000 1.0
C      1  0.5586920000000  0.4001830000000  0.5211400000000 1.0
C      1  0.5254250000000  0.5424030000000  0.5491010000000 1.0
C      1  0.4092070000000  0.5561260000000  0.5397860000000 1.0
C      1  0.5488920000000  0.5294490000000  0.4161380000000 1.0
C      1  0.5089420000000  0.4481180000000  0.4970180000000 1.0
C      1  0.5091560000000  0.5533890000000  0.4518630000000 1.0
C      1  0.4984610000000  0.3858070000000  0.5044290000000 1.0
C      1  0.4698450000000  0.4011860000000  0.4241520000000 1.0
C      1  0.5030050000000  0.4676430000000  0.4038800000000 1.0
C      1  0.5048610000000  0.6296990000000  0.5178880000000 1.0
C      1  0.4796880000000  0.4887180000000  0.3917770000000 1.0
C      1  0.5284640000000  0.5803730000000  0.4075640000000 1.0
C      1  0.5483510000000  0.5720160000000  0.5220730000000 1.0
C      1  0.4530340000000  0.5774450000000  0.5261190000000 1.0
C      1  0.4503870000000  0.5898720000000  0.5527180000000 1.0
C      1  0.4186350000000  0.4478920000000  0.4434960000000 1.0
C      1  0.5355040000000  0.5339240000000  0.5177420000000 1.0
C      1  0.5292530000000  0.4408270000000  0.5466190000000 1.0
C      1  0.5121490000000  0.5975960000000  0.4708250000000 1.0
C      1  0.5472380000000  0.5789790000000  0.4359750000000 1.0
C      1  0.4657070000000  0.4494970000000  0.5947580000000 1.0
C      1  0.4520400000000  0.5306870000000  0.5516670000000 1.0
C      1  0.5848300000000  0.4645390000000  0.4628900000000 1.0
C      1  0.5014260000000  0.5976670000000  0.5233910000000 1.0
C      1  0.5226630000000  0.3942520000000  0.5553030000000 1.0
C      1  0.5498040000000  0.5971290000000  0.5027820000000 1.0
C      1  0.3894900000000  0.5005660000000  0.4969930000000 1.0
C      1  0.4294450000000  0.5302360000000  0.4191990000000 1.0
C      1  0.5609190000000  0.4189280000000  0.4632670000000 1.0
C      1  0.5125210000000  0.5031290000000  0.5362130000000 1.0
C      1  0.5993330000000  0.5176880000000  0.4903000000000 1.0
C      1  0.4508080000000  0.4629880000000  0.5142460000000 1.0
C      1  0.3959910000000  0.4726350000000  0.5133280000000 1.0
C      1  0.4960120000000  0.5548010000000  0.5515430000000 1.0
C      1  0.4218080000000  0.5529670000000  0.5649680000000 1.0
C      1  0.5220010000000  0.6077950000000  0.4985350000000 1.0
C      1  0.5272250000000  0.4332560000000  0.5784460000000 1.0
C      1  0.5618100000000  0.5873830000000  0.4778640000000 1.0
C      1  0.5194750000000  0.4905800000000  0.3930670000000 1.0
C      1  0.5581240000000  0.4851310000000  0.5500370000000 1.0
C      1  0.4774900000000  0.4587700000000  0.4508340000000 1.0
C      1  0.5836250000000  0.5017570000000  0.5628480000000 1.0
C      1  0.5899560000000  0.5436080000000  0.5309990000000 1.0
C      1  0.4433510000000  0.5710370000000  0.5728160000000 1.0
C      1  0.4979190000000  0.5600010000000  0.4234040000000 1.0
C      1  0.3913430000000  0.5341920000000  0.4967630000000 1.0
C      1  0.4749940000000  0.5363150000000  0.4635480000000 1.0
C      1  0.4701000000000  0.5981330000000  0.4828300000000 1.0
C      1  0.4727270000000  0.4572340000000  0.5573320000000 1.0
C      1  0.5501120000000  0.5433530000000  0.4746640000000 1.0
C      1  0.4953510000000  0.3957940000000  0.5367800000000 1.0
C      1  0.4586960000000  0.4827030000000  0.5750220000000 1.0
C      1  0.5973400000000  0.4557810000000  0.4865090000000 1.0
C      1  0.4969390000000  0.4056520000000  0.4284180000000 1.0
C      1  0.4640870000000  0.4267070000000  0.5695650000000 1.0
C      1  0.5278820000000  0.5647700000000  0.5727150000000 1.0
C      1  0.5158280000000  0.5608900000000  0.3826790000000 1.0
C      1  0.5375670000000  0.4587830000000  0.4883040000000 1.0
C      1  0.5654430000000  0.4572410000000  0.5633960000000 1.0
C      1  0.4547910000000  0.5071640000000  0.4397590000000 1.0
C      1  0.4951720000000  0.4349010000000  0.5707280000000 1.0
C      1  0.4929250000000  0.4695070000000  0.5902930000000 1.0
C      1  0.5745160000000  0.4296680000000  0.4404850000000 1.0
C      1  0.5622290000000  0.4345980000000  0.5411010000000 1.0
C      1  0.5743770000000  0.4790040000000  0.5141710000000 1.0
C      1  0.5610960000000  0.5474720000000  0.5036320000000 1.0
C      1  0.4204120000000  0.5402470000000  0.5118690000000 1.0
C      1  0.5389040000000  0.4934490000000  0.4886050000000 1.0
C      1  0.4135780000000  0.4236680000000  0.5061770000000 1.0
C      1  0.5045240000000  0.5286350000000  0.6167180000000 1.0
C      1  0.5276710000000  0.5218680000000  0.4868240000000 1.0
C      1  0.4556400000000  0.3980680000000  0.4717600000000 1.0
C      1  0.4986230000000  0.5747810000000  0.5860580000000 1.0
C      1  0.4970650000000  0.5522000000000  0.5057410000000 1.0
C      1  0.5136100000000  0.4768740000000  0.5145750000000 1.0
C      1  0.5999320000000  0.4839580000000  0.4428430000000 1.0
C      1  0.4937110000000  0.5235040000000  0.4878010000000 1.0
C      1  0.5941060000000  0.5176630000000  0.5387690000000 1.0
C      1  0.4847750000000  0.4882130000000  0.5041740000000 1.0
C      1  0.4574250000000  0.5609670000000  0.4758330000000 1.0
C      1  0.5162060000000  0.5229650000000  0.4548240000000 1.0
C      1  0.5601290000000  0.4387440000000  0.4890000000000 1.0
C      1  0.5057790000000  0.4666650000000  0.4363490000000 1.0
C      1  0.5454130000000  0.4838160000000  0.5185280000000 1.0
C      1  0.5669760000000  0.4525950000000  0.4219520000000 1.0
C      1  0.5806690000000  0.4466250000000  0.5149370000000 1.0
C      1  0.5189100000000  0.4197230000000  0.5032810000000 1.0
C      1  0.5301720000000  0.6024870000000  0.5602280000000 1.0
C      1  0.5673410000000  0.5570370000000  0.4495030000000 1.0
C      1  0.5035210000000  0.5104120000000  0.3785110000000 1.0
C      1  0.4442370000000  0.5904720000000  0.4991960000000 1.0
C      1  0.4267780000000  0.5206550000000  0.5693640000000 1.0
C      1  0.4664550000000  0.4858770000000  0.4622570000000 1.0
C      1  0.6059140000000  0.4560590000000  0.5356780000000 1.0
C      1  0.4644570000000  0.5152360000000  0.5030280000000 1.0
C      1  0.5528740000000  0.4613670000000  0.4516280000000 1.0
C      1  0.4719450000000  0.6052020000000  0.5593580000000 1.0
C      1  0.4866710000000  0.4418060000000  0.4769020000000 1.0
C      1  0.5242680000000  0.5153300000000  0.5924430000000 1.0
C      1  0.4218390000000  0.4539730000000  0.5521080000000 1.0
C      1  0.4860230000000  0.5496460000000  0.6034990000000 1.0
C      1  0.5712240000000  0.4101720000000  0.5016910000000 1.0
C      1  0.4646450000000  0.5705940000000  0.5918700000000 1.0
C      1  0.4990190000000  0.4970710000000  0.6065220000000 1.0
C      1  0.4341230000000  0.4409170000000  0.5271330000000 1.0
C      1  0.5070340000000  0.6025790000000  0.4178630000000 1.0
C      1  0.5628430000000  0.4822750000000  0.4193140000000 1.0
C      1  0.5014870000000  0.4231950000000  0.4568980000000 1.0
C      1  0.4466520000000  0.4779850000000  0.4842440000000 1.0
C      1  0.4575470000000  0.5413390000000  0.4347960000000 1.0
C      1  0.5389690000000  0.5014750000000  0.4142470000000 1.0
C      1  0.4468240000000  0.5486570000000  0.5285360000000 1.0
C      1  0.4811040000000  0.5798200000000  0.5093090000000 1.0
C      1  0.5568690000000  0.4562450000000  0.5913720000000 1.0
C      1  0.5199990000000  0.3966320000000  0.4802200000000 1.0
C      1  0.4615650000000  0.4270340000000  0.4885510000000 1.0
C      1  0.4784900000000  0.5388430000000  0.4081220000000 1.0
C      1  0.4740970000000  0.5057390000000  0.5462570000000 1.0
C      1  0.4570080000000  0.4815210000000  0.3781980000000 1.0
C      1  0.4741250000000  0.5127340000000  0.5795330000000 1.0
C      1  0.5695410000000  0.5618060000000  0.5463830000000 1.0
C      1  0.4312990000000  0.5165940000000  0.4624780000000 1.0
C      1  0.4492620000000  0.4398860000000  0.4486600000000 1.0
C      1  0.4890250000000  0.5725650000000  0.4708190000000 1.0
C      1  0.4932620000000  0.5286420000000  0.5299870000000 1.0
C      1  0.5942590000000  0.4700380000000  0.5580080000000 1.0
C      1  0.4379020000000  0.4561080000000  0.5761020000000 1.0
C      1  0.5508740000000  0.5821530000000  0.5637330000000 1.0
C      1  0.4637060000000  0.5971760000000  0.4523450000000 1.0
C      1  0.5013910000000  0.5373810000000  0.3849620000000 1.0
C      1  0.4429150000000  0.5328910000000  0.4874430000000 1.0
C      1  0.5092410000000  0.4611580000000  0.5421290000000 1.0
C      1  0.4983370000000  0.4869990000000  0.5613510000000 1.0
C      1  0.4101880000000  0.4897010000000  0.4646140000000 1.0
C      1  0.5855840000000  0.5682060000000  0.4759500000000 1.0
C      1  0.5255430000000  0.6018410000000  0.4420430000000 1.0
C      1  0.5468200000000  0.4842100000000  0.6020230000000 1.0
C      1  0.4655720000000  0.5008400000000  0.6098670000000 1.0
C      1  0.4226790000000  0.5088610000000  0.5247290000000 1.0
C      1  0.5920230000000  0.5161050000000  0.4348040000000 1.0
C      1  0.4817990000000  0.5068220000000  0.4190720000000 1.0
END
