TITL C-2848506-1665-489 0.00145690006119224 125000 -993.796924591727 0 0 185 (C1) n - 1
REM
REM in /home/bkarasulu/work/CARBON/AIRSS/Generating-Clusters/AIREBO/with-SteepDescent/Only-C1/SD-CG-opt/Try1-1.4A-POS3A/HFTN-CG
REM
REM
REM
REM
REM
REM ./C.cell (11c1c37f851c82e70ff6c80c92926a4b)
REM
REM compiler GCC version 9.2.1 20190827 (Red Hat 9.2.1-1)
REM options -cpp -mtune=generic -march=x86-64 -g -O0 -fpre-include=/usr/include/finclude/math-vector-fortran.h
REM seed -1619723045 1328056783 -1987773866 1075548478 871895091 -938158421 -944696684 -363813642 -897678575 -1994785754 1787457821 -69503172 1016657653 1617253154 804590031 1668534086 1759552643 -1280986974 -1265473089 -246214142 389696501 1093679984 -895545393 309222142 -1057697339 -1188841203 85515791 -922941994 -878038885 -1746046704 29506890 767258176 1054515772
REM
CELL 1.54180   50.00000   50.00000   50.00000   90.00000   90.00000   90.00000
LATT -1
SFAC C  
C      1  0.4913570000000  0.5211980000000  0.3868820000000 1.0
C      1  0.3840000000000  0.5037840000000  0.5335300000000 1.0
C      1  0.5706990000000  0.5808280000000  0.5048360000000 1.0
C      1  0.5207610000000  0.5767310000000  0.5733130000000 1.0
C      1  0.4266820000000  0.4852110000000  0.4490210000000 1.0
C      1  0.4025510000000  0.4910500000000  0.4722680000000 1.0
C      1  0.4114350000000  0.5059540000000  0.5522090000000 1.0
C      1  0.5687850000000  0.4791060000000  0.5167190000000 1.0
C      1  0.5461140000000  0.5836130000000  0.4855040000000 1.0
C      1  0.5286850000000  0.4884690000000  0.5896930000000 1.0
C      1  0.4345430000000  0.5452340000000  0.6035390000000 1.0
C      1  0.5087790000000  0.4644120000000  0.6022000000000 1.0
C      1  0.3891970000000  0.4933210000000  0.5008150000000 1.0
C      1  0.5772000000000  0.4488060000000  0.4414100000000 1.0
C      1  0.4890740000000  0.4866350000000  0.4844150000000 1.0
C      1  0.5737600000000  0.5154660000000  0.4317040000000 1.0
C      1  0.4042440000000  0.5193130000000  0.5124520000000 1.0
C      1  0.6069700000000  0.5287020000000  0.4671810000000 1.0
C      1  0.5124340000000  0.5384920000000  0.4005980000000 1.0
C      1  0.4244590000000  0.4647880000000  0.5274520000000 1.0
C      1  0.5089660000000  0.4167770000000  0.5764920000000 1.0
C      1  0.5535790000000  0.5783850000000  0.4550390000000 1.0
C      1  0.5254970000000  0.3968140000000  0.4746430000000 1.0
C      1  0.4910160000000  0.5582240000000  0.4884380000000 1.0
C      1  0.5719730000000  0.4073130000000  0.4762340000000 1.0
C      1  0.5464820000000  0.4387910000000  0.4419700000000 1.0
C      1  0.3945510000000  0.4686340000000  0.5179220000000 1.0
C      1  0.4950910000000  0.5583830000000  0.4189490000000 1.0
C      1  0.6008600000000  0.4991000000000  0.5284610000000 1.0
C      1  0.4406670000000  0.5035040000000  0.4088850000000 1.0
C      1  0.4687910000000  0.6088100000000  0.5097570000000 1.0
C      1  0.5006480000000  0.4560110000000  0.4394710000000 1.0
C      1  0.4369000000000  0.5586060000000  0.4747660000000 1.0
C      1  0.5451480000000  0.4334310000000  0.5800650000000 1.0
C      1  0.4682720000000  0.5177450000000  0.4024490000000 1.0
C      1  0.5118500000000  0.4694580000000  0.5226320000000 1.0
C      1  0.4905240000000  0.5105190000000  0.4602390000000 1.0
C      1  0.5349150000000  0.3995190000000  0.5033800000000 1.0
C      1  0.5626130000000  0.4058350000000  0.5052930000000 1.0
C      1  0.5144210000000  0.4161150000000  0.5215320000000 1.0
C      1  0.5525220000000  0.4449600000000  0.4977420000000 1.0
C      1  0.5688000000000  0.4823650000000  0.5823670000000 1.0
C      1  0.4471910000000  0.4222620000000  0.5037010000000 1.0
C      1  0.5209950000000  0.5045880000000  0.5392090000000 1.0
C      1  0.4469600000000  0.5462360000000  0.5198190000000 1.0
C      1  0.5673010000000  0.5380710000000  0.4088530000000 1.0
C      1  0.5417610000000  0.5380710000000  0.5307660000000 1.0
C      1  0.4708910000000  0.4433510000000  0.5121910000000 1.0
C      1  0.5893710000000  0.4747370000000  0.4712130000000 1.0
C      1  0.4869700000000  0.6024330000000  0.5361940000000 1.0
C      1  0.4947540000000  0.4355840000000  0.5981050000000 1.0
C      1  0.5832580000000  0.4766120000000  0.5458870000000 1.0
C      1  0.4804180000000  0.5248860000000  0.5183280000000 1.0
C      1  0.5263500000000  0.4889370000000  0.4026380000000 1.0
C      1  0.5313180000000  0.4454360000000  0.5181970000000 1.0
C      1  0.4418730000000  0.5264070000000  0.4844920000000 1.0
C      1  0.5686140000000  0.5567440000000  0.4663960000000 1.0
C      1  0.4043770000000  0.5579890000000  0.4846860000000 1.0
C      1  0.5779440000000  0.5071280000000  0.5599660000000 1.0
C      1  0.5486890000000  0.5149290000000  0.4517710000000 1.0
C      1  0.5320010000000  0.4733170000000  0.4784070000000 1.0
C      1  0.5974480000000  0.5556340000000  0.4699170000000 1.0
C      1  0.5267410000000  0.4253860000000  0.5524840000000 1.0
C      1  0.4766630000000  0.5531230000000  0.5358770000000 1.0
C      1  0.4768430000000  0.4712800000000  0.4223570000000 1.0
C      1  0.5520000000000  0.5110150000000  0.5896780000000 1.0
C      1  0.5999120000000  0.4379620000000  0.4251770000000 1.0
C      1  0.4835730000000  0.5403190000000  0.4453580000000 1.0
C      1  0.4458600000000  0.4749340000000  0.4088280000000 1.0
C      1  0.4522580000000  0.5417900000000  0.4495040000000 1.0
C      1  0.5599040000000  0.5278250000000  0.5068260000000 1.0
C      1  0.4081900000000  0.4573370000000  0.4703140000000 1.0
C      1  0.5769450000000  0.4234450000000  0.5226690000000 1.0
C      1  0.5166970000000  0.6003070000000  0.5278490000000 1.0
C      1  0.5165380000000  0.5297330000000  0.5604660000000 1.0
C      1  0.4556600000000  0.5476580000000  0.5806520000000 1.0
C      1  0.5496960000000  0.5242890000000  0.5585110000000 1.0
C      1  0.4761950000000  0.5845730000000  0.4187150000000 1.0
C      1  0.4416100000000  0.5456530000000  0.5532140000000 1.0
C      1  0.5533880000000  0.5430530000000  0.5941820000000 1.0
C      1  0.5134580000000  0.5447320000000  0.4584600000000 1.0
C      1  0.5028440000000  0.5436300000000  0.5864240000000 1.0
C      1  0.4829080000000  0.4922810000000  0.5624310000000 1.0
C      1  0.4695910000000  0.5896200000000  0.4466670000000 1.0
C      1  0.5911610000000  0.5628420000000  0.4988390000000 1.0
C      1  0.4970610000000  0.5745580000000  0.4599210000000 1.0
C      1  0.4756820000000  0.5287550000000  0.4848360000000 1.0
C      1  0.5897640000000  0.5344560000000  0.5123160000000 1.0
C      1  0.5529170000000  0.5331670000000  0.4762360000000 1.0
C      1  0.4188330000000  0.5118050000000  0.4293310000000 1.0
C      1  0.6051650000000  0.5163900000000  0.4927970000000 1.0
C      1  0.4243020000000  0.5217560000000  0.5979190000000 1.0
C      1  0.4651110000000  0.4767980000000  0.4542110000000 1.0
C      1  0.5127340000000  0.5342960000000  0.5134690000000 1.0
C      1  0.5001600000000  0.4166510000000  0.4336200000000 1.0
C      1  0.4581410000000  0.4653280000000  0.6134050000000 1.0
C      1  0.5963370000000  0.4864720000000  0.4974900000000 1.0
C      1  0.4429490000000  0.4802570000000  0.4784710000000 1.0
C      1  0.4901470000000  0.4949460000000  0.5286230000000 1.0
C      1  0.5063080000000  0.5578690000000  0.5489840000000 1.0
C      1  0.5608450000000  0.5802750000000  0.5308690000000 1.0
C      1  0.6071410000000  0.4860640000000  0.4492090000000 1.0
C      1  0.4548370000000  0.4455080000000  0.4251870000000 1.0
C      1  0.4030470000000  0.5503370000000  0.4553470000000 1.0
C      1  0.3929760000000  0.5338600000000  0.5477150000000 1.0
C      1  0.5084780000000  0.5010980000000  0.6129190000000 1.0
C      1  0.4145260000000  0.4169220000000  0.5115220000000 1.0
C      1  0.4785490000000  0.4251850000000  0.5735520000000 1.0
C      1  0.5228020000000  0.4798200000000  0.5595470000000 1.0
C      1  0.4135020000000  0.5574310000000  0.5381230000000 1.0
C      1  0.5155180000000  0.5827420000000  0.4254530000000 1.0
C      1  0.4609080000000  0.3917370000000  0.4819320000000 1.0
C      1  0.4616560000000  0.3940790000000  0.5120700000000 1.0
C      1  0.4944330000000  0.5913100000000  0.4958880000000 1.0
C      1  0.4593610000000  0.5180870000000  0.5441740000000 1.0
C      1  0.4490980000000  0.4784140000000  0.5786710000000 1.0
C      1  0.5281750000000  0.4668660000000  0.4391590000000 1.0
C      1  0.4708470000000  0.5170890000000  0.5823530000000 1.0
C      1  0.4394620000000  0.5851800000000  0.4536990000000 1.0
C      1  0.5258060000000  0.5101640000000  0.4258010000000 1.0
C      1  0.5069150000000  0.6030730000000  0.4442280000000 1.0
C      1  0.5430700000000  0.4248910000000  0.4726800000000 1.0
C      1  0.4267390000000  0.4297690000000  0.4775910000000 1.0
C      1  0.4992830000000  0.4695510000000  0.3967400000000 1.0
C      1  0.4702230000000  0.4756180000000  0.5089730000000 1.0
C      1  0.5395410000000  0.4566000000000  0.5482290000000 1.0
C      1  0.4466650000000  0.4201540000000  0.5463480000000 1.0
C      1  0.4160700000000  0.5208400000000  0.4627000000000 1.0
C      1  0.5179330000000  0.4940630000000  0.4999380000000 1.0
C      1  0.5683930000000  0.4531380000000  0.5649700000000 1.0
C      1  0.4810840000000  0.4088680000000  0.4714550000000 1.0
C      1  0.4302440000000  0.5724110000000  0.5125220000000 1.0
C      1  0.4340630000000  0.5156660000000  0.5122490000000 1.0
C      1  0.4703260000000  0.5792140000000  0.5515640000000 1.0
C      1  0.4946990000000  0.4625930000000  0.5512050000000 1.0
C      1  0.4566150000000  0.4393970000000  0.4645170000000 1.0
C      1  0.5235990000000  0.6025680000000  0.4973200000000 1.0
C      1  0.4603900000000  0.3941500000000  0.5446060000000 1.0
C      1  0.5431050000000  0.5278820000000  0.3946070000000 1.0
C      1  0.4240690000000  0.4316910000000  0.5347870000000 1.0
C      1  0.5698680000000  0.5817630000000  0.5571970000000 1.0
C      1  0.5835590000000  0.4499560000000  0.5072960000000 1.0
C      1  0.5216240000000  0.5240290000000  0.4842180000000 1.0
C      1  0.5166520000000  0.4453360000000  0.4790780000000 1.0
C      1  0.5585920000000  0.4744200000000  0.4286170000000 1.0
C      1  0.5208220000000  0.4957950000000  0.4554640000000 1.0
C      1  0.5326960000000  0.4137710000000  0.4271310000000 1.0
C      1  0.4713630000000  0.4420710000000  0.5461810000000 1.0
C      1  0.5228420000000  0.5626690000000  0.4976890000000 1.0
C      1  0.4300750000000  0.4516270000000  0.4449140000000 1.0
C      1  0.5299340000000  0.5422080000000  0.4295250000000 1.0
C      1  0.5336000000000  0.4421510000000  0.6034330000000 1.0
C      1  0.5590480000000  0.4779250000000  0.4617980000000 1.0
C      1  0.4519740000000  0.5079650000000  0.4507200000000 1.0
C      1  0.4774110000000  0.5045440000000  0.4294000000000 1.0
C      1  0.4449510000000  0.4605620000000  0.5526580000000 1.0
C      1  0.4918530000000  0.5209450000000  0.6046130000000 1.0
C      1  0.5585320000000  0.4994290000000  0.4058600000000 1.0
C      1  0.5295800000000  0.5700300000000  0.5295410000000 1.0
C      1  0.4815650000000  0.5644960000000  0.5796350000000 1.0
C      1  0.4698130000000  0.6013100000000  0.4765030000000 1.0
C      1  0.5977690000000  0.5270940000000  0.5421400000000 1.0
C      1  0.4397100000000  0.5098970000000  0.5707130000000 1.0
C      1  0.6007150000000  0.5123150000000  0.4448180000000 1.0
C      1  0.4705890000000  0.4198610000000  0.4410050000000 1.0
C      1  0.3985580000000  0.5483880000000  0.5096070000000 1.0
C      1  0.5465860000000  0.5008430000000  0.5169530000000 1.0
C      1  0.4435420000000  0.5883700000000  0.4898360000000 1.0
C      1  0.4857770000000  0.4561190000000  0.4697460000000 1.0
C      1  0.4800850000000  0.4716820000000  0.5893380000000 1.0
C      1  0.5036580000000  0.4967410000000  0.3792610000000 1.0
C      1  0.5263440000000  0.5578050000000  0.6014310000000 1.0
C      1  0.4356430000000  0.3978420000000  0.4724980000000 1.0
C      1  0.5410120000000  0.5716890000000  0.4317490000000 1.0
C      1  0.5813050000000  0.4263290000000  0.5493840000000 1.0
C      1  0.5538720000000  0.5697260000000  0.5765870000000 1.0
C      1  0.5175490000000  0.3933520000000  0.4483750000000 1.0
C      1  0.4935270000000  0.5953100000000  0.5694530000000 1.0
C      1  0.4977500000000  0.4396040000000  0.4099400000000 1.0
C      1  0.4404720000000  0.4848780000000  0.5086460000000 1.0
C      1  0.4948610000000  0.4277510000000  0.4962610000000 1.0
C      1  0.4178670000000  0.4770640000000  0.5649100000000 1.0
C      1  0.4902400000000  0.3950610000000  0.5303200000000 1.0
C      1  0.5774940000000  0.4450720000000  0.4745590000000 1.0
C      1  0.4151810000000  0.5698360000000  0.4402610000000 1.0
END
