TITL C-2847957-7266-587 -0.000575725741910888 125000 -441.669083240456 0 0 85 (C1) n - 1
REM
REM in /home/bkarasulu/work/CARBON/AIRSS/Generating-Clusters/AIREBO/with-SteepDescent/Only-C1/SD-CG-opt/Try1-1.4A-POS3A/HFTN-CG
REM
REM
REM
REM
REM
REM ./C.cell (11c1c37f851c82e70ff6c80c92926a4b)
REM
REM compiler GCC version 9.2.1 20190827 (Red Hat 9.2.1-1)
REM options -cpp -mtune=generic -march=x86-64 -g -O0 -fpre-include=/usr/include/finclude/math-vector-fortran.h
REM seed 2119982947 630027468 -707573035 -159543291 1799904997 -784239162 -2088147804 -1491583122 -782236491 -1530169188 -1018497285 778842678 -418406999 2038077551 -1633873706 -510251587 -1809632974 -107398428 2118572962 -1014360701 -1133456272 2145947995 199756624 1532760324 1578582933 1757688301 -1101917166 1147176775 -732977796 153332123 319735944 440899462 1847804464
REM
CELL 1.54180   50.00000   50.00000   50.00000   90.00000   90.00000   90.00000
LATT -1
SFAC C  
C      1  0.5086260000000  0.5241540000000  0.4323980000000 1.0
C      1  0.5579730000000  0.4791970000000  0.5055660000000 1.0
C      1  0.5781920000000  0.4313220000000  0.5072750000000 1.0
C      1  0.5375620000000  0.4381440000000  0.5399110000000 1.0
C      1  0.4404700000000  0.4818730000000  0.4948630000000 1.0
C      1  0.5515070000000  0.5060020000000  0.4330490000000 1.0
C      1  0.4832790000000  0.4274390000000  0.4959290000000 1.0
C      1  0.4293250000000  0.4586820000000  0.5153210000000 1.0
C      1  0.5053380000000  0.5594800000000  0.4626770000000 1.0
C      1  0.4088040000000  0.5095460000000  0.5160170000000 1.0
C      1  0.5125100000000  0.4378970000000  0.4554170000000 1.0
C      1  0.5187920000000  0.4679550000000  0.4635940000000 1.0
C      1  0.4602480000000  0.5314550000000  0.4840760000000 1.0
C      1  0.4577620000000  0.5142820000000  0.4298130000000 1.0
C      1  0.4550310000000  0.5547730000000  0.5290960000000 1.0
C      1  0.5396280000000  0.5775490000000  0.4971330000000 1.0
C      1  0.4777620000000  0.4665930000000  0.4899650000000 1.0
C      1  0.4565880000000  0.5375690000000  0.5533150000000 1.0
C      1  0.4883400000000  0.5611570000000  0.5282220000000 1.0
C      1  0.4195010000000  0.4876640000000  0.4532110000000 1.0
C      1  0.4815130000000  0.4314000000000  0.5274160000000 1.0
C      1  0.4769720000000  0.4857320000000  0.5839180000000 1.0
C      1  0.4804580000000  0.4314010000000  0.4528030000000 1.0
C      1  0.5587660000000  0.4625480000000  0.5418500000000 1.0
C      1  0.4801470000000  0.4934950000000  0.5347050000000 1.0
C      1  0.5075530000000  0.4590700000000  0.4927260000000 1.0
C      1  0.5481730000000  0.4748380000000  0.4567470000000 1.0
C      1  0.4804210000000  0.5126130000000  0.5838020000000 1.0
C      1  0.5634840000000  0.4932600000000  0.5362140000000 1.0
C      1  0.5006840000000  0.5248300000000  0.5633220000000 1.0
C      1  0.4730590000000  0.4936860000000  0.4749140000000 1.0
C      1  0.5204970000000  0.4795500000000  0.5771840000000 1.0
C      1  0.5115240000000  0.4912380000000  0.5325540000000 1.0
C      1  0.4505220000000  0.5635000000000  0.4372710000000 1.0
C      1  0.5126330000000  0.4394380000000  0.5202780000000 1.0
C      1  0.4331520000000  0.5151330000000  0.4968240000000 1.0
C      1  0.4180280000000  0.5139220000000  0.4670090000000 1.0
C      1  0.5094330000000  0.4553000000000  0.5702440000000 1.0
C      1  0.4446850000000  0.4676390000000  0.4642300000000 1.0
C      1  0.4876260000000  0.4488800000000  0.5558050000000 1.0
C      1  0.5219590000000  0.5659340000000  0.5261960000000 1.0
C      1  0.4382500000000  0.4883360000000  0.4307140000000 1.0
C      1  0.5166270000000  0.5370310000000  0.5124320000000 1.0
C      1  0.5660400000000  0.5246090000000  0.5797300000000 1.0
C      1  0.5528740000000  0.5423540000000  0.4669290000000 1.0
C      1  0.5508440000000  0.5196780000000  0.5535030000000 1.0
C      1  0.4490900000000  0.5424800000000  0.4215020000000 1.0
C      1  0.5687270000000  0.4333290000000  0.5336850000000 1.0
C      1  0.4356230000000  0.5454140000000  0.5121300000000 1.0
C      1  0.4853910000000  0.5302910000000  0.5008090000000 1.0
C      1  0.5234580000000  0.5050540000000  0.5580080000000 1.0
C      1  0.4957180000000  0.4854360000000  0.3956200000000 1.0
C      1  0.5674540000000  0.4563420000000  0.4622250000000 1.0
C      1  0.5157180000000  0.5049400000000  0.5051350000000 1.0
C      1  0.5705530000000  0.4517720000000  0.4898840000000 1.0
C      1  0.4351080000000  0.4807270000000  0.5626560000000 1.0
C      1  0.5056310000000  0.4199080000000  0.4816090000000 1.0
C      1  0.5278460000000  0.4688080000000  0.5164390000000 1.0
C      1  0.4651680000000  0.4750880000000  0.5165790000000 1.0
C      1  0.4612810000000  0.4423160000000  0.4766880000000 1.0
C      1  0.4826580000000  0.5264490000000  0.5345160000000 1.0
C      1  0.4570210000000  0.4657870000000  0.4322210000000 1.0
C      1  0.5495410000000  0.5486340000000  0.5363280000000 1.0
C      1  0.5590600000000  0.5572760000000  0.4895660000000 1.0
C      1  0.5116460000000  0.5931700000000  0.5086170000000 1.0
C      1  0.4574080000000  0.5289360000000  0.5796610000000 1.0
C      1  0.4539820000000  0.4493060000000  0.5337690000000 1.0
C      1  0.4513540000000  0.5104040000000  0.4612470000000 1.0
C      1  0.5025150000000  0.5509990000000  0.4352240000000 1.0
C      1  0.5042980000000  0.4956400000000  0.4769610000000 1.0
C      1  0.5431520000000  0.5219060000000  0.5000530000000 1.0
C      1  0.4637330000000  0.4727440000000  0.5564150000000 1.0
C      1  0.4802020000000  0.4727020000000  0.4196290000000 1.0
C      1  0.5899580000000  0.4899580000000  0.5013280000000 1.0
C      1  0.4513600000000  0.5590540000000  0.4731050000000 1.0
C      1  0.5076250000000  0.5294050000000  0.4746490000000 1.0
C      1  0.4875770000000  0.5058240000000  0.4217930000000 1.0
C      1  0.5067620000000  0.5539300000000  0.5726100000000 1.0
C      1  0.5700860000000  0.5473740000000  0.5141320000000 1.0
C      1  0.5126080000000  0.5801360000000  0.4781360000000 1.0
C      1  0.5328890000000  0.5174260000000  0.4552600000000 1.0
C      1  0.4978280000000  0.5721820000000  0.5573160000000 1.0
C      1  0.5289820000000  0.4273480000000  0.4355070000000 1.0
C      1  0.5455710000000  0.4975830000000  0.4797890000000 1.0
C      1  0.5722540000000  0.5157760000000  0.5130310000000 1.0
END
