TITL C-2848505-4874-641 -0.0224131113869708 125000 -170.099743913774 0 0 30 (C1) n - 1
REM
REM in /home/bkarasulu/work/CARBON/AIRSS/Generating-Clusters/AIREBO/with-SteepDescent/Only-C1/SD-CG-opt/Try1-1.4A-POS3A/HFTN-CG
REM
REM
REM
REM
REM
REM ./C.cell (11c1c37f851c82e70ff6c80c92926a4b)
REM
REM compiler GCC version 9.2.1 20190827 (Red Hat 9.2.1-1)
REM options -cpp -mtune=generic -march=x86-64 -g -O0 -fpre-include=/usr/include/finclude/math-vector-fortran.h
REM seed -1961495281 1066304910 -532712788 1108877164 -132288092 -676477090 -2131486987 9508140 -603727861 -1100385436 -1702066736 1936532429 -1776686608 406598901 1168351959 133226308 -208326025 1978063124 609031202 -820121862 -726962785 -577286460 -22233123 -610109320 2022037595 829723550 -563534328 -1614321723 -974914423 -1702586810 2105218133 -26175385 608620283
REM
CELL 1.54180   50.00000   50.00000   50.00000   90.00000   90.00000   90.00000
LATT -1
SFAC C  
C      1  0.5715200000000  0.5300300000000  0.4616460000000 1.0
C      1  0.5295660000000  0.5384070000000  0.5390460000000 1.0
C      1  0.5215010000000  0.5249380000000  0.4636740000000 1.0
C      1  0.5027610000000  0.5020370000000  0.5743980000000 1.0
C      1  0.5620400000000  0.5349340000000  0.5855360000000 1.0
C      1  0.5828000000000  0.5345760000000  0.4860280000000 1.0
C      1  0.4250940000000  0.4590440000000  0.4038420000000 1.0
C      1  0.4835270000000  0.4866850000000  0.5346360000000 1.0
C      1  0.5098730000000  0.5509850000000  0.5152220000000 1.0
C      1  0.4921620000000  0.5152960000000  0.4731700000000 1.0
C      1  0.5152450000000  0.4728760000000  0.5675800000000 1.0
C      1  0.5332500000000  0.4997440000000  0.5657690000000 1.0
C      1  0.5493230000000  0.5250240000000  0.5632470000000 1.0
C      1  0.4977340000000  0.4639340000000  0.5456830000000 1.0
C      1  0.4602400000000  0.4802240000000  0.4633350000000 1.0
C      1  0.4941170000000  0.4383380000000  0.5384900000000 1.0
C      1  0.5611370000000  0.5324200000000  0.5327760000000 1.0
C      1  0.4322840000000  0.4491080000000  0.4287150000000 1.0
C      1  0.4753730000000  0.4947840000000  0.4813230000000 1.0
C      1  0.4967500000000  0.5337830000000  0.5402400000000 1.0
C      1  0.5089380000000  0.5358340000000  0.4905500000000 1.0
C      1  0.4740040000000  0.4899150000000  0.5087850000000 1.0
C      1  0.5457330000000  0.5314440000000  0.4529150000000 1.0
C      1  0.4161490000000  0.4693360000000  0.3814570000000 1.0
C      1  0.5062270000000  0.5784590000000  0.5136620000000 1.0
C      1  0.4875220000000  0.5102960000000  0.5510900000000 1.0
C      1  0.5757950000000  0.5298960000000  0.5116930000000 1.0
C      1  0.4164070000000  0.3998600000000  0.4437300000000 1.0
C      1  0.4252270000000  0.4232710000000  0.4359060000000 1.0
C      1  0.4477000000000  0.4645210000000  0.4458550000000 1.0
END
