TITL C-2847947-6848-534 -0.00023100554416972 125000 -738.458687832835 0 0 129 (C1) n - 1
REM
REM in /home/bkarasulu/work/CARBON/AIRSS/Generating-Clusters/AIREBO/with-SteepDescent/Only-C1/SD-CG-opt/Try1-1.4A-POS3A/HFTN-CG
REM
REM
REM
REM
REM
REM ./C.cell (11c1c37f851c82e70ff6c80c92926a4b)
REM
REM compiler GCC version 9.2.1 20190827 (Red Hat 9.2.1-1)
REM options -cpp -mtune=generic -march=x86-64 -g -O0 -fpre-include=/usr/include/finclude/math-vector-fortran.h
REM seed -1331718210 566428155 -720441892 -879112856 1493763389 1511772947 -1420106829 930774846 -116380759 -1807377727 -1117203021 -1466390235 -239882718 1684176974 -2130730729 1437021960 1119390344 -59203548 1338430392 -1230872794 -280250440 1397291808 1335331660 553708945 1979958045 1348855906 -1458091225 -1320890744 -845939157 -642061198 -765755724 -995418094 -1976087541
REM
CELL 1.54180   50.00000   50.00000   50.00000   90.00000   90.00000   90.00000
LATT -1
SFAC C  
C      1  0.5585150000000  0.4962360000000  0.5209730000000 1.0
C      1  0.5026060000000  0.4866970000000  0.5517530000000 1.0
C      1  0.4992680000000  0.4037750000000  0.4592480000000 1.0
C      1  0.4083370000000  0.4272450000000  0.5048430000000 1.0
C      1  0.4781040000000  0.5330450000000  0.5216960000000 1.0
C      1  0.4516570000000  0.4712940000000  0.4898790000000 1.0
C      1  0.4388010000000  0.5270720000000  0.4720170000000 1.0
C      1  0.4831960000000  0.5757370000000  0.5915880000000 1.0
C      1  0.4023900000000  0.5316130000000  0.5416470000000 1.0
C      1  0.4111770000000  0.4987060000000  0.5077970000000 1.0
C      1  0.5086320000000  0.4651160000000  0.5047770000000 1.0
C      1  0.4223700000000  0.5240550000000  0.5588360000000 1.0
C      1  0.4861300000000  0.4721900000000  0.5276850000000 1.0
C      1  0.4546660000000  0.4405580000000  0.5647120000000 1.0
C      1  0.5594210000000  0.4734290000000  0.5660550000000 1.0
C      1  0.5340730000000  0.4357410000000  0.5551860000000 1.0
C      1  0.4268140000000  0.4566420000000  0.4464100000000 1.0
C      1  0.5497470000000  0.5794340000000  0.5256290000000 1.0
C      1  0.4883070000000  0.5708630000000  0.5428800000000 1.0
C      1  0.4874370000000  0.5837810000000  0.4894210000000 1.0
C      1  0.4948620000000  0.5361200000000  0.4576070000000 1.0
C      1  0.5402910000000  0.5947880000000  0.5035450000000 1.0
C      1  0.4652570000000  0.5178540000000  0.5683160000000 1.0
C      1  0.4600780000000  0.4865320000000  0.5149970000000 1.0
C      1  0.4791350000000  0.5083840000000  0.5027090000000 1.0
C      1  0.5030080000000  0.5764180000000  0.4404210000000 1.0
C      1  0.4349020000000  0.4981190000000  0.5285380000000 1.0
C      1  0.5481640000000  0.4590810000000  0.4271150000000 1.0
C      1  0.5832960000000  0.5454680000000  0.5448310000000 1.0
C      1  0.4505560000000  0.4386270000000  0.5318670000000 1.0
C      1  0.5826650000000  0.4645460000000  0.4906790000000 1.0
C      1  0.4724810000000  0.4523750000000  0.4301630000000 1.0
C      1  0.5304020000000  0.4701300000000  0.5485280000000 1.0
C      1  0.4212690000000  0.4989950000000  0.4756260000000 1.0
C      1  0.4554540000000  0.4985780000000  0.4175610000000 1.0
C      1  0.5882280000000  0.4921740000000  0.5057830000000 1.0
C      1  0.4036730000000  0.4530400000000  0.4957360000000 1.0
C      1  0.5732610000000  0.5714500000000  0.5396950000000 1.0
C      1  0.4750530000000  0.4830390000000  0.4388970000000 1.0
C      1  0.5298540000000  0.4877240000000  0.4277300000000 1.0
C      1  0.5947160000000  0.4928690000000  0.5372290000000 1.0
C      1  0.3922660000000  0.4739930000000  0.5093070000000 1.0
C      1  0.5131250000000  0.4361730000000  0.4778270000000 1.0
C      1  0.5989230000000  0.5192290000000  0.5472040000000 1.0
C      1  0.4803400000000  0.5854290000000  0.4582890000000 1.0
C      1  0.5600590000000  0.5225420000000  0.5386310000000 1.0
C      1  0.5060160000000  0.4861830000000  0.4526250000000 1.0
C      1  0.4245330000000  0.4652340000000  0.4783130000000 1.0
C      1  0.4463310000000  0.4394680000000  0.4373150000000 1.0
C      1  0.4391120000000  0.5603090000000  0.4657620000000 1.0
C      1  0.5588920000000  0.5545450000000  0.4518110000000 1.0
C      1  0.4753200000000  0.4439840000000  0.5104160000000 1.0
C      1  0.5398850000000  0.5429800000000  0.4268470000000 1.0
C      1  0.4557980000000  0.5204460000000  0.5374150000000 1.0
C      1  0.5518460000000  0.4377360000000  0.5275490000000 1.0
C      1  0.4458720000000  0.4902020000000  0.5911890000000 1.0
C      1  0.5816100000000  0.4451860000000  0.5361320000000 1.0
C      1  0.4820540000000  0.4925260000000  0.5746350000000 1.0
C      1  0.5844940000000  0.5465360000000  0.4912030000000 1.0
C      1  0.4359670000000  0.4641530000000  0.5484440000000 1.0
C      1  0.4593570000000  0.4748030000000  0.3998650000000 1.0
C      1  0.4699200000000  0.4884420000000  0.4693520000000 1.0
C      1  0.5405690000000  0.4677290000000  0.5161640000000 1.0
C      1  0.5083230000000  0.5338300000000  0.4288890000000 1.0
C      1  0.5400620000000  0.5203670000000  0.5614540000000 1.0
C      1  0.4964070000000  0.5180350000000  0.4090630000000 1.0
C      1  0.4465440000000  0.5571070000000  0.4972560000000 1.0
C      1  0.5015640000000  0.5402100000000  0.5400130000000 1.0
C      1  0.4514100000000  0.4132260000000  0.4471560000000 1.0
C      1  0.4140400000000  0.4844820000000  0.4456180000000 1.0
C      1  0.5076720000000  0.5350520000000  0.4951100000000 1.0
C      1  0.5106820000000  0.5787210000000  0.5863200000000 1.0
C      1  0.4717570000000  0.4074350000000  0.4665600000000 1.0
C      1  0.5210020000000  0.5705780000000  0.4206320000000 1.0
C      1  0.5481980000000  0.5124640000000  0.4755210000000 1.0
C      1  0.4595160000000  0.4175720000000  0.5786860000000 1.0
C      1  0.5132540000000  0.5630240000000  0.4673890000000 1.0
C      1  0.5734930000000  0.4629580000000  0.4430970000000 1.0
C      1  0.4051360000000  0.5277640000000  0.5137730000000 1.0
C      1  0.5363330000000  0.4331630000000  0.4346300000000 1.0
C      1  0.4623890000000  0.4673290000000  0.5776440000000 1.0
C      1  0.5785080000000  0.5633020000000  0.4683590000000 1.0
C      1  0.4380650000000  0.5706740000000  0.5448150000000 1.0
C      1  0.5372170000000  0.5403590000000  0.4688970000000 1.0
C      1  0.4693850000000  0.5671120000000  0.5692910000000 1.0
C      1  0.5135810000000  0.5164290000000  0.5519690000000 1.0
C      1  0.5796240000000  0.5006790000000  0.4739780000000 1.0
C      1  0.4683140000000  0.5211650000000  0.4067880000000 1.0
C      1  0.5834660000000  0.4885050000000  0.4465380000000 1.0
C      1  0.5162350000000  0.5730530000000  0.5604070000000 1.0
C      1  0.5411490000000  0.5193560000000  0.5894730000000 1.0
C      1  0.5355250000000  0.5494010000000  0.5016350000000 1.0
C      1  0.5194490000000  0.5858280000000  0.4895500000000 1.0
C      1  0.5366800000000  0.4202260000000  0.5077700000000 1.0
C      1  0.4938930000000  0.5031990000000  0.6029380000000 1.0
C      1  0.4289090000000  0.4195290000000  0.5209180000000 1.0
C      1  0.5830670000000  0.4703760000000  0.5503950000000 1.0
C      1  0.4318550000000  0.4933590000000  0.5620810000000 1.0
C      1  0.5995550000000  0.5236000000000  0.4842600000000 1.0
C      1  0.5211890000000  0.4030850000000  0.4828060000000 1.0
C      1  0.5207790000000  0.5087500000000  0.6047610000000 1.0
C      1  0.5257000000000  0.5595890000000  0.5312670000000 1.0
C      1  0.5771330000000  0.5065210000000  0.4252380000000 1.0
C      1  0.5258100000000  0.4622620000000  0.4664870000000 1.0
C      1  0.4481020000000  0.5766530000000  0.5204140000000 1.0
C      1  0.5639810000000  0.5412370000000  0.5104750000000 1.0
C      1  0.4662560000000  0.4160090000000  0.4933330000000 1.0
C      1  0.5061530000000  0.4905180000000  0.4066860000000 1.0
C      1  0.5077100000000  0.5101320000000  0.4719640000000 1.0
C      1  0.5086030000000  0.4961250000000  0.5028070000000 1.0
C      1  0.5570430000000  0.4384140000000  0.4601270000000 1.0
C      1  0.4791080000000  0.5528490000000  0.4963950000000 1.0
C      1  0.5466020000000  0.4489010000000  0.5781410000000 1.0
C      1  0.4637960000000  0.5045370000000  0.6081320000000 1.0
C      1  0.5508450000000  0.5136310000000  0.4210430000000 1.0
C      1  0.4914080000000  0.4441780000000  0.4529920000000 1.0
C      1  0.5538520000000  0.4606480000000  0.4856600000000 1.0
C      1  0.4753580000000  0.5849500000000  0.5198870000000 1.0
C      1  0.4177130000000  0.5431460000000  0.4938590000000 1.0
C      1  0.4456320000000  0.5453720000000  0.5645320000000 1.0
C      1  0.5070110000000  0.4316880000000  0.5096040000000 1.0
C      1  0.4531850000000  0.5790460000000  0.4524540000000 1.0
C      1  0.5530580000000  0.4141450000000  0.4788490000000 1.0
C      1  0.4886180000000  0.4680060000000  0.4044800000000 1.0
C      1  0.4790800000000  0.4570570000000  0.4792390000000 1.0
C      1  0.5452610000000  0.4880270000000  0.4580390000000 1.0
C      1  0.5371440000000  0.5046810000000  0.5012940000000 1.0
C      1  0.5118970000000  0.4232480000000  0.4400740000000 1.0
C      1  0.4691720000000  0.5197630000000  0.4731870000000 1.0
END
