TITL C-2848509-3138-419 -0.00110218945340421 125000 -745.104704175507 0 0 139 (C1) n - 1
REM
REM in /home/bkarasulu/work/CARBON/AIRSS/Generating-Clusters/AIREBO/with-SteepDescent/Only-C1/SD-CG-opt/Try1-1.4A-POS3A/HFTN-CG
REM
REM
REM
REM
REM
REM ./C.cell (11c1c37f851c82e70ff6c80c92926a4b)
REM
REM compiler GCC version 9.2.1 20190827 (Red Hat 9.2.1-1)
REM options -cpp -mtune=generic -march=x86-64 -g -O0 -fpre-include=/usr/include/finclude/math-vector-fortran.h
REM seed -533147511 -1368254675 -1864765021 -982956544 -1284227094 -950980748 897537651 -612850424 -1252694530 1985085973 -653591152 304744589 76730906 -1128974448 1571261504 -1893687837 -227020161 -553803411 -1081495944 -875875201 662646071 -1646902321 -1526823186 2010682048 896858235 -448518568 -1710772955 -1778907137 2004523733 12660495 -1367677946 -990109825 -2120022748
REM
CELL 1.54180   50.00000   50.00000   50.00000   90.00000   90.00000   90.00000
LATT -1
SFAC C  
C      1  0.5728460000000  0.4943030000000  0.4308540000000 1.0
C      1  0.5609070000000  0.5671320000000  0.4409780000000 1.0
C      1  0.5421670000000  0.5423660000000  0.4282450000000 1.0
C      1  0.4760840000000  0.4821890000000  0.4327270000000 1.0
C      1  0.5129550000000  0.5029750000000  0.5304120000000 1.0
C      1  0.5905410000000  0.5202210000000  0.5434620000000 1.0
C      1  0.4264240000000  0.5695630000000  0.4765610000000 1.0
C      1  0.5768770000000  0.4694340000000  0.4752280000000 1.0
C      1  0.5025100000000  0.4301690000000  0.4592690000000 1.0
C      1  0.4109950000000  0.5114160000000  0.4988760000000 1.0
C      1  0.4054100000000  0.5209690000000  0.4459480000000 1.0
C      1  0.5371570000000  0.4994360000000  0.4894510000000 1.0
C      1  0.5221070000000  0.4408310000000  0.5136590000000 1.0
C      1  0.4843260000000  0.5004700000000  0.5167850000000 1.0
C      1  0.4724660000000  0.4369840000000  0.5721820000000 1.0
C      1  0.5193900000000  0.5814390000000  0.4584150000000 1.0
C      1  0.4426400000000  0.4476200000000  0.4807790000000 1.0
C      1  0.5654530000000  0.5012910000000  0.4019920000000 1.0
C      1  0.5211190000000  0.5534660000000  0.6056480000000 1.0
C      1  0.4970110000000  0.5949040000000  0.4602990000000 1.0
C      1  0.4705510000000  0.5095330000000  0.3952900000000 1.0
C      1  0.5428180000000  0.5572550000000  0.5062530000000 1.0
C      1  0.5531950000000  0.4896920000000  0.4648160000000 1.0
C      1  0.5652590000000  0.5862530000000  0.5215450000000 1.0
C      1  0.4869230000000  0.4961780000000  0.5597240000000 1.0
C      1  0.4522390000000  0.5531860000000  0.5836400000000 1.0
C      1  0.4711600000000  0.4908010000000  0.5964880000000 1.0
C      1  0.5570790000000  0.4658770000000  0.4408480000000 1.0
C      1  0.4498560000000  0.4425490000000  0.5553890000000 1.0
C      1  0.5328370000000  0.5962070000000  0.5171650000000 1.0
C      1  0.5092440000000  0.4164270000000  0.4959650000000 1.0
C      1  0.4144580000000  0.5447050000000  0.5052450000000 1.0
C      1  0.5320450000000  0.4319100000000  0.4760330000000 1.0
C      1  0.4820300000000  0.4460880000000  0.4165950000000 1.0
C      1  0.5554820000000  0.5837450000000  0.4890720000000 1.0
C      1  0.5226880000000  0.4691170000000  0.4947530000000 1.0
C      1  0.5104660000000  0.5506780000000  0.4838740000000 1.0
C      1  0.5225710000000  0.5295790000000  0.4061890000000 1.0
C      1  0.4991660000000  0.4757710000000  0.5916800000000 1.0
C      1  0.4096960000000  0.4563340000000  0.4806630000000 1.0
C      1  0.5121490000000  0.4405710000000  0.4113720000000 1.0
C      1  0.4718210000000  0.5857330000000  0.4770150000000 1.0
C      1  0.4602780000000  0.5277630000000  0.4777410000000 1.0
C      1  0.4658580000000  0.3946310000000  0.4954580000000 1.0
C      1  0.4466350000000  0.4934890000000  0.5829330000000 1.0
C      1  0.5691530000000  0.4408350000000  0.4642610000000 1.0
C      1  0.4902710000000  0.5171860000000  0.5935260000000 1.0
C      1  0.4439450000000  0.5077960000000  0.5100170000000 1.0
C      1  0.5578330000000  0.4416120000000  0.4963420000000 1.0
C      1  0.5181720000000  0.5508040000000  0.5539070000000 1.0
C      1  0.4552110000000  0.4485830000000  0.4154590000000 1.0
C      1  0.4078310000000  0.5335680000000  0.5343300000000 1.0
C      1  0.5063780000000  0.5110650000000  0.4852820000000 1.0
C      1  0.5361330000000  0.4454120000000  0.4246770000000 1.0
C      1  0.5286800000000  0.5488130000000  0.4557570000000 1.0
C      1  0.4762320000000  0.4715030000000  0.5475610000000 1.0
C      1  0.5186470000000  0.5688800000000  0.5272290000000 1.0
C      1  0.5623490000000  0.5174840000000  0.5426590000000 1.0
C      1  0.4802010000000  0.5713860000000  0.5375950000000 1.0
C      1  0.4483880000000  0.5009160000000  0.4390140000000 1.0
C      1  0.4963690000000  0.4572940000000  0.4439830000000 1.0
C      1  0.5796110000000  0.5981990000000  0.5415890000000 1.0
C      1  0.4439910000000  0.4738980000000  0.5581100000000 1.0
C      1  0.4777670000000  0.5687020000000  0.5666790000000 1.0
C      1  0.4776980000000  0.4087160000000  0.4684750000000 1.0
C      1  0.5177960000000  0.5051300000000  0.4537630000000 1.0
C      1  0.4474520000000  0.5774760000000  0.4596050000000 1.0
C      1  0.5446930000000  0.3939200000000  0.5169840000000 1.0
C      1  0.4261740000000  0.5160650000000  0.5442880000000 1.0
C      1  0.5030730000000  0.4519880000000  0.5398970000000 1.0
C      1  0.4252170000000  0.4727230000000  0.4552330000000 1.0
C      1  0.5510490000000  0.4300420000000  0.5528390000000 1.0
C      1  0.4584120000000  0.4654800000000  0.4565200000000 1.0
C      1  0.4140180000000  0.5410300000000  0.4722830000000 1.0
C      1  0.4392060000000  0.5244540000000  0.5811120000000 1.0
C      1  0.5397270000000  0.5328100000000  0.4833890000000 1.0
C      1  0.5744810000000  0.4695750000000  0.5067410000000 1.0
C      1  0.5989850000000  0.5170250000000  0.4819360000000 1.0
C      1  0.5474400000000  0.4660750000000  0.5650210000000 1.0
C      1  0.4320240000000  0.4890040000000  0.4843090000000 1.0
C      1  0.5454400000000  0.4283180000000  0.4466620000000 1.0
C      1  0.5503390000000  0.4241300000000  0.5225560000000 1.0
C      1  0.4948320000000  0.5250640000000  0.4102370000000 1.0
C      1  0.4817480000000  0.5429820000000  0.5232440000000 1.0
C      1  0.6046720000000  0.5068270000000  0.5169950000000 1.0
C      1  0.5989310000000  0.5488990000000  0.4866080000000 1.0
C      1  0.5092690000000  0.5651520000000  0.5799070000000 1.0
C      1  0.5379960000000  0.4856970000000  0.5420980000000 1.0
C      1  0.4414330000000  0.4290890000000  0.5317220000000 1.0
C      1  0.4897450000000  0.5127570000000  0.4387150000000 1.0
C      1  0.4593620000000  0.5458690000000  0.5012010000000 1.0
C      1  0.4551230000000  0.5603740000000  0.4394110000000 1.0
C      1  0.5868300000000  0.4983450000000  0.4616340000000 1.0
C      1  0.5591450000000  0.4827700000000  0.5922310000000 1.0
C      1  0.4607780000000  0.4120980000000  0.5192670000000 1.0
C      1  0.4592060000000  0.4799240000000  0.5216630000000 1.0
C      1  0.4685820000000  0.5841220000000  0.5081240000000 1.0
C      1  0.5566120000000  0.4971130000000  0.5160320000000 1.0
C      1  0.4854130000000  0.5578850000000  0.4699360000000 1.0
C      1  0.4207820000000  0.4755270000000  0.5134560000000 1.0
C      1  0.5178040000000  0.4924740000000  0.5686480000000 1.0
C      1  0.4696210000000  0.5218840000000  0.5669060000000 1.0
C      1  0.4985180000000  0.5944180000000  0.5205620000000 1.0
C      1  0.3927230000000  0.4849420000000  0.4877490000000 1.0
C      1  0.5220900000000  0.3899470000000  0.5056920000000 1.0
C      1  0.5791690000000  0.4640590000000  0.5772810000000 1.0
C      1  0.4833810000000  0.5484390000000  0.5934010000000 1.0
C      1  0.5145460000000  0.4893370000000  0.6148540000000 1.0
C      1  0.5191180000000  0.5224170000000  0.6089960000000 1.0
C      1  0.5355810000000  0.5038980000000  0.3980680000000 1.0
C      1  0.4687310000000  0.4553580000000  0.5011700000000 1.0
C      1  0.4966110000000  0.4708120000000  0.5131510000000 1.0
C      1  0.4986900000000  0.4018190000000  0.4431770000000 1.0
C      1  0.4243650000000  0.4875290000000  0.5396030000000 1.0
C      1  0.5117520000000  0.5315020000000  0.5119360000000 1.0
C      1  0.5766970000000  0.5563490000000  0.5089950000000 1.0
C      1  0.4962450000000  0.4481120000000  0.5791060000000 1.0
C      1  0.5770160000000  0.5224160000000  0.5060110000000 1.0
C      1  0.5426350000000  0.5096090000000  0.4339890000000 1.0
C      1  0.4896020000000  0.4863960000000  0.4017850000000 1.0
C      1  0.4343160000000  0.5153830000000  0.4629710000000 1.0
C      1  0.5431630000000  0.4985610000000  0.6057950000000 1.0
C      1  0.4764970000000  0.5053450000000  0.4870230000000 1.0
C      1  0.4476030000000  0.4197970000000  0.4703280000000 1.0
C      1  0.5488380000000  0.5825290000000  0.4622270000000 1.0
C      1  0.4830180000000  0.4283960000000  0.5081290000000 1.0
C      1  0.5100890000000  0.4761260000000  0.4663540000000 1.0
C      1  0.4452310000000  0.5017790000000  0.4061130000000 1.0
C      1  0.5233480000000  0.4436430000000  0.5640000000000 1.0
C      1  0.4732470000000  0.5360590000000  0.4503160000000 1.0
C      1  0.4581940000000  0.5241750000000  0.5360510000000 1.0
C      1  0.5081570000000  0.5226220000000  0.5562350000000 1.0
C      1  0.6012630000000  0.4772050000000  0.5173270000000 1.0
C      1  0.5390060000000  0.5353140000000  0.5319490000000 1.0
C      1  0.4262370000000  0.4448010000000  0.5104350000000 1.0
C      1  0.4374770000000  0.4731260000000  0.4234000000000 1.0
C      1  0.5146940000000  0.4840160000000  0.3918050000000 1.0
C      1  0.4378930000000  0.5694550000000  0.5066310000000 1.0
C      1  0.4801010000000  0.4803140000000  0.4722430000000 1.0
END
