TITL C-2848494-1720-513 0.00161985814210923 125000 -1000.72905875023 0 0 181 (C1) n - 1
REM
REM in /home/bkarasulu/work/CARBON/AIRSS/Generating-Clusters/AIREBO/with-SteepDescent/Only-C1/SD-CG-opt/Try1-1.4A-POS3A/HFTN-CG
REM
REM
REM
REM
REM
REM ./C.cell (11c1c37f851c82e70ff6c80c92926a4b)
REM
REM compiler GCC version 9.2.1 20190827 (Red Hat 9.2.1-1)
REM options -cpp -mtune=generic -march=x86-64 -g -O0 -fpre-include=/usr/include/finclude/math-vector-fortran.h
REM seed 948592842 -1045865321 -1845048824 569044066 1833379724 -520097080 -639645486 1910579306 -475901716 -2117719210 -696102382 -801225784 -1715875923 1761326667 -1680179727 1203612521 -1341097627 1060417868 -591399747 2043618265 -1726784495 2079760899 -955417081 -8305355 112711422 -1005724395 -731164750 136552850 -667343533 493686685 -1935308243 -1607646262 -1596349804
REM
CELL 1.54180   50.00000   50.00000   50.00000   90.00000   90.00000   90.00000
LATT -1
SFAC C  
C      1  0.5929460000000  0.5103010000000  0.4117820000000 1.0
C      1  0.4765340000000  0.4585450000000  0.4436620000000 1.0
C      1  0.4072170000000  0.5231990000000  0.4651850000000 1.0
C      1  0.4027090000000  0.5239130000000  0.5325280000000 1.0
C      1  0.5359180000000  0.5334690000000  0.5461440000000 1.0
C      1  0.5782090000000  0.5375360000000  0.5315170000000 1.0
C      1  0.4642720000000  0.4150620000000  0.5861300000000 1.0
C      1  0.6022800000000  0.5404660000000  0.5094850000000 1.0
C      1  0.5196640000000  0.5687070000000  0.5676720000000 1.0
C      1  0.4118980000000  0.5499870000000  0.5470980000000 1.0
C      1  0.4621840000000  0.5303840000000  0.5095310000000 1.0
C      1  0.4308300000000  0.4726730000000  0.4442960000000 1.0
C      1  0.5130200000000  0.4662410000000  0.5714810000000 1.0
C      1  0.4905040000000  0.4304840000000  0.6018370000000 1.0
C      1  0.5635240000000  0.4245820000000  0.5440160000000 1.0
C      1  0.4733880000000  0.4119380000000  0.5100700000000 1.0
C      1  0.5196000000000  0.5881120000000  0.4554530000000 1.0
C      1  0.5502550000000  0.5092940000000  0.5276640000000 1.0
C      1  0.4463570000000  0.5652410000000  0.5758440000000 1.0
C      1  0.3964750000000  0.4987000000000  0.4632560000000 1.0
C      1  0.4814420000000  0.6210560000000  0.5493140000000 1.0
C      1  0.4128830000000  0.4453430000000  0.4167740000000 1.0
C      1  0.5071070000000  0.5754800000000  0.5304260000000 1.0
C      1  0.4798970000000  0.4290050000000  0.4162020000000 1.0
C      1  0.5861430000000  0.4647480000000  0.4472680000000 1.0
C      1  0.5364400000000  0.5277450000000  0.4770460000000 1.0
C      1  0.4396910000000  0.4873550000000  0.4168620000000 1.0
C      1  0.5405140000000  0.4805530000000  0.5854690000000 1.0
C      1  0.5632210000000  0.5869960000000  0.5191530000000 1.0
C      1  0.4289630000000  0.4791520000000  0.4758370000000 1.0
C      1  0.4308000000000  0.4724410000000  0.5636570000000 1.0
C      1  0.5028790000000  0.4278750000000  0.4301670000000 1.0
C      1  0.3743440000000  0.5221270000000  0.5307730000000 1.0
C      1  0.5089890000000  0.6253140000000  0.4653730000000 1.0
C      1  0.5824100000000  0.5073230000000  0.5193320000000 1.0
C      1  0.5417640000000  0.5737490000000  0.4442780000000 1.0
C      1  0.4869570000000  0.4253410000000  0.4840970000000 1.0
C      1  0.4455540000000  0.5552040000000  0.4620770000000 1.0
C      1  0.5770580000000  0.5942620000000  0.4883270000000 1.0
C      1  0.5354610000000  0.4586850000000  0.4838030000000 1.0
C      1  0.5310860000000  0.4617000000000  0.5429360000000 1.0
C      1  0.5392990000000  0.4328930000000  0.5530180000000 1.0
C      1  0.3993000000000  0.4741360000000  0.4875610000000 1.0
C      1  0.4719480000000  0.5638370000000  0.5867410000000 1.0
C      1  0.4327710000000  0.4521670000000  0.4922490000000 1.0
C      1  0.4625690000000  0.4467790000000  0.4943910000000 1.0
C      1  0.4263050000000  0.4027860000000  0.4993980000000 1.0
C      1  0.4502410000000  0.3938250000000  0.4995900000000 1.0
C      1  0.5875020000000  0.5467250000000  0.4485000000000 1.0
C      1  0.4217780000000  0.5690960000000  0.4775070000000 1.0
C      1  0.4812870000000  0.5541220000000  0.4304660000000 1.0
C      1  0.5493740000000  0.5371170000000  0.5735210000000 1.0
C      1  0.5420900000000  0.4445710000000  0.4077130000000 1.0
C      1  0.4250520000000  0.4870250000000  0.5902270000000 1.0
C      1  0.4158220000000  0.5236610000000  0.5041790000000 1.0
C      1  0.4949020000000  0.4916770000000  0.4863750000000 1.0
C      1  0.4917870000000  0.4475760000000  0.5525500000000 1.0
C      1  0.5484220000000  0.4888750000000  0.4590100000000 1.0
C      1  0.3843010000000  0.4699250000000  0.4590870000000 1.0
C      1  0.4290240000000  0.5184110000000  0.5797030000000 1.0
C      1  0.4613100000000  0.5138600000000  0.5830310000000 1.0
C      1  0.5614690000000  0.4680310000000  0.5030670000000 1.0
C      1  0.4613090000000  0.4489490000000  0.5269950000000 1.0
C      1  0.5420380000000  0.5059020000000  0.3824100000000 1.0
C      1  0.4684020000000  0.4836520000000  0.5850100000000 1.0
C      1  0.5105030000000  0.6070560000000  0.5181520000000 1.0
C      1  0.5526730000000  0.4276200000000  0.4353210000000 1.0
C      1  0.4555640000000  0.5569290000000  0.4945360000000 1.0
C      1  0.4209450000000  0.5739280000000  0.5320130000000 1.0
C      1  0.4174420000000  0.4544400000000  0.5420290000000 1.0
C      1  0.5194240000000  0.5149600000000  0.4504600000000 1.0
C      1  0.3931610000000  0.4852670000000  0.5360040000000 1.0
C      1  0.6162800000000  0.5021280000000  0.4514810000000 1.0
C      1  0.5085030000000  0.5488570000000  0.5929780000000 1.0
C      1  0.5774670000000  0.4932400000000  0.4928180000000 1.0
C      1  0.5164020000000  0.4619160000000  0.3937220000000 1.0
C      1  0.4140950000000  0.5006660000000  0.5545860000000 1.0
C      1  0.4356190000000  0.4566750000000  0.4079530000000 1.0
C      1  0.4939270000000  0.4803560000000  0.5154590000000 1.0
C      1  0.5749700000000  0.5554680000000  0.5842540000000 1.0
C      1  0.5310520000000  0.5264660000000  0.5951490000000 1.0
C      1  0.4757010000000  0.4919720000000  0.5384670000000 1.0
C      1  0.5447430000000  0.3989150000000  0.5091670000000 1.0
C      1  0.6133220000000  0.4424120000000  0.4661570000000 1.0
C      1  0.4640910000000  0.4196780000000  0.5402730000000 1.0
C      1  0.5854240000000  0.5012300000000  0.5650500000000 1.0
C      1  0.4992520000000  0.5509110000000  0.4756560000000 1.0
C      1  0.5501020000000  0.5497780000000  0.5226790000000 1.0
C      1  0.5399200000000  0.4252230000000  0.4796440000000 1.0
C      1  0.4058150000000  0.5458180000000  0.4851930000000 1.0
C      1  0.5481280000000  0.3937620000000  0.4758120000000 1.0
C      1  0.6224240000000  0.4702380000000  0.4621380000000 1.0
C      1  0.5315180000000  0.5104500000000  0.5041970000000 1.0
C      1  0.4424710000000  0.5192170000000  0.4230270000000 1.0
C      1  0.5477160000000  0.4563730000000  0.4519450000000 1.0
C      1  0.4617000000000  0.4856580000000  0.4502170000000 1.0
C      1  0.5641360000000  0.4175590000000  0.5172020000000 1.0
C      1  0.4700090000000  0.5421880000000  0.5370540000000 1.0
C      1  0.5810920000000  0.5644850000000  0.5021720000000 1.0
C      1  0.4634020000000  0.4659470000000  0.5563930000000 1.0
C      1  0.5679010000000  0.4378280000000  0.4942990000000 1.0
C      1  0.4926340000000  0.4214060000000  0.5705780000000 1.0
C      1  0.5041450000000  0.5250770000000  0.5698170000000 1.0
C      1  0.5349170000000  0.4837820000000  0.4072470000000 1.0
C      1  0.4347730000000  0.5270770000000  0.4512330000000 1.0
C      1  0.5238590000000  0.4842520000000  0.4365440000000 1.0
C      1  0.5037540000000  0.5433490000000  0.5411420000000 1.0
C      1  0.5617630000000  0.4844940000000  0.5687700000000 1.0
C      1  0.4625970000000  0.5015440000000  0.3998990000000 1.0
C      1  0.4888020000000  0.4796400000000  0.4001130000000 1.0
C      1  0.5796330000000  0.5305670000000  0.5619980000000 1.0
C      1  0.5255740000000  0.3721200000000  0.4829320000000 1.0
C      1  0.4615350000000  0.5982250000000  0.4793680000000 1.0
C      1  0.4670060000000  0.4579550000000  0.4125560000000 1.0
C      1  0.5651120000000  0.4636010000000  0.4236340000000 1.0
C      1  0.5587490000000  0.4773470000000  0.5356610000000 1.0
C      1  0.4598970000000  0.5811660000000  0.5180030000000 1.0
C      1  0.5031790000000  0.5509270000000  0.4468290000000 1.0
C      1  0.4860150000000  0.5092660000000  0.4473630000000 1.0
C      1  0.6040850000000  0.5208690000000  0.4345240000000 1.0
C      1  0.5362410000000  0.4998040000000  0.6044380000000 1.0
C      1  0.5253580000000  0.4897370000000  0.4808530000000 1.0
C      1  0.4177810000000  0.4311130000000  0.5099620000000 1.0
C      1  0.4775430000000  0.5362660000000  0.5970420000000 1.0
C      1  0.5018870000000  0.6299120000000  0.5363540000000 1.0
C      1  0.5370090000000  0.5535230000000  0.4956100000000 1.0
C      1  0.4875350000000  0.5246970000000  0.4897500000000 1.0
C      1  0.5051590000000  0.5185450000000  0.5181770000000 1.0
C      1  0.5216810000000  0.4396010000000  0.5907710000000 1.0
C      1  0.4959720000000  0.6058620000000  0.4464680000000 1.0
C      1  0.4826410000000  0.4641840000000  0.4766340000000 1.0
C      1  0.5394480000000  0.5760620000000  0.5409170000000 1.0
C      1  0.5719370000000  0.5746830000000  0.4600730000000 1.0
C      1  0.4614260000000  0.5191190000000  0.4686930000000 1.0
C      1  0.4620530000000  0.5702550000000  0.4421670000000 1.0
C      1  0.4878530000000  0.3954930000000  0.5428610000000 1.0
C      1  0.5893220000000  0.4625310000000  0.5374760000000 1.0
C      1  0.5864690000000  0.5408000000000  0.4798430000000 1.0
C      1  0.4857600000000  0.5930640000000  0.4994940000000 1.0
C      1  0.5155620000000  0.4909740000000  0.5353010000000 1.0
C      1  0.4995190000000  0.4961650000000  0.5626130000000 1.0
C      1  0.5878340000000  0.4297640000000  0.4701540000000 1.0
C      1  0.4005910000000  0.4632150000000  0.5145620000000 1.0
C      1  0.4016360000000  0.4578090000000  0.4408040000000 1.0
C      1  0.4698830000000  0.4766230000000  0.6169360000000 1.0
C      1  0.5479160000000  0.5811270000000  0.4827860000000 1.0
C      1  0.4797380000000  0.5904090000000  0.5440390000000 1.0
C      1  0.4974590000000  0.4328780000000  0.5219080000000 1.0
C      1  0.4659270000000  0.5182050000000  0.5539010000000 1.0
C      1  0.5082160000000  0.4560200000000  0.4471070000000 1.0
C      1  0.5950050000000  0.4866490000000  0.4699140000000 1.0
C      1  0.4449060000000  0.4190850000000  0.5648820000000 1.0
C      1  0.5684630000000  0.4893170000000  0.4064300000000 1.0
C      1  0.4388280000000  0.5054670000000  0.4877960000000 1.0
C      1  0.4287470000000  0.5976120000000  0.5165840000000 1.0
C      1  0.5082120000000  0.3762240000000  0.5010310000000 1.0
C      1  0.5180750000000  0.6134250000000  0.4877910000000 1.0
C      1  0.5536920000000  0.5185690000000  0.4121630000000 1.0
C      1  0.4902090000000  0.4627140000000  0.5964560000000 1.0
C      1  0.5962300000000  0.4907770000000  0.5406400000000 1.0
C      1  0.5097530000000  0.4317200000000  0.4692490000000 1.0
C      1  0.4240990000000  0.5468330000000  0.5718930000000 1.0
C      1  0.5686640000000  0.4114180000000  0.4557630000000 1.0
C      1  0.4493290000000  0.5637400000000  0.5452250000000 1.0
C      1  0.4910430000000  0.5765070000000  0.5700730000000 1.0
C      1  0.5179210000000  0.4117420000000  0.5537370000000 1.0
C      1  0.4398320000000  0.4735750000000  0.5250910000000 1.0
C      1  0.4508150000000  0.5009860000000  0.5171150000000 1.0
C      1  0.5626060000000  0.5292250000000  0.4378470000000 1.0
C      1  0.5143530000000  0.5788660000000  0.4877660000000 1.0
C      1  0.4727260000000  0.5298860000000  0.4157900000000 1.0
C      1  0.4980990000000  0.5083790000000  0.4158520000000 1.0
C      1  0.5341980000000  0.5439660000000  0.4406110000000 1.0
C      1  0.4697740000000  0.5953990000000  0.4522890000000 1.0
C      1  0.4244600000000  0.4244400000000  0.5426810000000 1.0
C      1  0.5131430000000  0.4026960000000  0.5213040000000 1.0
C      1  0.5253040000000  0.4134660000000  0.4262330000000 1.0
C      1  0.5669700000000  0.5151370000000  0.4690090000000 1.0
C      1  0.4349280000000  0.5923410000000  0.4882950000000 1.0
C      1  0.5060000000000  0.4559890000000  0.5006100000000 1.0
C      1  0.5216510000000  0.5212470000000  0.4041930000000 1.0
END
