TITL C-2847956-8218-613 -0.000471779393401517 125000 -669.876770886917 0 0 127 (C1) n - 1
REM
REM in /home/bkarasulu/work/CARBON/AIRSS/Generating-Clusters/AIREBO/with-SteepDescent/Only-C1/SD-CG-opt/Try1-1.4A-POS3A/HFTN-CG
REM
REM
REM
REM
REM
REM ./C.cell (11c1c37f851c82e70ff6c80c92926a4b)
REM
REM compiler GCC version 9.2.1 20190827 (Red Hat 9.2.1-1)
REM options -cpp -mtune=generic -march=x86-64 -g -O0 -fpre-include=/usr/include/finclude/math-vector-fortran.h
REM seed 1703836162 -1394904445 413691267 -1017515789 693967964 -1462099570 696765510 -768125653 1652485889 2092796631 677633164 -831076045 -93518704 740183421 -1705598044 -1928468917 338526675 -1271546385 1555105981 1444248698 1617217539 -1269328664 -338464934 343817503 1616759852 1826919744 1981942844 1684209404 -912238631 317042594 -1055992480 -1555819547 882276585
REM
CELL 1.54180   50.00000   50.00000   50.00000   90.00000   90.00000   90.00000
LATT -1
SFAC C  
C      1  0.4986160000000  0.5315400000000  0.4825200000000 1.0
C      1  0.4987910000000  0.5685740000000  0.5618270000000 1.0
C      1  0.5125210000000  0.4743220000000  0.4063980000000 1.0
C      1  0.5784270000000  0.5172410000000  0.5601770000000 1.0
C      1  0.4145810000000  0.4685130000000  0.4866100000000 1.0
C      1  0.4477270000000  0.5362610000000  0.5624660000000 1.0
C      1  0.5876980000000  0.4623010000000  0.4884570000000 1.0
C      1  0.6003300000000  0.5039500000000  0.4718800000000 1.0
C      1  0.5255640000000  0.4342580000000  0.5914200000000 1.0
C      1  0.5944670000000  0.5248860000000  0.4978820000000 1.0
C      1  0.4737520000000  0.4407450000000  0.4441190000000 1.0
C      1  0.5021720000000  0.4544800000000  0.4573830000000 1.0
C      1  0.5252340000000  0.5078660000000  0.4436880000000 1.0
C      1  0.5654460000000  0.5378760000000  0.5099540000000 1.0
C      1  0.4388990000000  0.4411350000000  0.4434830000000 1.0
C      1  0.5645320000000  0.5189700000000  0.4633810000000 1.0
C      1  0.4154150000000  0.5370000000000  0.4624370000000 1.0
C      1  0.4402500000000  0.4844690000000  0.5655140000000 1.0
C      1  0.5363280000000  0.4461650000000  0.5142810000000 1.0
C      1  0.4526120000000  0.4558660000000  0.5402250000000 1.0
C      1  0.5318540000000  0.5838640000000  0.4866050000000 1.0
C      1  0.3983630000000  0.4910770000000  0.5328740000000 1.0
C      1  0.4910480000000  0.4710490000000  0.5241090000000 1.0
C      1  0.5205390000000  0.4578200000000  0.5508040000000 1.0
C      1  0.4754920000000  0.4659230000000  0.4750830000000 1.0
C      1  0.4945240000000  0.5130290000000  0.5214220000000 1.0
C      1  0.4302360000000  0.4932480000000  0.4407380000000 1.0
C      1  0.4128440000000  0.4972900000000  0.5041490000000 1.0
C      1  0.4897810000000  0.4994860000000  0.4068390000000 1.0
C      1  0.4863360000000  0.5449850000000  0.5179310000000 1.0
C      1  0.5010740000000  0.4213030000000  0.4978740000000 1.0
C      1  0.5208400000000  0.5440520000000  0.4275190000000 1.0
C      1  0.5034140000000  0.5879130000000  0.5048400000000 1.0
C      1  0.4109980000000  0.5533500000000  0.5165430000000 1.0
C      1  0.4822690000000  0.4492350000000  0.4999760000000 1.0
C      1  0.4747910000000  0.5752730000000  0.5181450000000 1.0
C      1  0.4866840000000  0.4207410000000  0.5274520000000 1.0
C      1  0.5259520000000  0.5283520000000  0.4657130000000 1.0
C      1  0.5816940000000  0.5405790000000  0.4719000000000 1.0
C      1  0.5508570000000  0.5793760000000  0.5675560000000 1.0
C      1  0.5643000000000  0.5752820000000  0.5365870000000 1.0
C      1  0.5375540000000  0.4202490000000  0.5362580000000 1.0
C      1  0.4880560000000  0.5004300000000  0.4905100000000 1.0
C      1  0.4710830000000  0.5845920000000  0.4623080000000 1.0
C      1  0.5530990000000  0.5804680000000  0.4602480000000 1.0
C      1  0.4489560000000  0.4642290000000  0.4648970000000 1.0
C      1  0.5221550000000  0.5932010000000  0.5270950000000 1.0
C      1  0.4505390000000  0.5043590000000  0.4648500000000 1.0
C      1  0.4745340000000  0.5225300000000  0.4519180000000 1.0
C      1  0.5436250000000  0.4834680000000  0.5741000000000 1.0
C      1  0.4971870000000  0.5548910000000  0.4578040000000 1.0
C      1  0.5019210000000  0.4287250000000  0.5782920000000 1.0
C      1  0.5856450000000  0.4745880000000  0.5196560000000 1.0
C      1  0.4515090000000  0.4351880000000  0.4961820000000 1.0
C      1  0.4347130000000  0.4786210000000  0.5223140000000 1.0
C      1  0.4697810000000  0.5342920000000  0.5805920000000 1.0
C      1  0.5764940000000  0.5064670000000  0.5197810000000 1.0
C      1  0.5192810000000  0.4550430000000  0.4867620000000 1.0
C      1  0.4632160000000  0.5543260000000  0.4563320000000 1.0
C      1  0.4423800000000  0.5660440000000  0.5133340000000 1.0
C      1  0.4936400000000  0.5471090000000  0.5784450000000 1.0
C      1  0.4653080000000  0.5192260000000  0.4021930000000 1.0
C      1  0.4999110000000  0.5847980000000  0.4737480000000 1.0
C      1  0.4508900000000  0.4737880000000  0.4240960000000 1.0
C      1  0.5268050000000  0.4779360000000  0.4551820000000 1.0
C      1  0.4903860000000  0.5566240000000  0.4244760000000 1.0
C      1  0.4952810000000  0.4798160000000  0.5566970000000 1.0
C      1  0.4599220000000  0.4312300000000  0.5273630000000 1.0
C      1  0.5605490000000  0.4409810000000  0.5488000000000 1.0
C      1  0.5311870000000  0.5122310000000  0.4946090000000 1.0
C      1  0.4672660000000  0.4639050000000  0.5675610000000 1.0
C      1  0.5160780000000  0.4184300000000  0.4674980000000 1.0
C      1  0.5800590000000  0.4305210000000  0.4784740000000 1.0
C      1  0.5658750000000  0.4439000000000  0.5042910000000 1.0
C      1  0.5798540000000  0.4824370000000  0.4671660000000 1.0
C      1  0.5263940000000  0.5701900000000  0.5480100000000 1.0
C      1  0.4882810000000  0.4879230000000  0.5978880000000 1.0
C      1  0.5394680000000  0.4743930000000  0.4149240000000 1.0
C      1  0.4167850000000  0.4697140000000  0.5498710000000 1.0
C      1  0.5188180000000  0.5281300000000  0.5800250000000 1.0
C      1  0.4871860000000  0.4914930000000  0.4576980000000 1.0
C      1  0.5531530000000  0.5377080000000  0.4301530000000 1.0
C      1  0.5342250000000  0.4146900000000  0.5015830000000 1.0
C      1  0.5553330000000  0.5702870000000  0.5072140000000 1.0
C      1  0.4630030000000  0.5012020000000  0.5845070000000 1.0
C      1  0.4362160000000  0.5468260000000  0.4873260000000 1.0
C      1  0.4605430000000  0.5138730000000  0.5221970000000 1.0
C      1  0.5147950000000  0.4837510000000  0.5033430000000 1.0
C      1  0.4777940000000  0.4400720000000  0.5844980000000 1.0
C      1  0.5407400000000  0.4481720000000  0.4492960000000 1.0
C      1  0.4555220000000  0.5441970000000  0.5339810000000 1.0
C      1  0.5368230000000  0.4756550000000  0.5279300000000 1.0
C      1  0.5487670000000  0.4262320000000  0.4729820000000 1.0
C      1  0.4550790000000  0.4247990000000  0.4676470000000 1.0
C      1  0.5152690000000  0.4942510000000  0.5801460000000 1.0
C      1  0.4723610000000  0.5047090000000  0.5532440000000 1.0
C      1  0.4301000000000  0.5159440000000  0.5672250000000 1.0
C      1  0.5023310000000  0.5187900000000  0.5517880000000 1.0
C      1  0.4386970000000  0.5442360000000  0.4387050000000 1.0
C      1  0.5447860000000  0.4524660000000  0.5740320000000 1.0
C      1  0.4645590000000  0.4829260000000  0.5114890000000 1.0
C      1  0.4175150000000  0.4651340000000  0.4548360000000 1.0
C      1  0.4468660000000  0.5175980000000  0.4927050000000 1.0
C      1  0.4792380000000  0.4769080000000  0.4280280000000 1.0
C      1  0.4043930000000  0.5131860000000  0.4479030000000 1.0
C      1  0.5406030000000  0.5434480000000  0.5324980000000 1.0
C      1  0.5305590000000  0.5586620000000  0.4555910000000 1.0
C      1  0.5188250000000  0.5410030000000  0.5081500000000 1.0
C      1  0.5478790000000  0.4928710000000  0.4729520000000 1.0
C      1  0.5156100000000  0.4310980000000  0.4366700000000 1.0
C      1  0.4796230000000  0.5830070000000  0.5487190000000 1.0
C      1  0.4143620000000  0.4447120000000  0.5280090000000 1.0
C      1  0.5821300000000  0.4549570000000  0.5390710000000 1.0
C      1  0.5319550000000  0.5167830000000  0.5441180000000 1.0
C      1  0.5419870000000  0.5480840000000  0.5774650000000 1.0
C      1  0.5695470000000  0.5557270000000  0.4487160000000 1.0
C      1  0.5075920000000  0.4272370000000  0.5476690000000 1.0
C      1  0.4654420000000  0.5459740000000  0.4173650000000 1.0
C      1  0.4086380000000  0.5281200000000  0.4945960000000 1.0
C      1  0.4387620000000  0.5170170000000  0.4189630000000 1.0
C      1  0.5564830000000  0.4959990000000  0.5452200000000 1.0
C      1  0.4990080000000  0.5181160000000  0.4303480000000 1.0
C      1  0.5629210000000  0.4720650000000  0.4394810000000 1.0
C      1  0.4946900000000  0.4490280000000  0.4186320000000 1.0
C      1  0.5566390000000  0.5041850000000  0.4355990000000 1.0
C      1  0.4231230000000  0.4461720000000  0.5021040000000 1.0
C      1  0.5665890000000  0.5459950000000  0.5542960000000 1.0
END
