TITL C-2848509-3138-83 -0.00123032035273288 125000 -980.532803604933 0 0 178 (C1) n - 1
REM
REM in /home/bkarasulu/work/CARBON/AIRSS/Generating-Clusters/AIREBO/with-SteepDescent/Only-C1/SD-CG-opt/Try1-1.4A-POS3A/HFTN-CG
REM
REM
REM
REM
REM
REM ./C.cell (11c1c37f851c82e70ff6c80c92926a4b)
REM
REM compiler GCC version 9.2.1 20190827 (Red Hat 9.2.1-1)
REM options -cpp -mtune=generic -march=x86-64 -g -O0 -fpre-include=/usr/include/finclude/math-vector-fortran.h
REM seed -1399302422 -153717516 -1420149051 -1156887506 144457863 -714552767 27049849 -771050657 -138794259 -1533869901 -1619113695 1242514818 -1736901490 -1891007773 -1510879646 1320814629 611581810 827372941 516261900 -1162426026 -207050384 -1974911091 1739753456 1938473922 -956661217 1366852767 -539012204 768164555 -158340918 -1668383564 -1054569254 -1006756991 -673846645
REM
CELL 1.54180   50.00000   50.00000   50.00000   90.00000   90.00000   90.00000
LATT -1
SFAC C  
C      1  0.5784140000000  0.5473250000000  0.4487720000000 1.0
C      1  0.5357990000000  0.4418910000000  0.4624980000000 1.0
C      1  0.4500840000000  0.4535260000000  0.5415010000000 1.0
C      1  0.5532100000000  0.5801800000000  0.5264710000000 1.0
C      1  0.6117800000000  0.4574810000000  0.4862110000000 1.0
C      1  0.5496770000000  0.4745790000000  0.3903690000000 1.0
C      1  0.4650030000000  0.5135230000000  0.6158540000000 1.0
C      1  0.5933580000000  0.4507940000000  0.4650190000000 1.0
C      1  0.4830000000000  0.4136600000000  0.4508260000000 1.0
C      1  0.4609010000000  0.5233320000000  0.4860480000000 1.0
C      1  0.4649830000000  0.5308710000000  0.4255520000000 1.0
C      1  0.4884150000000  0.5947300000000  0.4761730000000 1.0
C      1  0.4294370000000  0.5815000000000  0.4522410000000 1.0
C      1  0.5487950000000  0.5456860000000  0.4053280000000 1.0
C      1  0.4766650000000  0.5505320000000  0.4456440000000 1.0
C      1  0.4209390000000  0.4673150000000  0.5364000000000 1.0
C      1  0.5344660000000  0.5667090000000  0.5015000000000 1.0
C      1  0.5104540000000  0.5054020000000  0.4553580000000 1.0
C      1  0.4538800000000  0.4123710000000  0.4627130000000 1.0
C      1  0.5410600000000  0.5967310000000  0.5699190000000 1.0
C      1  0.5985320000000  0.4639210000000  0.5093230000000 1.0
C      1  0.4739780000000  0.5721910000000  0.4971440000000 1.0
C      1  0.5284090000000  0.4888410000000  0.3803690000000 1.0
C      1  0.5260090000000  0.3923370000000  0.4802940000000 1.0
C      1  0.5663040000000  0.5305960000000  0.4744760000000 1.0
C      1  0.5016180000000  0.4937820000000  0.3949210000000 1.0
C      1  0.3900770000000  0.5089990000000  0.4550980000000 1.0
C      1  0.4167360000000  0.5070980000000  0.4381190000000 1.0
C      1  0.5188830000000  0.4881930000000  0.5501630000000 1.0
C      1  0.4839510000000  0.5571800000000  0.4025300000000 1.0
C      1  0.4667480000000  0.4616520000000  0.5026580000000 1.0
C      1  0.5630930000000  0.4476830000000  0.5374980000000 1.0
C      1  0.5180800000000  0.5426600000000  0.4196230000000 1.0
C      1  0.5710640000000  0.4963210000000  0.5769340000000 1.0
C      1  0.4889060000000  0.3738910000000  0.5104570000000 1.0
C      1  0.4252730000000  0.4829770000000  0.5082050000000 1.0
C      1  0.5010130000000  0.3845160000000  0.4838920000000 1.0
C      1  0.5102920000000  0.5104460000000  0.5068750000000 1.0
C      1  0.5415840000000  0.4084180000000  0.5503860000000 1.0
C      1  0.5980810000000  0.5169180000000  0.5225770000000 1.0
C      1  0.4294090000000  0.4543120000000  0.4332730000000 1.0
C      1  0.5175020000000  0.4509940000000  0.6116770000000 1.0
C      1  0.5661040000000  0.4483760000000  0.5684720000000 1.0
C      1  0.4770040000000  0.5120810000000  0.5138310000000 1.0
C      1  0.4520780000000  0.5618430000000  0.5210350000000 1.0
C      1  0.5193460000000  0.4709630000000  0.5771920000000 1.0
C      1  0.5372630000000  0.5653870000000  0.5730360000000 1.0
C      1  0.5819090000000  0.5376210000000  0.5419410000000 1.0
C      1  0.5149710000000  0.5243400000000  0.5815030000000 1.0
C      1  0.4392920000000  0.4321260000000  0.4779200000000 1.0
C      1  0.4546190000000  0.4884340000000  0.5039960000000 1.0
C      1  0.5330160000000  0.4300110000000  0.5179520000000 1.0
C      1  0.5528000000000  0.4616240000000  0.4405980000000 1.0
C      1  0.5028270000000  0.4212010000000  0.4317700000000 1.0
C      1  0.4920490000000  0.5061170000000  0.5972730000000 1.0
C      1  0.5703380000000  0.4211560000000  0.4940310000000 1.0
C      1  0.5360930000000  0.4887540000000  0.5116550000000 1.0
C      1  0.5626300000000  0.4155540000000  0.5263390000000 1.0
C      1  0.4922370000000  0.5246630000000  0.4061190000000 1.0
C      1  0.4883120000000  0.4940060000000  0.5403330000000 1.0
C      1  0.4859360000000  0.4858690000000  0.4675600000000 1.0
C      1  0.5635060000000  0.5494670000000  0.5772910000000 1.0
C      1  0.4960420000000  0.3884880000000  0.5340710000000 1.0
C      1  0.5011540000000  0.6106920000000  0.5034640000000 1.0
C      1  0.5392200000000  0.4191240000000  0.4863450000000 1.0
C      1  0.5578320000000  0.5282030000000  0.5241380000000 1.0
C      1  0.4685410000000  0.4610700000000  0.5994390000000 1.0
C      1  0.3978190000000  0.5034240000000  0.4876780000000 1.0
C      1  0.5515550000000  0.5568630000000  0.3805530000000 1.0
C      1  0.5724270000000  0.5913290000000  0.4726670000000 1.0
C      1  0.4269060000000  0.4690820000000  0.5698280000000 1.0
C      1  0.5801420000000  0.4252620000000  0.4652140000000 1.0
C      1  0.5030720000000  0.5806900000000  0.5410800000000 1.0
C      1  0.4174180000000  0.4209060000000  0.5165640000000 1.0
C      1  0.4076040000000  0.5509210000000  0.5039610000000 1.0
C      1  0.5288450000000  0.5636290000000  0.5409050000000 1.0
C      1  0.4487550000000  0.4943040000000  0.6267880000000 1.0
C      1  0.4419080000000  0.4437460000000  0.4047970000000 1.0
C      1  0.4931380000000  0.4646220000000  0.5239010000000 1.0
C      1  0.4254150000000  0.5435980000000  0.4643300000000 1.0
C      1  0.5540750000000  0.5431050000000  0.4979070000000 1.0
C      1  0.4331690000000  0.5341850000000  0.4345650000000 1.0
C      1  0.5199070000000  0.4701330000000  0.4392440000000 1.0
C      1  0.4270740000000  0.5207350000000  0.4865720000000 1.0
C      1  0.5217970000000  0.5987120000000  0.4812550000000 1.0
C      1  0.5294330000000  0.4383110000000  0.5566800000000 1.0
C      1  0.4974780000000  0.4280280000000  0.5778340000000 1.0
C      1  0.4570320000000  0.5762970000000  0.4527280000000 1.0
C      1  0.4723230000000  0.4261830000000  0.5603830000000 1.0
C      1  0.4517250000000  0.4858140000000  0.5537020000000 1.0
C      1  0.4335280000000  0.4879980000000  0.4573560000000 1.0
C      1  0.4544560000000  0.5796660000000  0.5498930000000 1.0
C      1  0.4879730000000  0.4636830000000  0.3984670000000 1.0
C      1  0.4142880000000  0.4753200000000  0.4779300000000 1.0
C      1  0.5188940000000  0.4533650000000  0.4892700000000 1.0
C      1  0.5851950000000  0.5029090000000  0.4687160000000 1.0
C      1  0.4142820000000  0.5518850000000  0.5560680000000 1.0
C      1  0.5009330000000  0.4529680000000  0.5549730000000 1.0
C      1  0.4899450000000  0.5624310000000  0.5814560000000 1.0
C      1  0.5302930000000  0.4189650000000  0.4393840000000 1.0
C      1  0.4987280000000  0.4910640000000  0.4267330000000 1.0
C      1  0.4518020000000  0.5973110000000  0.5030610000000 1.0
C      1  0.5718630000000  0.4732890000000  0.4647910000000 1.0
C      1  0.4602080000000  0.4648690000000  0.3963300000000 1.0
C      1  0.5512640000000  0.5927210000000  0.4891660000000 1.0
C      1  0.4505340000000  0.4877040000000  0.4092370000000 1.0
C      1  0.4963870000000  0.4736520000000  0.5996140000000 1.0
C      1  0.5490450000000  0.4229270000000  0.5802180000000 1.0
C      1  0.5012550000000  0.4800110000000  0.4946780000000 1.0
C      1  0.5623110000000  0.5053150000000  0.4226680000000 1.0
C      1  0.5811570000000  0.5678020000000  0.5334500000000 1.0
C      1  0.4635130000000  0.5513200000000  0.4750260000000 1.0
C      1  0.5476700000000  0.6042180000000  0.5464410000000 1.0
C      1  0.4160630000000  0.4987910000000  0.5574320000000 1.0
C      1  0.5249200000000  0.5757760000000  0.4159780000000 1.0
C      1  0.4860090000000  0.5893450000000  0.4439090000000 1.0
C      1  0.6291790000000  0.5337640000000  0.4515150000000 1.0
C      1  0.4869800000000  0.5427420000000  0.5218080000000 1.0
C      1  0.3916910000000  0.4814270000000  0.5133280000000 1.0
C      1  0.3861540000000  0.5318060000000  0.5010870000000 1.0
C      1  0.4578110000000  0.5655510000000  0.5806440000000 1.0
C      1  0.5501100000000  0.4668410000000  0.4901360000000 1.0
C      1  0.5711160000000  0.4497820000000  0.5077080000000 1.0
C      1  0.5333640000000  0.4837450000000  0.4673440000000 1.0
C      1  0.4743750000000  0.5067220000000  0.5681410000000 1.0
C      1  0.4434410000000  0.4418810000000  0.5102470000000 1.0
C      1  0.4502150000000  0.5132810000000  0.5347640000000 1.0
C      1  0.5199870000000  0.4295830000000  0.5945370000000 1.0
C      1  0.4633150000000  0.6022580000000  0.5295730000000 1.0
C      1  0.4958870000000  0.5759000000000  0.4180400000000 1.0
C      1  0.5444380000000  0.5821110000000  0.4370970000000 1.0
C      1  0.4801620000000  0.4156680000000  0.5316510000000 1.0
C      1  0.5180820000000  0.5787960000000  0.4551880000000 1.0
C      1  0.4959820000000  0.4434390000000  0.4158640000000 1.0
C      1  0.4198480000000  0.5673850000000  0.5303590000000 1.0
C      1  0.4305580000000  0.5273590000000  0.5586740000000 1.0
C      1  0.6048030000000  0.5236870000000  0.4966300000000 1.0
C      1  0.5509540000000  0.4737850000000  0.5795770000000 1.0
C      1  0.4361980000000  0.5345150000000  0.5152700000000 1.0
C      1  0.4527690000000  0.4676990000000  0.6205720000000 1.0
C      1  0.5610230000000  0.4159480000000  0.4457930000000 1.0
C      1  0.5000300000000  0.4340340000000  0.5107260000000 1.0
C      1  0.4046120000000  0.4496710000000  0.5152220000000 1.0
C      1  0.5248480000000  0.5319090000000  0.5290490000000 1.0
C      1  0.4610450000000  0.5348440000000  0.5663930000000 1.0
C      1  0.3917400000000  0.4955950000000  0.5418640000000 1.0
C      1  0.4214950000000  0.4487810000000  0.4635260000000 1.0
C      1  0.5110840000000  0.5105800000000  0.6229080000000 1.0
C      1  0.5142770000000  0.5519130000000  0.5865690000000 1.0
C      1  0.4147190000000  0.5715190000000  0.4785490000000 1.0
C      1  0.5615070000000  0.5206430000000  0.5632350000000 1.0
C      1  0.4251590000000  0.5867770000000  0.5040600000000 1.0
C      1  0.4609850000000  0.5024300000000  0.4628190000000 1.0
C      1  0.5893720000000  0.4855850000000  0.5301580000000 1.0
C      1  0.4237130000000  0.4838210000000  0.4189980000000 1.0
C      1  0.6043150000000  0.5305090000000  0.4633240000000 1.0
C      1  0.5689050000000  0.5765550000000  0.4489120000000 1.0
C      1  0.5044090000000  0.5570720000000  0.4989790000000 1.0
C      1  0.4865430000000  0.4265870000000  0.4804140000000 1.0
C      1  0.4557030000000  0.4515210000000  0.5742690000000 1.0
C      1  0.4503510000000  0.4095010000000  0.5163850000000 1.0
C      1  0.4726770000000  0.3995210000000  0.4956290000000 1.0
C      1  0.5498380000000  0.5084810000000  0.4603510000000 1.0
C      1  0.5852070000000  0.4749980000000  0.5592230000000 1.0
C      1  0.4760730000000  0.4554330000000  0.4742440000000 1.0
C      1  0.5597130000000  0.4791290000000  0.4160930000000 1.0
C      1  0.5079800000000  0.5298060000000  0.4789210000000 1.0
C      1  0.4693840000000  0.5000260000000  0.4300360000000 1.0
C      1  0.5195330000000  0.3873320000000  0.5472340000000 1.0
C      1  0.5312940000000  0.5159750000000  0.5566160000000 1.0
C      1  0.4803830000000  0.5576870000000  0.5489140000000 1.0
C      1  0.5687540000000  0.5341920000000  0.4218520000000 1.0
C      1  0.4561900000000  0.4643850000000  0.4516500000000 1.0
C      1  0.5341890000000  0.5190680000000  0.4348970000000 1.0
C      1  0.4915580000000  0.6028560000000  0.5281610000000 1.0
C      1  0.5327880000000  0.4624070000000  0.5328940000000 1.0
C      1  0.5064460000000  0.5491330000000  0.4509210000000 1.0
C      1  0.5622240000000  0.4996310000000  0.5208810000000 1.0
END
