TITL C-2847958-8115-634 -0.00533152219649278 125000 -499.854464643535 0 0 93 (C1) n - 1
REM
REM in /home/bkarasulu/work/CARBON/AIRSS/Generating-Clusters/AIREBO/with-SteepDescent/Only-C1/SD-CG-opt/Try1-1.4A-POS3A/HFTN-CG
REM
REM
REM
REM
REM
REM ./C.cell (11c1c37f851c82e70ff6c80c92926a4b)
REM
REM compiler GCC version 9.2.1 20190827 (Red Hat 9.2.1-1)
REM options -cpp -mtune=generic -march=x86-64 -g -O0 -fpre-include=/usr/include/finclude/math-vector-fortran.h
REM seed 1178385138 -1604858599 -1045484246 -1192072001 293915982 -130894384 1041672030 844575262 659441019 1741773860 945683470 1959408210 -348901329 -282384019 1157755710 -1592355127 -1206272610 708692224 -342263083 777127591 -1024510570 7247509 -915592220 1876752 1853548105 996701241 -263730584 1766992007 -57471551 1657721617 1108593151 -355396019 2013250178
REM
CELL 1.54180   50.00000   50.00000   50.00000   90.00000   90.00000   90.00000
LATT -1
SFAC C  
C      1  0.5434690000000  0.4976800000000  0.4883170000000 1.0
C      1  0.4960470000000  0.4550460000000  0.5777160000000 1.0
C      1  0.5089120000000  0.4304360000000  0.5156850000000 1.0
C      1  0.5311170000000  0.5108760000000  0.5298520000000 1.0
C      1  0.4993450000000  0.5794770000000  0.4733290000000 1.0
C      1  0.4501580000000  0.4646930000000  0.5256670000000 1.0
C      1  0.4801430000000  0.4797490000000  0.5237380000000 1.0
C      1  0.5312210000000  0.4819590000000  0.4212800000000 1.0
C      1  0.4876490000000  0.5938060000000  0.4984590000000 1.0
C      1  0.5277980000000  0.4358360000000  0.5420010000000 1.0
C      1  0.5175570000000  0.5457840000000  0.5029860000000 1.0
C      1  0.4852970000000  0.5536770000000  0.4237210000000 1.0
C      1  0.5642000000000  0.5417160000000  0.4822910000000 1.0
C      1  0.4808430000000  0.5627160000000  0.5795880000000 1.0
C      1  0.4287010000000  0.4566160000000  0.5024540000000 1.0
C      1  0.4478390000000  0.4858450000000  0.5594220000000 1.0
C      1  0.5499090000000  0.4933580000000  0.5779670000000 1.0
C      1  0.5584670000000  0.4763170000000  0.4662780000000 1.0
C      1  0.5772060000000  0.4927590000000  0.5086580000000 1.0
C      1  0.4454710000000  0.4978050000000  0.5319150000000 1.0
C      1  0.5166770000000  0.4685300000000  0.4847490000000 1.0
C      1  0.4721590000000  0.4962250000000  0.4961280000000 1.0
C      1  0.5560070000000  0.4484170000000  0.4810040000000 1.0
C      1  0.4586130000000  0.4172610000000  0.4835780000000 1.0
C      1  0.4624600000000  0.5228470000000  0.5280770000000 1.0
C      1  0.4729980000000  0.4752810000000  0.5644250000000 1.0
C      1  0.5030850000000  0.4568030000000  0.4348900000000 1.0
C      1  0.4921350000000  0.5757040000000  0.4416530000000 1.0
C      1  0.4922610000000  0.5246630000000  0.5443720000000 1.0
C      1  0.4558080000000  0.4678050000000  0.4283810000000 1.0
C      1  0.5053370000000  0.5319730000000  0.4743980000000 1.0
C      1  0.5543330000000  0.5436720000000  0.4312080000000 1.0
C      1  0.4594660000000  0.5541970000000  0.4499520000000 1.0
C      1  0.5242270000000  0.4480990000000  0.5695550000000 1.0
C      1  0.5129700000000  0.4321280000000  0.4415930000000 1.0
C      1  0.5469130000000  0.4632810000000  0.5787780000000 1.0
C      1  0.5473850000000  0.4777440000000  0.5151690000000 1.0
C      1  0.5075480000000  0.5580880000000  0.5612500000000 1.0
C      1  0.5036920000000  0.5106200000000  0.5155820000000 1.0
C      1  0.4215510000000  0.4877050000000  0.5099640000000 1.0
C      1  0.5132960000000  0.4779830000000  0.5163080000000 1.0
C      1  0.4943350000000  0.4856050000000  0.5925660000000 1.0
C      1  0.4436620000000  0.5481500000000  0.5309790000000 1.0
C      1  0.5123460000000  0.5022550000000  0.4851350000000 1.0
C      1  0.4817460000000  0.5119200000000  0.4602910000000 1.0
C      1  0.4971140000000  0.5127400000000  0.5890420000000 1.0
C      1  0.5342270000000  0.5354890000000  0.4568090000000 1.0
C      1  0.4909000000000  0.4219400000000  0.4888640000000 1.0
C      1  0.5175030000000  0.5285100000000  0.5675130000000 1.0
C      1  0.4530720000000  0.4462820000000  0.4487390000000 1.0
C      1  0.4378810000000  0.4838750000000  0.4469720000000 1.0
C      1  0.4366350000000  0.5373230000000  0.5012490000000 1.0
C      1  0.4720270000000  0.5302520000000  0.4962970000000 1.0
C      1  0.4979530000000  0.4916480000000  0.5502340000000 1.0
C      1  0.4852130000000  0.4738860000000  0.4782830000000 1.0
C      1  0.5311270000000  0.5735440000000  0.5443870000000 1.0
C      1  0.4821550000000  0.4720180000000  0.4181310000000 1.0
C      1  0.4510990000000  0.5052250000000  0.4634700000000 1.0
C      1  0.5055660000000  0.4904650000000  0.4097570000000 1.0
C      1  0.5268950000000  0.4388430000000  0.4890050000000 1.0
C      1  0.4784180000000  0.5339080000000  0.5740250000000 1.0
C      1  0.5261750000000  0.5675840000000  0.4813880000000 1.0
C      1  0.4793580000000  0.5538600000000  0.4729510000000 1.0
C      1  0.5632000000000  0.5179880000000  0.4601960000000 1.0
C      1  0.5570560000000  0.4718320000000  0.4343100000000 1.0
C      1  0.5527450000000  0.5658110000000  0.4770670000000 1.0
C      1  0.4671280000000  0.5269920000000  0.4339930000000 1.0
C      1  0.5817710000000  0.4964420000000  0.4789100000000 1.0
C      1  0.5611450000000  0.5315770000000  0.5456700000000 1.0
C      1  0.5495500000000  0.4597470000000  0.5409590000000 1.0
C      1  0.5006660000000  0.4852030000000  0.4510430000000 1.0
C      1  0.3923590000000  0.4943010000000  0.5129440000000 1.0
C      1  0.4725900000000  0.4470160000000  0.4748840000000 1.0
C      1  0.5317060000000  0.4870760000000  0.5506000000000 1.0
C      1  0.5527750000000  0.5243010000000  0.5073310000000 1.0
C      1  0.4532730000000  0.4441380000000  0.5490710000000 1.0
C      1  0.4776110000000  0.4360520000000  0.5583240000000 1.0
C      1  0.4339170000000  0.4373350000000  0.4756970000000 1.0
C      1  0.5769510000000  0.4519980000000  0.5486730000000 1.0
C      1  0.4996920000000  0.5541580000000  0.5291290000000 1.0
C      1  0.5803570000000  0.5162560000000  0.5273530000000 1.0
C      1  0.5462690000000  0.5206280000000  0.5666920000000 1.0
C      1  0.4854770000000  0.5807130000000  0.5198990000000 1.0
C      1  0.4963410000000  0.5219840000000  0.4181360000000 1.0
C      1  0.4919440000000  0.4190910000000  0.5421940000000 1.0
C      1  0.4232620000000  0.5544900000000  0.4806930000000 1.0
C      1  0.4330800000000  0.5622190000000  0.4585410000000 1.0
C      1  0.5162120000000  0.5130490000000  0.4407740000000 1.0
C      1  0.4328100000000  0.4710480000000  0.4725480000000 1.0
C      1  0.5418440000000  0.5502600000000  0.5263880000000 1.0
C      1  0.5484070000000  0.5099450000000  0.4302880000000 1.0
C      1  0.5141210000000  0.4207210000000  0.4658160000000 1.0
C      1  0.4400630000000  0.5071270000000  0.4934510000000 1.0
END
