TITL C-2848499-1157-394 0.00071479799360932 125000 -885.276127096737 0 0 169 (C1) n - 1
REM
REM in /home/bkarasulu/work/CARBON/AIRSS/Generating-Clusters/AIREBO/with-SteepDescent/Only-C1/SD-CG-opt/Try1-1.4A-POS3A/HFTN-CG
REM
REM
REM
REM
REM
REM ./C.cell (11c1c37f851c82e70ff6c80c92926a4b)
REM
REM compiler GCC version 9.2.1 20190827 (Red Hat 9.2.1-1)
REM options -cpp -mtune=generic -march=x86-64 -g -O0 -fpre-include=/usr/include/finclude/math-vector-fortran.h
REM seed 1730719679 -1682785525 1572858003 2083754000 -1757889459 433660644 1476909522 -131070765 1615349809 1428640865 -1009059069 609780821 -614291811 -716527202 -2146988172 -1721298032 1881920520 2101887255 1152380804 1435275344 1370423686 329766635 -2041016628 -418318455 -1271819842 -1040343957 1766101095 -474072248 1255130115 1122970938 -968601018 922881481 608758752
REM
CELL 1.54180   50.00000   50.00000   50.00000   90.00000   90.00000   90.00000
LATT -1
SFAC C  
C      1  0.5410510000000  0.5524530000000  0.5321830000000 1.0
C      1  0.4913830000000  0.4070150000000  0.4910520000000 1.0
C      1  0.5315550000000  0.5096030000000  0.5564920000000 1.0
C      1  0.5010760000000  0.5724030000000  0.4304870000000 1.0
C      1  0.5046150000000  0.5861330000000  0.5557630000000 1.0
C      1  0.5294710000000  0.4633770000000  0.4787750000000 1.0
C      1  0.5355200000000  0.4341960000000  0.5500290000000 1.0
C      1  0.4510180000000  0.4751020000000  0.5271200000000 1.0
C      1  0.4724080000000  0.5613850000000  0.5839020000000 1.0
C      1  0.4579270000000  0.5749290000000  0.5626470000000 1.0
C      1  0.5934500000000  0.4576080000000  0.5266140000000 1.0
C      1  0.5199490000000  0.4117680000000  0.5090790000000 1.0
C      1  0.4155200000000  0.4431990000000  0.4573210000000 1.0
C      1  0.4947030000000  0.5467340000000  0.5309870000000 1.0
C      1  0.5198360000000  0.4898910000000  0.4633420000000 1.0
C      1  0.4499720000000  0.5040120000000  0.5113430000000 1.0
C      1  0.5155100000000  0.5728070000000  0.5270150000000 1.0
C      1  0.4849270000000  0.4665360000000  0.4005110000000 1.0
C      1  0.4899010000000  0.5158330000000  0.4880150000000 1.0
C      1  0.4778760000000  0.5222480000000  0.3949040000000 1.0
C      1  0.5851660000000  0.5490850000000  0.5582780000000 1.0
C      1  0.5374870000000  0.4961320000000  0.4384570000000 1.0
C      1  0.4329270000000  0.5604890000000  0.5072420000000 1.0
C      1  0.4733410000000  0.4638490000000  0.4419800000000 1.0
C      1  0.4000140000000  0.4550820000000  0.4785260000000 1.0
C      1  0.5197410000000  0.5258830000000  0.5329690000000 1.0
C      1  0.4130680000000  0.4830590000000  0.4278980000000 1.0
C      1  0.4746930000000  0.6067230000000  0.5213130000000 1.0
C      1  0.4649800000000  0.5308610000000  0.4818320000000 1.0
C      1  0.5206480000000  0.4128280000000  0.4751010000000 1.0
C      1  0.4599430000000  0.4428350000000  0.5271420000000 1.0
C      1  0.6071200000000  0.5054020000000  0.4681180000000 1.0
C      1  0.4562080000000  0.4246860000000  0.4241820000000 1.0
C      1  0.4591510000000  0.5484690000000  0.4193900000000 1.0
C      1  0.6006180000000  0.4863630000000  0.4957900000000 1.0
C      1  0.5055030000000  0.4054310000000  0.5544140000000 1.0
C      1  0.4752880000000  0.5930710000000  0.5482450000000 1.0
C      1  0.5095230000000  0.4656920000000  0.5920890000000 1.0
C      1  0.5246030000000  0.5110740000000  0.5993670000000 1.0
C      1  0.4430970000000  0.5216190000000  0.5542330000000 1.0
C      1  0.4251000000000  0.4846810000000  0.4872760000000 1.0
C      1  0.5161810000000  0.5588620000000  0.4976170000000 1.0
C      1  0.4847200000000  0.4736510000000  0.5216460000000 1.0
C      1  0.4344350000000  0.4665080000000  0.4485280000000 1.0
C      1  0.4193080000000  0.4801170000000  0.5201860000000 1.0
C      1  0.4709160000000  0.5135950000000  0.5363750000000 1.0
C      1  0.4992010000000  0.6085160000000  0.4999450000000 1.0
C      1  0.5948590000000  0.5627250000000  0.4889810000000 1.0
C      1  0.4370540000000  0.5238430000000  0.5847440000000 1.0
C      1  0.4249880000000  0.4188160000000  0.4501000000000 1.0
C      1  0.5564010000000  0.5141460000000  0.5873520000000 1.0
C      1  0.5594540000000  0.4566790000000  0.5264120000000 1.0
C      1  0.4869460000000  0.4354400000000  0.4729280000000 1.0
C      1  0.4018500000000  0.5245340000000  0.5491830000000 1.0
C      1  0.4560550000000  0.4082500000000  0.4539490000000 1.0
C      1  0.5491310000000  0.5720410000000  0.4692110000000 1.0
C      1  0.5626080000000  0.5094730000000  0.5291330000000 1.0
C      1  0.4858840000000  0.4721630000000  0.4876960000000 1.0
C      1  0.5256940000000  0.4566450000000  0.5264350000000 1.0
C      1  0.5211840000000  0.4829440000000  0.5053560000000 1.0
C      1  0.4583330000000  0.4501990000000  0.5923260000000 1.0
C      1  0.4581590000000  0.4878960000000  0.6049960000000 1.0
C      1  0.5509770000000  0.4123460000000  0.4846270000000 1.0
C      1  0.5545010000000  0.5886210000000  0.4940210000000 1.0
C      1  0.5567740000000  0.5651650000000  0.4389090000000 1.0
C      1  0.4637990000000  0.4913770000000  0.3987760000000 1.0
C      1  0.4467360000000  0.5847290000000  0.4469360000000 1.0
C      1  0.4889850000000  0.5112330000000  0.4316370000000 1.0
C      1  0.5835600000000  0.4438520000000  0.4749650000000 1.0
C      1  0.4348980000000  0.5393020000000  0.4399690000000 1.0
C      1  0.4863860000000  0.4036410000000  0.4390950000000 1.0
C      1  0.4985160000000  0.5045840000000  0.5186130000000 1.0
C      1  0.4498590000000  0.4717180000000  0.4186780000000 1.0
C      1  0.5232320000000  0.5343950000000  0.4538650000000 1.0
C      1  0.5113520000000  0.5596600000000  0.4667550000000 1.0
C      1  0.4572040000000  0.5410550000000  0.5986170000000 1.0
C      1  0.5423240000000  0.4277310000000  0.4410820000000 1.0
C      1  0.4142350000000  0.4507550000000  0.5053660000000 1.0
C      1  0.4952050000000  0.5157440000000  0.5897570000000 1.0
C      1  0.4557260000000  0.4798310000000  0.4879290000000 1.0
C      1  0.3966600000000  0.5097260000000  0.4993540000000 1.0
C      1  0.6059890000000  0.5219800000000  0.5178250000000 1.0
C      1  0.4591580000000  0.4095160000000  0.4851340000000 1.0
C      1  0.5220290000000  0.5269870000000  0.4870320000000 1.0
C      1  0.5143830000000  0.5005140000000  0.4161670000000 1.0
C      1  0.5891560000000  0.5433000000000  0.5266290000000 1.0
C      1  0.4733220000000  0.4869610000000  0.5573840000000 1.0
C      1  0.5502770000000  0.4270220000000  0.5123750000000 1.0
C      1  0.4808970000000  0.4786570000000  0.5855700000000 1.0
C      1  0.5010970000000  0.4593630000000  0.5464850000000 1.0
C      1  0.4361250000000  0.4424120000000  0.4156730000000 1.0
C      1  0.4337220000000  0.4725490000000  0.5869620000000 1.0
C      1  0.4635890000000  0.4544080000000  0.5589220000000 1.0
C      1  0.5149000000000  0.6134740000000  0.4698650000000 1.0
C      1  0.3950450000000  0.4883150000000  0.4730990000000 1.0
C      1  0.4200260000000  0.5113820000000  0.4670560000000 1.0
C      1  0.5989080000000  0.5383230000000  0.4655720000000 1.0
C      1  0.4835010000000  0.4406020000000  0.4208410000000 1.0
C      1  0.5091300000000  0.4232650000000  0.4311100000000 1.0
C      1  0.5669840000000  0.4230540000000  0.4640780000000 1.0
C      1  0.4571720000000  0.4514710000000  0.4692130000000 1.0
C      1  0.5617740000000  0.4683890000000  0.4694150000000 1.0
C      1  0.4865490000000  0.4434960000000  0.5059700000000 1.0
C      1  0.5226170000000  0.5860120000000  0.4531350000000 1.0
C      1  0.4227360000000  0.5027950000000  0.5947460000000 1.0
C      1  0.5240980000000  0.3987350000000  0.5356250000000 1.0
C      1  0.4417120000000  0.5550410000000  0.5480730000000 1.0
C      1  0.5731890000000  0.5004040000000  0.4706140000000 1.0
C      1  0.4890920000000  0.4400800000000  0.5860740000000 1.0
C      1  0.5332830000000  0.4595900000000  0.3997560000000 1.0
C      1  0.5273640000000  0.6071130000000  0.5435810000000 1.0
C      1  0.5542700000000  0.5248110000000  0.4457380000000 1.0
C      1  0.5688500000000  0.4754120000000  0.5011060000000 1.0
C      1  0.4672780000000  0.4956590000000  0.4454180000000 1.0
C      1  0.5586880000000  0.4710140000000  0.4104670000000 1.0
C      1  0.5602230000000  0.4569230000000  0.4387130000000 1.0
C      1  0.5225550000000  0.4826330000000  0.6114540000000 1.0
C      1  0.4324020000000  0.5403940000000  0.4798120000000 1.0
C      1  0.5106220000000  0.4771530000000  0.3993220000000 1.0
C      1  0.5776260000000  0.5765940000000  0.5063080000000 1.0
C      1  0.4291780000000  0.5655800000000  0.4568810000000 1.0
C      1  0.5248570000000  0.5326440000000  0.4199410000000 1.0
C      1  0.4739670000000  0.5878210000000  0.4441320000000 1.0
C      1  0.5294400000000  0.4638070000000  0.5655930000000 1.0
C      1  0.5181030000000  0.4248110000000  0.5777470000000 1.0
C      1  0.5582100000000  0.5398510000000  0.4759930000000 1.0
C      1  0.4230820000000  0.4653210000000  0.5571170000000 1.0
C      1  0.5003240000000  0.5634070000000  0.5762570000000 1.0
C      1  0.4866820000000  0.5963620000000  0.4714940000000 1.0
C      1  0.5583860000000  0.4646680000000  0.5834150000000 1.0
C      1  0.4870470000000  0.4310780000000  0.5540880000000 1.0
C      1  0.4232000000000  0.5215990000000  0.5066090000000 1.0
C      1  0.4913680000000  0.4937090000000  0.4674530000000 1.0
C      1  0.4403160000000  0.4004100000000  0.5119330000000 1.0
C      1  0.5272870000000  0.4639620000000  0.4340930000000 1.0
C      1  0.5401950000000  0.5412680000000  0.5982640000000 1.0
C      1  0.5300160000000  0.5989750000000  0.5108010000000 1.0
C      1  0.5732210000000  0.4874800000000  0.5825940000000 1.0
C      1  0.5733870000000  0.5199710000000  0.5596300000000 1.0
C      1  0.4560450000000  0.5837930000000  0.5144430000000 1.0
C      1  0.5839840000000  0.5245140000000  0.4920280000000 1.0
C      1  0.5561130000000  0.5211570000000  0.4119800000000 1.0
C      1  0.4199600000000  0.4971850000000  0.5485130000000 1.0
C      1  0.6009640000000  0.4524820000000  0.4951780000000 1.0
C      1  0.5689380000000  0.5668280000000  0.5356130000000 1.0
C      1  0.5926090000000  0.4925180000000  0.5282640000000 1.0
C      1  0.4381130000000  0.4181090000000  0.5331240000000 1.0
C      1  0.5426980000000  0.5001030000000  0.4845240000000 1.0
C      1  0.5655360000000  0.4973330000000  0.4035050000000 1.0
C      1  0.4919560000000  0.5415680000000  0.4191990000000 1.0
C      1  0.5489350000000  0.4829330000000  0.5453270000000 1.0
C      1  0.4442390000000  0.4375780000000  0.4974320000000 1.0
C      1  0.5486460000000  0.5319010000000  0.5076480000000 1.0
C      1  0.4710420000000  0.5149440000000  0.6038400000000 1.0
C      1  0.4824260000000  0.5655600000000  0.4761870000000 1.0
C      1  0.5514090000000  0.4045120000000  0.5452340000000 1.0
C      1  0.5168090000000  0.4423450000000  0.4581870000000 1.0
C      1  0.4215560000000  0.4444770000000  0.5381080000000 1.0
C      1  0.4764990000000  0.5607010000000  0.5058460000000 1.0
C      1  0.4464410000000  0.5192500000000  0.4075100000000 1.0
C      1  0.5951770000000  0.4939880000000  0.5621350000000 1.0
C      1  0.5808810000000  0.5454900000000  0.4411880000000 1.0
C      1  0.4357980000000  0.5057520000000  0.4374670000000 1.0
C      1  0.4173970000000  0.5410470000000  0.5307740000000 1.0
C      1  0.4649480000000  0.5487230000000  0.4529010000000 1.0
C      1  0.4565440000000  0.5413520000000  0.5225750000000 1.0
C      1  0.4907510000000  0.5283990000000  0.5597190000000 1.0
C      1  0.5335680000000  0.5651600000000  0.4209830000000 1.0
C      1  0.5212300000000  0.5387120000000  0.5707420000000 1.0
END
