TITL C-2847950-6905-25 0.0014545851366713 125000 -325.715571522973 0 0 60 (C1) n - 1
REM
REM in /home/bkarasulu/work/CARBON/AIRSS/Generating-Clusters/AIREBO/with-SteepDescent/Only-C1/SD-CG-opt/Try1-1.4A-POS3A/HFTN-CG
REM
REM
REM
REM
REM
REM ./C.cell (11c1c37f851c82e70ff6c80c92926a4b)
REM
REM compiler GCC version 9.2.1 20190827 (Red Hat 9.2.1-1)
REM options -cpp -mtune=generic -march=x86-64 -g -O0 -fpre-include=/usr/include/finclude/math-vector-fortran.h
REM seed -790137768 -203110359 -559226500 2099339441 760201140 -1896090919 -846914598 620729370 -177112774 -414417654 -1248226027 -2091489734 -233768323 77209426 -1003450368 -1747344353 -983436084 765478233 -1485842348 -399507006 -946008161 -1256164127 -1528707430 1464869752 834670973 1791497237 -758598815 -2023451058 1564711815 934622106 -1943280903 -441145899 1097329553
REM
CELL 1.54180   50.00000   50.00000   50.00000   90.00000   90.00000   90.00000
LATT -1
SFAC C  
C      1  0.4605420000000  0.4332610000000  0.4953070000000 1.0
C      1  0.4863480000000  0.5474800000000  0.5001490000000 1.0
C      1  0.4540750000000  0.5567500000000  0.5410410000000 1.0
C      1  0.5525720000000  0.4935380000000  0.4601510000000 1.0
C      1  0.5613840000000  0.5027960000000  0.5242410000000 1.0
C      1  0.5754830000000  0.4798190000000  0.5187200000000 1.0
C      1  0.4971670000000  0.5033880000000  0.4669060000000 1.0
C      1  0.5244980000000  0.5503240000000  0.5445620000000 1.0
C      1  0.4996070000000  0.5039520000000  0.5770630000000 1.0
C      1  0.5123580000000  0.5293830000000  0.4928240000000 1.0
C      1  0.5116600000000  0.4294060000000  0.5049590000000 1.0
C      1  0.4583030000000  0.4717750000000  0.4635820000000 1.0
C      1  0.5058460000000  0.4810140000000  0.5296600000000 1.0
C      1  0.4927170000000  0.5723860000000  0.4794950000000 1.0
C      1  0.5287030000000  0.5087210000000  0.4562600000000 1.0
C      1  0.5145290000000  0.4851750000000  0.4149650000000 1.0
C      1  0.4382450000000  0.4982830000000  0.5586720000000 1.0
C      1  0.4433050000000  0.5211280000000  0.5036450000000 1.0
C      1  0.5295610000000  0.5213340000000  0.5566330000000 1.0
C      1  0.5194360000000  0.5108110000000  0.4236140000000 1.0
C      1  0.5120790000000  0.5773870000000  0.5063140000000 1.0
C      1  0.5479610000000  0.5452460000000  0.4998320000000 1.0
C      1  0.4578960000000  0.4605220000000  0.5107410000000 1.0
C      1  0.5048350000000  0.4476210000000  0.4792720000000 1.0
C      1  0.4990430000000  0.5328140000000  0.5590830000000 1.0
C      1  0.5391070000000  0.4723350000000  0.5041590000000 1.0
C      1  0.5631140000000  0.5212550000000  0.5025440000000 1.0
C      1  0.4502160000000  0.5262670000000  0.4646110000000 1.0
C      1  0.5713530000000  0.5040290000000  0.4803780000000 1.0
C      1  0.4942600000000  0.4944480000000  0.4995970000000 1.0
C      1  0.4604420000000  0.4604520000000  0.5420890000000 1.0
C      1  0.5318770000000  0.5454990000000  0.4715020000000 1.0
C      1  0.5415290000000  0.4412250000000  0.4938150000000 1.0
C      1  0.5269430000000  0.5027400000000  0.5039730000000 1.0
C      1  0.5471090000000  0.4646810000000  0.4620330000000 1.0
C      1  0.4200290000000  0.5212810000000  0.4789450000000 1.0
C      1  0.4411220000000  0.4947590000000  0.4739130000000 1.0
C      1  0.5226220000000  0.4524490000000  0.5265370000000 1.0
C      1  0.4824390000000  0.4786990000000  0.5517050000000 1.0
C      1  0.4644300000000  0.5570000000000  0.4685820000000 1.0
C      1  0.5132860000000  0.5692190000000  0.4557530000000 1.0
C      1  0.4849760000000  0.4807440000000  0.4506220000000 1.0
C      1  0.4817950000000  0.5299030000000  0.4590910000000 1.0
C      1  0.4737270000000  0.5301930000000  0.5412360000000 1.0
C      1  0.5055640000000  0.4676380000000  0.4360380000000 1.0
C      1  0.4533670000000  0.4402390000000  0.4694000000000 1.0
C      1  0.5272530000000  0.4585250000000  0.5580790000000 1.0
C      1  0.5330940000000  0.4998780000000  0.5372890000000 1.0
C      1  0.4819380000000  0.4180270000000  0.5027580000000 1.0
C      1  0.4554580000000  0.5506110000000  0.5121520000000 1.0
C      1  0.4816800000000  0.4662600000000  0.4876620000000 1.0
C      1  0.5113840000000  0.5361400000000  0.4460160000000 1.0
C      1  0.4396670000000  0.4880080000000  0.5072050000000 1.0
C      1  0.5213780000000  0.4543650000000  0.4568790000000 1.0
C      1  0.4360930000000  0.4793250000000  0.5383130000000 1.0
C      1  0.4686860000000  0.5071470000000  0.5624170000000 1.0
C      1  0.5687730000000  0.4698620000000  0.4877250000000 1.0
C      1  0.4762960000000  0.5170640000000  0.5113820000000 1.0
C      1  0.5308360000000  0.5593550000000  0.5188170000000 1.0
C      1  0.5100010000000  0.4760650000000  0.5690880000000 1.0
END
