TITL C-2848506-1665-514 0.0215121921520147 125000 -240.180155072589 0 0 41 (C1) n - 1
REM
REM in /home/bkarasulu/work/CARBON/AIRSS/Generating-Clusters/AIREBO/with-SteepDescent/Only-C1/SD-CG-opt/Try1-1.4A-POS3A/HFTN-CG
REM
REM
REM
REM
REM
REM ./C.cell (11c1c37f851c82e70ff6c80c92926a4b)
REM
REM compiler GCC version 9.2.1 20190827 (Red Hat 9.2.1-1)
REM options -cpp -mtune=generic -march=x86-64 -g -O0 -fpre-include=/usr/include/finclude/math-vector-fortran.h
REM seed -1772630265 -475593213 -1060348851 -1725677154 -1376320490 1207741845 539456031 1989885588 112912922 1529227007 1635477460 694474848 288559007 943062243 -664589545 -1626026626 1779392250 -145075199 1078974703 -784103910 -246133671 -757773073 937230171 -736798145 -1054536197 -456809852 -785685379 1453124357 800485297 -1320335762 -98787073 -1087122997 1822336614
REM
CELL 1.54180   50.00000   50.00000   50.00000   90.00000   90.00000   90.00000
LATT -1
SFAC C  
C      1  0.4502050000000  0.4584080000000  0.4778110000000 1.0
C      1  0.4092850000000  0.4905540000000  0.5334720000000 1.0
C      1  0.5250420000000  0.5763660000000  0.4439050000000 1.0
C      1  0.4639800000000  0.4332450000000  0.5560610000000 1.0
C      1  0.5335690000000  0.5822270000000  0.4182740000000 1.0
C      1  0.5445660000000  0.5326090000000  0.4438750000000 1.0
C      1  0.5010480000000  0.5538020000000  0.4976380000000 1.0
C      1  0.5322200000000  0.5534890000000  0.4588150000000 1.0
C      1  0.4556020000000  0.4570550000000  0.5666100000000 1.0
C      1  0.4830950000000  0.5162200000000  0.5326900000000 1.0
C      1  0.5655610000000  0.5526430000000  0.5152960000000 1.0
C      1  0.5177860000000  0.4975830000000  0.5717730000000 1.0
C      1  0.4341610000000  0.4813970000000  0.5284570000000 1.0
C      1  0.5072850000000  0.4591670000000  0.4931780000000 1.0
C      1  0.4999000000000  0.4850970000000  0.4570030000000 1.0
C      1  0.5530570000000  0.5396310000000  0.4179150000000 1.0
C      1  0.5364460000000  0.4920180000000  0.5531560000000 1.0
C      1  0.4778090000000  0.4845010000000  0.5985660000000 1.0
C      1  0.5405830000000  0.4957650000000  0.4805060000000 1.0
C      1  0.4601140000000  0.4637180000000  0.5937980000000 1.0
C      1  0.4797580000000  0.4442030000000  0.4810390000000 1.0
C      1  0.4903290000000  0.4962900000000  0.5761190000000 1.0
C      1  0.5447650000000  0.5616770000000  0.4022400000000 1.0
C      1  0.5498440000000  0.5087230000000  0.4573220000000 1.0
C      1  0.4904480000000  0.5340330000000  0.5141650000000 1.0
C      1  0.5186140000000  0.4785300000000  0.4776400000000 1.0
C      1  0.4738030000000  0.4995750000000  0.5529380000000 1.0
C      1  0.5471480000000  0.5629970000000  0.3755130000000 1.0
C      1  0.4715000000000  0.4022080000000  0.5513060000000 1.0
C      1  0.5486710000000  0.4983330000000  0.5301040000000 1.0
C      1  0.5267020000000  0.5494370000000  0.4862610000000 1.0
C      1  0.5062120000000  0.5008430000000  0.4362570000000 1.0
C      1  0.4932220000000  0.4372110000000  0.5107970000000 1.0
C      1  0.4420680000000  0.4729340000000  0.5033010000000 1.0
C      1  0.4298170000000  0.4469540000000  0.4628590000000 1.0
C      1  0.5468430000000  0.5091620000000  0.5046240000000 1.0
C      1  0.5471210000000  0.5375830000000  0.5026390000000 1.0
C      1  0.4845880000000  0.4252250000000  0.5326060000000 1.0
C      1  0.4874490000000  0.5765060000000  0.4922830000000 1.0
C      1  0.4535870000000  0.4800180000000  0.5493500000000 1.0
C      1  0.4761970000000  0.4720640000000  0.4618400000000 1.0
END
