TITL C-2848495-5024-6 6.05152178361264e-05 125000 -688.074269364444 0 0 132 (C1) n - 1
REM
REM in /home/bkarasulu/work/CARBON/AIRSS/Generating-Clusters/AIREBO/with-SteepDescent/Only-C1/SD-CG-opt/Try1-1.4A-POS3A/HFTN-CG
REM
REM
REM
REM
REM
REM ./C.cell (11c1c37f851c82e70ff6c80c92926a4b)
REM
REM compiler GCC version 9.2.1 20190827 (Red Hat 9.2.1-1)
REM options -cpp -mtune=generic -march=x86-64 -g -O0 -fpre-include=/usr/include/finclude/math-vector-fortran.h
REM seed 1890898775 1775971698 -1808220037 1902670037 -199906454 -985987142 291685549 1884169385 804041343 -338768924 -1515313775 -455283206 -1755463831 797083163 -1574944195 1135409404 16104322 1735503484 -1920465153 2071111690 -1169000457 1766659503 528086050 -1480037932 -842944772 -1320104033 -1829017031 827710473 553015714 1422469220 -17394110 -1736444105 -487286336
REM
CELL 1.54180   50.00000   50.00000   50.00000   90.00000   90.00000   90.00000
LATT -1
SFAC C  
C      1  0.5661940000000  0.4746130000000  0.5644640000000 1.0
C      1  0.4568050000000  0.4906830000000  0.5856090000000 1.0
C      1  0.5762190000000  0.4823180000000  0.5868640000000 1.0
C      1  0.5216850000000  0.5239210000000  0.5059640000000 1.0
C      1  0.4942000000000  0.5583240000000  0.5814630000000 1.0
C      1  0.5256770000000  0.5265940000000  0.4164510000000 1.0
C      1  0.5225640000000  0.5590690000000  0.4627590000000 1.0
C      1  0.5344130000000  0.5582960000000  0.5481760000000 1.0
C      1  0.4761980000000  0.4311540000000  0.4741480000000 1.0
C      1  0.4234460000000  0.5216030000000  0.5619880000000 1.0
C      1  0.5435720000000  0.5600110000000  0.4967010000000 1.0
C      1  0.4595200000000  0.5535290000000  0.4411940000000 1.0
C      1  0.5493000000000  0.5394700000000  0.4620760000000 1.0
C      1  0.5170050000000  0.4680050000000  0.4079090000000 1.0
C      1  0.4937930000000  0.5170270000000  0.4557270000000 1.0
C      1  0.4807340000000  0.4393950000000  0.5129990000000 1.0
C      1  0.4082350000000  0.4534860000000  0.5165960000000 1.0
C      1  0.4846690000000  0.4314040000000  0.5610030000000 1.0
C      1  0.5951350000000  0.5716890000000  0.4935930000000 1.0
C      1  0.5860790000000  0.5253050000000  0.4704820000000 1.0
C      1  0.5763090000000  0.5525400000000  0.4883430000000 1.0
C      1  0.5259230000000  0.3949650000000  0.5206130000000 1.0
C      1  0.5265460000000  0.4745420000000  0.5926490000000 1.0
C      1  0.4468150000000  0.4458300000000  0.4370080000000 1.0
C      1  0.4658960000000  0.5749120000000  0.5092100000000 1.0
C      1  0.4286980000000  0.4904620000000  0.5661570000000 1.0
C      1  0.5159700000000  0.5046580000000  0.4400450000000 1.0
C      1  0.5181490000000  0.5769570000000  0.5293400000000 1.0
C      1  0.5912270000000  0.4814330000000  0.4891320000000 1.0
C      1  0.5530110000000  0.5121120000000  0.5686400000000 1.0
C      1  0.4743290000000  0.5856730000000  0.4597730000000 1.0
C      1  0.5599990000000  0.5703870000000  0.4547650000000 1.0
C      1  0.4833100000000  0.5742990000000  0.4297260000000 1.0
C      1  0.4112820000000  0.4714570000000  0.5453960000000 1.0
C      1  0.4097360000000  0.5104620000000  0.4638980000000 1.0
C      1  0.4516650000000  0.4491180000000  0.4675370000000 1.0
C      1  0.4359670000000  0.4348180000000  0.5566750000000 1.0
C      1  0.5159940000000  0.5751750000000  0.4348330000000 1.0
C      1  0.4609830000000  0.4796980000000  0.4558310000000 1.0
C      1  0.5530120000000  0.4697830000000  0.4881910000000 1.0
C      1  0.5025050000000  0.4845120000000  0.5396520000000 1.0
C      1  0.5117740000000  0.5661340000000  0.5002770000000 1.0
C      1  0.4625940000000  0.5055700000000  0.5248330000000 1.0
C      1  0.4360730000000  0.4147320000000  0.5109470000000 1.0
C      1  0.4762710000000  0.5977160000000  0.5272160000000 1.0
C      1  0.5300980000000  0.5036750000000  0.5449700000000 1.0
C      1  0.5265050000000  0.5204470000000  0.5810140000000 1.0
C      1  0.4838410000000  0.5347450000000  0.4324990000000 1.0
C      1  0.4633420000000  0.4756410000000  0.4161090000000 1.0
C      1  0.5311920000000  0.4446030000000  0.4813370000000 1.0
C      1  0.4346120000000  0.4872270000000  0.5014220000000 1.0
C      1  0.5535940000000  0.5276580000000  0.4936930000000 1.0
C      1  0.4981640000000  0.4507660000000  0.4872410000000 1.0
C      1  0.4138750000000  0.5318620000000  0.4404350000000 1.0
C      1  0.5023120000000  0.5979800000000  0.5358840000000 1.0
C      1  0.5215130000000  0.4058490000000  0.4824290000000 1.0
C      1  0.4640310000000  0.5573180000000  0.5730130000000 1.0
C      1  0.5376180000000  0.4916160000000  0.4584270000000 1.0
C      1  0.4324060000000  0.4690180000000  0.4253720000000 1.0
C      1  0.6085620000000  0.4948280000000  0.5139130000000 1.0
C      1  0.4384690000000  0.5253520000000  0.5115080000000 1.0
C      1  0.5756300000000  0.4266870000000  0.5060340000000 1.0
C      1  0.5507360000000  0.5234340000000  0.4354110000000 1.0
C      1  0.4835110000000  0.5471990000000  0.5002970000000 1.0
C      1  0.5766330000000  0.4643630000000  0.4643370000000 1.0
C      1  0.4688970000000  0.4368200000000  0.4231420000000 1.0
C      1  0.5301820000000  0.4239300000000  0.5083270000000 1.0
C      1  0.5399930000000  0.4482080000000  0.5789860000000 1.0
C      1  0.3800800000000  0.5427330000000  0.5531560000000 1.0
C      1  0.4209890000000  0.4925220000000  0.4405270000000 1.0
C      1  0.5814540000000  0.5847100000000  0.5644700000000 1.0
C      1  0.4703510000000  0.5135350000000  0.5536830000000 1.0
C      1  0.4682440000000  0.5441580000000  0.4700650000000 1.0
C      1  0.4520940000000  0.5028470000000  0.4325480000000 1.0
C      1  0.5596820000000  0.4897430000000  0.5353440000000 1.0
C      1  0.4815100000000  0.4802960000000  0.4900010000000 1.0
C      1  0.4780430000000  0.4567720000000  0.5685900000000 1.0
C      1  0.4512290000000  0.5811730000000  0.4791740000000 1.0
C      1  0.5394440000000  0.4589830000000  0.4516480000000 1.0
C      1  0.5200430000000  0.5467800000000  0.5737500000000 1.0
C      1  0.5849490000000  0.4724610000000  0.5205260000000 1.0
C      1  0.5115960000000  0.4966720000000  0.5868870000000 1.0
C      1  0.4110850000000  0.4839570000000  0.5161260000000 1.0
C      1  0.4569650000000  0.4628020000000  0.5057450000000 1.0
C      1  0.5601490000000  0.5728120000000  0.5570220000000 1.0
C      1  0.5234440000000  0.4614520000000  0.5523750000000 1.0
C      1  0.4953030000000  0.4032760000000  0.4778760000000 1.0
C      1  0.5008840000000  0.5388910000000  0.5283190000000 1.0
C      1  0.4170760000000  0.5471700000000  0.5215130000000 1.0
C      1  0.4923080000000  0.4594170000000  0.4222730000000 1.0
C      1  0.5109120000000  0.4864410000000  0.4752650000000 1.0
C      1  0.4336720000000  0.5118130000000  0.4830420000000 1.0
C      1  0.4400180000000  0.5318310000000  0.4314200000000 1.0
C      1  0.4649780000000  0.3990620000000  0.4729390000000 1.0
C      1  0.5595450000000  0.4453160000000  0.5512770000000 1.0
C      1  0.4928280000000  0.6135360000000  0.4664530000000 1.0
C      1  0.6000010000000  0.5196560000000  0.5232860000000 1.0
C      1  0.5059350000000  0.5505890000000  0.4163080000000 1.0
C      1  0.3846100000000  0.5070990000000  0.4750480000000 1.0
C      1  0.5412460000000  0.4579940000000  0.4188360000000 1.0
C      1  0.4700630000000  0.4757230000000  0.5343460000000 1.0
C      1  0.5943640000000  0.5155360000000  0.4454290000000 1.0
C      1  0.5802150000000  0.4432040000000  0.5271680000000 1.0
C      1  0.5605450000000  0.4274660000000  0.4827090000000 1.0
C      1  0.4318170000000  0.4428650000000  0.4944380000000 1.0
C      1  0.5415870000000  0.3930730000000  0.4688010000000 1.0
C      1  0.4054560000000  0.5375640000000  0.5458420000000 1.0
C      1  0.5645770000000  0.4998950000000  0.4774250000000 1.0
C      1  0.4485930000000  0.4645580000000  0.5569300000000 1.0
C      1  0.5144380000000  0.4919350000000  0.5086660000000 1.0
C      1  0.4751620000000  0.4233340000000  0.5353570000000 1.0
C      1  0.4866480000000  0.4896640000000  0.5693180000000 1.0
C      1  0.5394020000000  0.4731550000000  0.5150530000000 1.0
C      1  0.4325860000000  0.5635340000000  0.5014940000000 1.0
C      1  0.5690870000000  0.5199900000000  0.5229790000000 1.0
C      1  0.5456250000000  0.5846180000000  0.4394150000000 1.0
C      1  0.4094240000000  0.4347460000000  0.4738210000000 1.0
C      1  0.5051910000000  0.5847170000000  0.4740140000000 1.0
C      1  0.4861950000000  0.5403090000000  0.5536180000000 1.0
C      1  0.5401980000000  0.4259000000000  0.5954150000000 1.0
C      1  0.4473920000000  0.4175800000000  0.5366570000000 1.0
C      1  0.5111020000000  0.5326940000000  0.4755540000000 1.0
C      1  0.4636650000000  0.5104620000000  0.4700660000000 1.0
C      1  0.4803800000000  0.5129700000000  0.4995700000000 1.0
C      1  0.5358910000000  0.4447980000000  0.5280650000000 1.0
C      1  0.4488050000000  0.5331670000000  0.5655470000000 1.0
C      1  0.5656500000000  0.4745780000000  0.4357410000000 1.0
C      1  0.4593880000000  0.5452380000000  0.5244920000000 1.0
C      1  0.5717530000000  0.5045430000000  0.4319110000000 1.0
C      1  0.5408420000000  0.5329150000000  0.5325820000000 1.0
C      1  0.4911740000000  0.4735890000000  0.4515960000000 1.0
C      1  0.5169200000000  0.4961130000000  0.4078400000000 1.0
END
