TITL C-2848503-6230-103 0.000242022657834197 125000 -539.618696279592 0 0 102 (C1) n - 1
REM
REM in /home/bkarasulu/work/CARBON/AIRSS/Generating-Clusters/AIREBO/with-SteepDescent/Only-C1/SD-CG-opt/Try1-1.4A-POS3A/HFTN-CG
REM
REM
REM
REM
REM
REM ./C.cell (11c1c37f851c82e70ff6c80c92926a4b)
REM
REM compiler GCC version 9.2.1 20190827 (Red Hat 9.2.1-1)
REM options -cpp -mtune=generic -march=x86-64 -g -O0 -fpre-include=/usr/include/finclude/math-vector-fortran.h
REM seed 983248465 -1269322628 311019796 1980393449 -976194886 -1350607182 -834927201 -141655593 1129734334 -1456401971 -2000506666 1474932104 -799867677 -1841904878 -936271876 31344361 -1604669575 890178220 163672766 2039749239 -1241024207 2078891699 -284793183 747330343 -1522183621 -1769796218 -1868298819 -1100701524 1915454432 839176529 193215050 980016057 669245530
REM
CELL 1.54180   50.00000   50.00000   50.00000   90.00000   90.00000   90.00000
LATT -1
SFAC C  
C      1  0.4880090000000  0.5404280000000  0.4921680000000 1.0
C      1  0.4129120000000  0.5256060000000  0.5155910000000 1.0
C      1  0.4889820000000  0.5317490000000  0.4189900000000 1.0
C      1  0.5338860000000  0.5199350000000  0.5618230000000 1.0
C      1  0.5543930000000  0.5289720000000  0.4878610000000 1.0
C      1  0.4563240000000  0.4839390000000  0.5848540000000 1.0
C      1  0.4448620000000  0.4901870000000  0.5534570000000 1.0
C      1  0.5073730000000  0.5131560000000  0.4983400000000 1.0
C      1  0.4826650000000  0.4257370000000  0.4950120000000 1.0
C      1  0.5361220000000  0.5516470000000  0.5051390000000 1.0
C      1  0.5021510000000  0.4406950000000  0.5723160000000 1.0
C      1  0.4244290000000  0.4340430000000  0.4631330000000 1.0
C      1  0.5142140000000  0.5699510000000  0.5749010000000 1.0
C      1  0.4132420000000  0.4515660000000  0.5238130000000 1.0
C      1  0.4735120000000  0.4441280000000  0.5558490000000 1.0
C      1  0.4805670000000  0.4713350000000  0.5407930000000 1.0
C      1  0.4490570000000  0.4385790000000  0.5358110000000 1.0
C      1  0.4512610000000  0.5701550000000  0.5055750000000 1.0
C      1  0.4997790000000  0.5105380000000  0.4652490000000 1.0
C      1  0.4620700000000  0.4450140000000  0.5086590000000 1.0
C      1  0.5738980000000  0.5361190000000  0.5350410000000 1.0
C      1  0.5710450000000  0.5080540000000  0.5537390000000 1.0
C      1  0.4227420000000  0.5464320000000  0.5359770000000 1.0
C      1  0.5302220000000  0.5217850000000  0.4670220000000 1.0
C      1  0.5425040000000  0.4929620000000  0.5429920000000 1.0
C      1  0.5548880000000  0.5790440000000  0.5124620000000 1.0
C      1  0.4664720000000  0.4576340000000  0.4773920000000 1.0
C      1  0.5384260000000  0.4291820000000  0.5315740000000 1.0
C      1  0.5777460000000  0.5684500000000  0.5252390000000 1.0
C      1  0.4753850000000  0.5512470000000  0.5452600000000 1.0
C      1  0.5691670000000  0.5060090000000  0.5144770000000 1.0
C      1  0.5205200000000  0.5798960000000  0.5158790000000 1.0
C      1  0.4490330000000  0.5147290000000  0.5774680000000 1.0
C      1  0.5252180000000  0.4415090000000  0.5577470000000 1.0
C      1  0.5327730000000  0.4880700000000  0.4634380000000 1.0
C      1  0.4119560000000  0.4986180000000  0.5071980000000 1.0
C      1  0.4813290000000  0.4663510000000  0.5803710000000 1.0
C      1  0.4997690000000  0.5022640000000  0.4320470000000 1.0
C      1  0.4954130000000  0.5486680000000  0.5709760000000 1.0
C      1  0.5250840000000  0.4715810000000  0.4921750000000 1.0
C      1  0.5448770000000  0.5500490000000  0.5379760000000 1.0
C      1  0.5785570000000  0.4605550000000  0.5232930000000 1.0
C      1  0.4760920000000  0.5722570000000  0.4933470000000 1.0
C      1  0.5844470000000  0.5815160000000  0.4670600000000 1.0
C      1  0.4483400000000  0.4188480000000  0.4610920000000 1.0
C      1  0.4068360000000  0.4669140000000  0.5000420000000 1.0
C      1  0.4342750000000  0.5420860000000  0.4979630000000 1.0
C      1  0.4394050000000  0.4895070000000  0.4985790000000 1.0
C      1  0.5303810000000  0.4446250000000  0.4412350000000 1.0
C      1  0.5407140000000  0.4885260000000  0.4092510000000 1.0
C      1  0.4681400000000  0.4930790000000  0.4234100000000 1.0
C      1  0.4785230000000  0.5492260000000  0.4606990000000 1.0
C      1  0.4600110000000  0.5065520000000  0.5277000000000 1.0
C      1  0.5171680000000  0.5355750000000  0.5364040000000 1.0
C      1  0.4305680000000  0.4657950000000  0.5443860000000 1.0
C      1  0.5332480000000  0.4215180000000  0.5056100000000 1.0
C      1  0.5384510000000  0.5017360000000  0.5005360000000 1.0
C      1  0.5412900000000  0.4631050000000  0.5375230000000 1.0
C      1  0.5744110000000  0.4590040000000  0.4496390000000 1.0
C      1  0.4517360000000  0.5498970000000  0.4535650000000 1.0
C      1  0.5411410000000  0.5657260000000  0.5663210000000 1.0
C      1  0.5279700000000  0.5140880000000  0.4171650000000 1.0
C      1  0.4481040000000  0.5595030000000  0.5328360000000 1.0
C      1  0.5034290000000  0.4715990000000  0.4585780000000 1.0
C      1  0.5056520000000  0.4318830000000  0.4575650000000 1.0
C      1  0.4710370000000  0.5034820000000  0.4788800000000 1.0
C      1  0.4674850000000  0.4768280000000  0.5129650000000 1.0
C      1  0.5293830000000  0.5558100000000  0.4720670000000 1.0
C      1  0.4196400000000  0.4220610000000  0.5304470000000 1.0
C      1  0.4464010000000  0.4986130000000  0.4406410000000 1.0
C      1  0.5122090000000  0.4402090000000  0.4892610000000 1.0
C      1  0.4458490000000  0.4821600000000  0.4674810000000 1.0
C      1  0.5621820000000  0.4841770000000  0.4527180000000 1.0
C      1  0.4259740000000  0.5424730000000  0.4692220000000 1.0
C      1  0.5171750000000  0.4730650000000  0.4275130000000 1.0
C      1  0.4984410000000  0.5545250000000  0.5213120000000 1.0
C      1  0.5216140000000  0.5565770000000  0.4406830000000 1.0
C      1  0.4210650000000  0.4600060000000  0.4746960000000 1.0
C      1  0.4599470000000  0.5236590000000  0.5015150000000 1.0
C      1  0.4945630000000  0.5518530000000  0.4381730000000 1.0
C      1  0.6000310000000  0.4539770000000  0.4438210000000 1.0
C      1  0.5510730000000  0.4337200000000  0.4825180000000 1.0
C      1  0.4916020000000  0.4965970000000  0.5499860000000 1.0
C      1  0.5858690000000  0.5622610000000  0.4437730000000 1.0
C      1  0.5542080000000  0.4398970000000  0.4555490000000 1.0
C      1  0.4352000000000  0.5239800000000  0.4439150000000 1.0
C      1  0.4731310000000  0.4375790000000  0.4558670000000 1.0
C      1  0.5063290000000  0.5230500000000  0.5759110000000 1.0
C      1  0.5804280000000  0.5085520000000  0.5796870000000 1.0
C      1  0.5028640000000  0.5754810000000  0.4803320000000 1.0
C      1  0.5539110000000  0.5400800000000  0.5755150000000 1.0
C      1  0.5522570000000  0.4565210000000  0.5059990000000 1.0
C      1  0.4919020000000  0.4509860000000  0.4330090000000 1.0
C      1  0.4913140000000  0.4779720000000  0.4885920000000 1.0
C      1  0.5816200000000  0.4855460000000  0.5317550000000 1.0
C      1  0.5132080000000  0.5053580000000  0.5309880000000 1.0
C      1  0.4967610000000  0.4952780000000  0.5827110000000 1.0
C      1  0.5634480000000  0.5548030000000  0.4682790000000 1.0
C      1  0.5362850000000  0.5404190000000  0.4226630000000 1.0
C      1  0.4686410000000  0.4066910000000  0.4806560000000 1.0
C      1  0.4639320000000  0.4852800000000  0.3972950000000 1.0
C      1  0.4698560000000  0.5213410000000  0.5540230000000 1.0
END
