TITL C-2847954-6904-105 0.00354068349268657 125000 -1004.04609867347 0 0 185 (C1) n - 1
REM
REM in /home/bkarasulu/work/CARBON/AIRSS/Generating-Clusters/AIREBO/with-SteepDescent/Only-C1/SD-CG-opt/Try1-1.4A-POS3A/HFTN-CG
REM
REM
REM
REM
REM
REM ./C.cell (11c1c37f851c82e70ff6c80c92926a4b)
REM
REM compiler GCC version 9.2.1 20190827 (Red Hat 9.2.1-1)
REM options -cpp -mtune=generic -march=x86-64 -g -O0 -fpre-include=/usr/include/finclude/math-vector-fortran.h
REM seed -583054761 -894913234 664396242 -348149204 1628029855 358408069 693734052 -1606419800 698563222 -836086286 -20621730 -1676128772 1484809116 -17710165 -80158291 1932931775 330147620 754209334 -764890272 1031277986 1004806898 1689098961 -1626009940 -1995514895 -1296675760 1358070557 19822921 -1297172187 -1397434992 -1882125895 129739353 433750083 1484906593
REM
CELL 1.54180   50.00000   50.00000   50.00000   90.00000   90.00000   90.00000
LATT -1
SFAC C  
C      1  0.4976130000000  0.4850810000000  0.3873970000000 1.0
C      1  0.5121290000000  0.5429790000000  0.4365200000000 1.0
C      1  0.5121260000000  0.4328590000000  0.4544960000000 1.0
C      1  0.3994110000000  0.4774970000000  0.5131850000000 1.0
C      1  0.4061430000000  0.5323770000000  0.5749550000000 1.0
C      1  0.5621120000000  0.4065800000000  0.5231940000000 1.0
C      1  0.4912660000000  0.5124100000000  0.5053160000000 1.0
C      1  0.5585580000000  0.4723720000000  0.5129600000000 1.0
C      1  0.5493740000000  0.4608860000000  0.5627570000000 1.0
C      1  0.5257400000000  0.5717280000000  0.5075250000000 1.0
C      1  0.6053640000000  0.4976870000000  0.5685390000000 1.0
C      1  0.4364880000000  0.4729650000000  0.4992530000000 1.0
C      1  0.4560760000000  0.5025680000000  0.4683550000000 1.0
C      1  0.5932150000000  0.4972660000000  0.4293950000000 1.0
C      1  0.5170490000000  0.5402120000000  0.5752130000000 1.0
C      1  0.5006000000000  0.5127250000000  0.3968680000000 1.0
C      1  0.4267580000000  0.4478590000000  0.5624230000000 1.0
C      1  0.5176360000000  0.4575350000000  0.6007500000000 1.0
C      1  0.3853430000000  0.4843980000000  0.4855490000000 1.0
C      1  0.5343760000000  0.5604050000000  0.5391250000000 1.0
C      1  0.5508580000000  0.4400070000000  0.5057190000000 1.0
C      1  0.5868260000000  0.5804520000000  0.4759430000000 1.0
C      1  0.5815660000000  0.4333480000000  0.5187080000000 1.0
C      1  0.5565210000000  0.4591160000000  0.4330500000000 1.0
C      1  0.4331550000000  0.4611140000000  0.5310740000000 1.0
C      1  0.4637860000000  0.4352760000000  0.4841400000000 1.0
C      1  0.5274970000000  0.4447020000000  0.4814470000000 1.0
C      1  0.4747570000000  0.4707660000000  0.3988550000000 1.0
C      1  0.5389430000000  0.5276450000000  0.5980130000000 1.0
C      1  0.5794940000000  0.4727620000000  0.4120290000000 1.0
C      1  0.4228650000000  0.5807940000000  0.5462640000000 1.0
C      1  0.4734860000000  0.5543620000000  0.5135510000000 1.0
C      1  0.6121000000000  0.5127260000000  0.4940240000000 1.0
C      1  0.5895750000000  0.4906120000000  0.4565430000000 1.0
C      1  0.4361390000000  0.5296370000000  0.4351370000000 1.0
C      1  0.5888080000000  0.5207540000000  0.5733580000000 1.0
C      1  0.4737640000000  0.4199230000000  0.5419030000000 1.0
C      1  0.4843500000000  0.3881390000000  0.4849070000000 1.0
C      1  0.4368580000000  0.5291440000000  0.4911230000000 1.0
C      1  0.4641600000000  0.5466360000000  0.4859460000000 1.0
C      1  0.4634840000000  0.5321410000000  0.4551890000000 1.0
C      1  0.4257260000000  0.4945270000000  0.4558730000000 1.0
C      1  0.4330460000000  0.5725370000000  0.4569190000000 1.0
C      1  0.5410380000000  0.4086500000000  0.4965890000000 1.0
C      1  0.4782470000000  0.4298210000000  0.4555070000000 1.0
C      1  0.5308140000000  0.5285340000000  0.5156670000000 1.0
C      1  0.5575870000000  0.4865190000000  0.4620910000000 1.0
C      1  0.5885390000000  0.5376230000000  0.5459710000000 1.0
C      1  0.4261030000000  0.4154320000000  0.4665850000000 1.0
C      1  0.5173370000000  0.4516940000000  0.4303750000000 1.0
C      1  0.5102610000000  0.4614420000000  0.5133010000000 1.0
C      1  0.5093420000000  0.5978830000000  0.5052690000000 1.0
C      1  0.4586020000000  0.4948700000000  0.4123170000000 1.0
C      1  0.5642480000000  0.4997570000000  0.4033510000000 1.0
C      1  0.5642330000000  0.5168900000000  0.5856370000000 1.0
C      1  0.5766500000000  0.4458880000000  0.5560940000000 1.0
C      1  0.4958360000000  0.5988470000000  0.5364690000000 1.0
C      1  0.5101380000000  0.4303590000000  0.5090610000000 1.0
C      1  0.5950580000000  0.5575590000000  0.4698270000000 1.0
C      1  0.4681330000000  0.4392960000000  0.5888200000000 1.0
C      1  0.5247770000000  0.4050040000000  0.4507070000000 1.0
C      1  0.5430140000000  0.5609910000000  0.5778450000000 1.0
C      1  0.5560210000000  0.4545600000000  0.4657580000000 1.0
C      1  0.5134410000000  0.4754720000000  0.4848310000000 1.0
C      1  0.5084280000000  0.5890850000000  0.4662950000000 1.0
C      1  0.4498970000000  0.5130140000000  0.5907280000000 1.0
C      1  0.4052830000000  0.5574540000000  0.4678700000000 1.0
C      1  0.5310620000000  0.6064460000000  0.4805490000000 1.0
C      1  0.4109290000000  0.4500180000000  0.4286880000000 1.0
C      1  0.5740470000000  0.5153120000000  0.5015810000000 1.0
C      1  0.5447020000000  0.5470930000000  0.4592430000000 1.0
C      1  0.5649550000000  0.5488560000000  0.4222780000000 1.0
C      1  0.5366940000000  0.5640200000000  0.4316810000000 1.0
C      1  0.5423920000000  0.5278270000000  0.5448840000000 1.0
C      1  0.5729360000000  0.4293970000000  0.4351280000000 1.0
C      1  0.5026870000000  0.4972710000000  0.5885660000000 1.0
C      1  0.4855950000000  0.5114900000000  0.5631570000000 1.0
C      1  0.4642400000000  0.5648150000000  0.4457650000000 1.0
C      1  0.5308930000000  0.4422620000000  0.5823340000000 1.0
C      1  0.5196900000000  0.5202010000000  0.4155140000000 1.0
C      1  0.4705740000000  0.5987750000000  0.5137580000000 1.0
C      1  0.4945800000000  0.5246030000000  0.5358670000000 1.0
C      1  0.5107810000000  0.4886140000000  0.5422680000000 1.0
C      1  0.5587350000000  0.5028320000000  0.5280710000000 1.0
C      1  0.5354680000000  0.4968250000000  0.4819170000000 1.0
C      1  0.4686270000000  0.4619270000000  0.4497370000000 1.0
C      1  0.5077530000000  0.4970570000000  0.4516590000000 1.0
C      1  0.4242460000000  0.5339740000000  0.4617490000000 1.0
C      1  0.4944650000000  0.5594900000000  0.4604310000000 1.0
C      1  0.4104400000000  0.4719070000000  0.4166750000000 1.0
C      1  0.4373640000000  0.5332150000000  0.4034630000000 1.0
C      1  0.4422790000000  0.5481070000000  0.5816290000000 1.0
C      1  0.5590840000000  0.5966110000000  0.4775400000000 1.0
C      1  0.5921350000000  0.4626740000000  0.5322940000000 1.0
C      1  0.4822110000000  0.3962250000000  0.4583970000000 1.0
C      1  0.5892680000000  0.4672070000000  0.4992980000000 1.0
C      1  0.5336350000000  0.4797380000000  0.6068070000000 1.0
C      1  0.4040230000000  0.5347860000000  0.5129350000000 1.0
C      1  0.4866450000000  0.4673710000000  0.5908050000000 1.0
C      1  0.3926020000000  0.4835050000000  0.5429490000000 1.0
C      1  0.4299020000000  0.5193890000000  0.5290130000000 1.0
C      1  0.4740780000000  0.4727740000000  0.6198110000000 1.0
C      1  0.4625470000000  0.5514280000000  0.4145400000000 1.0
C      1  0.4611740000000  0.5070320000000  0.4998510000000 1.0
C      1  0.4335820000000  0.4389790000000  0.4471050000000 1.0
C      1  0.4678090000000  0.5416280000000  0.5445640000000 1.0
C      1  0.6036810000000  0.4890960000000  0.5423250000000 1.0
C      1  0.5863630000000  0.4424490000000  0.4124780000000 1.0
C      1  0.4476790000000  0.4806010000000  0.5548590000000 1.0
C      1  0.4329180000000  0.6007920000000  0.4851890000000 1.0
C      1  0.4754910000000  0.5820680000000  0.4175620000000 1.0
C      1  0.4277950000000  0.4992910000000  0.4222610000000 1.0
C      1  0.5092800000000  0.3992400000000  0.5042960000000 1.0
C      1  0.4986800000000  0.5948680000000  0.4182530000000 1.0
C      1  0.5979100000000  0.5145120000000  0.5248760000000 1.0
C      1  0.5173480000000  0.5875280000000  0.4362120000000 1.0
C      1  0.5518500000000  0.5648180000000  0.4871960000000 1.0
C      1  0.4204600000000  0.5812330000000  0.4949250000000 1.0
C      1  0.4310310000000  0.5554370000000  0.5119180000000 1.0
C      1  0.5446270000000  0.5058340000000  0.4282460000000 1.0
C      1  0.4156360000000  0.4799720000000  0.5637710000000 1.0
C      1  0.4825600000000  0.5991100000000  0.4832870000000 1.0
C      1  0.4399260000000  0.4236460000000  0.5425010000000 1.0
C      1  0.5885410000000  0.5273980000000  0.4740620000000 1.0
C      1  0.5252010000000  0.5085740000000  0.5657250000000 1.0
C      1  0.4591750000000  0.5752150000000  0.5826720000000 1.0
C      1  0.4090480000000  0.4470400000000  0.5122510000000 1.0
C      1  0.5232580000000  0.5076510000000  0.6117800000000 1.0
C      1  0.3929270000000  0.5312190000000  0.4850880000000 1.0
C      1  0.4127160000000  0.5570030000000  0.5569170000000 1.0
C      1  0.4849530000000  0.4828550000000  0.5209000000000 1.0
C      1  0.4702430000000  0.5396250000000  0.5965770000000 1.0
C      1  0.4814770000000  0.3941820000000  0.5239310000000 1.0
C      1  0.5040860000000  0.3876400000000  0.4422100000000 1.0
C      1  0.4597240000000  0.3894880000000  0.5015460000000 1.0
C      1  0.5291310000000  0.4783470000000  0.4355250000000 1.0
C      1  0.4790760000000  0.4876000000000  0.4360020000000 1.0
C      1  0.4204560000000  0.5090900000000  0.5807220000000 1.0
C      1  0.5274420000000  0.5926950000000  0.5411830000000 1.0
C      1  0.4406350000000  0.4658720000000  0.4662460000000 1.0
C      1  0.6029000000000  0.4875980000000  0.4809350000000 1.0
C      1  0.5620780000000  0.5192930000000  0.4542090000000 1.0
C      1  0.5643960000000  0.5596860000000  0.5540340000000 1.0
C      1  0.5677300000000  0.5832620000000  0.5109620000000 1.0
C      1  0.4654010000000  0.4899610000000  0.5763540000000 1.0
C      1  0.5295790000000  0.4264750000000  0.5580290000000 1.0
C      1  0.4521320000000  0.5751920000000  0.5298770000000 1.0
C      1  0.3970600000000  0.5045490000000  0.4712410000000 1.0
C      1  0.6019210000000  0.4303070000000  0.3936650000000 1.0
C      1  0.5355440000000  0.4652500000000  0.5357160000000 1.0
C      1  0.4881210000000  0.5507550000000  0.5702670000000 1.0
C      1  0.5544820000000  0.4237260000000  0.5463700000000 1.0
C      1  0.4776290000000  0.4182300000000  0.5746150000000 1.0
C      1  0.5058630000000  0.5482210000000  0.5138740000000 1.0
C      1  0.4871480000000  0.5206750000000  0.4384670000000 1.0
C      1  0.4663380000000  0.4453460000000  0.4068370000000 1.0
C      1  0.4535110000000  0.4949380000000  0.5280200000000 1.0
C      1  0.5799890000000  0.4455890000000  0.4789270000000 1.0
C      1  0.4411060000000  0.4422840000000  0.5895480000000 1.0
C      1  0.4382800000000  0.5361930000000  0.5516440000000 1.0
C      1  0.5706670000000  0.4104100000000  0.4549490000000 1.0
C      1  0.5245990000000  0.5217690000000  0.4678750000000 1.0
C      1  0.4970660000000  0.4622690000000  0.5588270000000 1.0
C      1  0.5469450000000  0.4016260000000  0.4672520000000 1.0
C      1  0.4748130000000  0.5793140000000  0.5548970000000 1.0
C      1  0.5783790000000  0.5246120000000  0.4180790000000 1.0
C      1  0.4423950000000  0.4133300000000  0.4938900000000 1.0
C      1  0.5504310000000  0.6032980000000  0.5279060000000 1.0
C      1  0.4216680000000  0.5008900000000  0.5024800000000 1.0
C      1  0.4721720000000  0.5219160000000  0.4014410000000 1.0
C      1  0.5044190000000  0.4346470000000  0.5423140000000 1.0
C      1  0.5541640000000  0.5373150000000  0.5011510000000 1.0
C      1  0.4854760000000  0.4869440000000  0.4752860000000 1.0
C      1  0.4584440000000  0.4302300000000  0.4278650000000 1.0
C      1  0.5946780000000  0.4370760000000  0.5787650000000 1.0
C      1  0.4269880000000  0.4236510000000  0.5172500000000 1.0
C      1  0.5847480000000  0.5672760000000  0.5295770000000 1.0
C      1  0.4574210000000  0.5938700000000  0.4673140000000 1.0
C      1  0.5489110000000  0.4885720000000  0.5796620000000 1.0
C      1  0.4736310000000  0.5710330000000  0.6096620000000 1.0
C      1  0.4688990000000  0.4669240000000  0.4954950000000 1.0
C      1  0.4149470000000  0.5157380000000  0.3940020000000 1.0
C      1  0.5020250000000  0.5352110000000  0.4826900000000 1.0
C      1  0.4726300000000  0.4407630000000  0.5168910000000 1.0
C      1  0.5279620000000  0.4979620000000  0.5144430000000 1.0
END
