TITL C-2848504-8560-18 0.000566557798279586 125000 -88.5550168272569 0 0 17 (C1) n - 1
REM
REM in /home/bkarasulu/work/CARBON/AIRSS/Generating-Clusters/AIREBO/with-SteepDescent/Only-C1/SD-CG-opt/Try1-1.4A-POS3A/HFTN-CG
REM
REM
REM
REM
REM
REM ./C.cell (11c1c37f851c82e70ff6c80c92926a4b)
REM
REM compiler GCC version 9.2.1 20190827 (Red Hat 9.2.1-1)
REM options -cpp -mtune=generic -march=x86-64 -g -O0 -fpre-include=/usr/include/finclude/math-vector-fortran.h
REM seed -648091935 -1780334631 -754154706 -1776695122 1214137344 710105256 1274800082 1924369851 -12755241 1203561986 1049928326 -1363721557 2021224417 763154028 -632490897 260752451 -394463822 -268327493 -2045508049 -853754790 2017513809 513092201 -2138508086 823908434 2026808230 1886622748 -491507551 736660962 -1331872956 256554769 821056512 -1528265725 364186121
REM
CELL 1.54180   50.00000   50.00000   50.00000   90.00000   90.00000   90.00000
LATT -1
SFAC C  
C      1  0.4907630000000  0.5165790000000  0.5435340000000 1.0
C      1  0.4928670000000  0.5022070000000  0.4881980000000 1.0
C      1  0.4944860000000  0.4864490000000  0.5517330000000 1.0
C      1  0.5054410000000  0.4727090000000  0.4977970000000 1.0
C      1  0.4902600000000  0.4675490000000  0.5699850000000 1.0
C      1  0.5155260000000  0.4945270000000  0.4264470000000 1.0
C      1  0.4922040000000  0.5414550000000  0.5505330000000 1.0
C      1  0.5120710000000  0.4500060000000  0.4742630000000 1.0
C      1  0.5006100000000  0.5103050000000  0.4426750000000 1.0
C      1  0.5238480000000  0.4525440000000  0.4500890000000 1.0
C      1  0.5210900000000  0.4677930000000  0.4276740000000 1.0
C      1  0.4958850000000  0.4943010000000  0.5199270000000 1.0
C      1  0.4994780000000  0.4393650000000  0.5009140000000 1.0
C      1  0.4903420000000  0.5730760000000  0.5426610000000 1.0
C      1  0.4954010000000  0.5201790000000  0.4682710000000 1.0
C      1  0.4904530000000  0.5464790000000  0.4718170000000 1.0
C      1  0.4892740000000  0.5644780000000  0.5734810000000 1.0
END
