TITL C-2848499-1157-70 -0.000934391281280194 125000 -993.599213680303 0 0 184 (C1) n - 1
REM
REM in /home/bkarasulu/work/CARBON/AIRSS/Generating-Clusters/AIREBO/with-SteepDescent/Only-C1/SD-CG-opt/Try1-1.4A-POS3A/HFTN-CG
REM
REM
REM
REM
REM
REM ./C.cell (11c1c37f851c82e70ff6c80c92926a4b)
REM
REM compiler GCC version 9.2.1 20190827 (Red Hat 9.2.1-1)
REM options -cpp -mtune=generic -march=x86-64 -g -O0 -fpre-include=/usr/include/finclude/math-vector-fortran.h
REM seed 1153215137 1016375607 2083218952 -1494293110 119769684 2126545239 594718087 1366673792 201792529 -1956433074 1255597950 -904335321 240361514 1927321985 -217585935 -1976852133 147754419 744310525 -476357419 -82041246 -1657660744 -2103075023 599927485 -181238185 -536728400 -2051098971 -752060287 -1204286722 -1843176362 921602076 571417479 812201332 865584242
REM
CELL 1.54180   50.00000   50.00000   50.00000   90.00000   90.00000   90.00000
LATT -1
SFAC C  
C      1  0.5258550000000  0.4887330000000  0.5942170000000 1.0
C      1  0.5453690000000  0.4232760000000  0.4396700000000 1.0
C      1  0.5893850000000  0.5658720000000  0.4929890000000 1.0
C      1  0.4605400000000  0.4440100000000  0.5295590000000 1.0
C      1  0.4791320000000  0.4922140000000  0.5693250000000 1.0
C      1  0.4697330000000  0.5066710000000  0.5003480000000 1.0
C      1  0.5693590000000  0.4427500000000  0.4721000000000 1.0
C      1  0.4496630000000  0.4117610000000  0.4585860000000 1.0
C      1  0.4581130000000  0.6187660000000  0.5219200000000 1.0
C      1  0.4571440000000  0.4991330000000  0.5511570000000 1.0
C      1  0.5214510000000  0.4937620000000  0.5062550000000 1.0
C      1  0.5473360000000  0.5124650000000  0.4981000000000 1.0
C      1  0.4754690000000  0.5696040000000  0.4764260000000 1.0
C      1  0.5089130000000  0.4492390000000  0.5772910000000 1.0
C      1  0.4708480000000  0.4356050000000  0.6057070000000 1.0
C      1  0.5076220000000  0.5011670000000  0.5429210000000 1.0
C      1  0.4521540000000  0.5376800000000  0.4570030000000 1.0
C      1  0.5195470000000  0.5197530000000  0.5995320000000 1.0
C      1  0.6179830000000  0.5221650000000  0.4999560000000 1.0
C      1  0.5977840000000  0.4916540000000  0.4616970000000 1.0
C      1  0.4771220000000  0.4480320000000  0.4613170000000 1.0
C      1  0.5034950000000  0.6055640000000  0.4631070000000 1.0
C      1  0.5570180000000  0.5732710000000  0.4477140000000 1.0
C      1  0.5257230000000  0.5598220000000  0.4685100000000 1.0
C      1  0.5378880000000  0.4416990000000  0.5861880000000 1.0
C      1  0.4106060000000  0.5657800000000  0.4494920000000 1.0
C      1  0.5012840000000  0.4644620000000  0.4314200000000 1.0
C      1  0.4761790000000  0.6042590000000  0.4564850000000 1.0
C      1  0.4054530000000  0.4550600000000  0.4779670000000 1.0
C      1  0.3997520000000  0.5480950000000  0.4677920000000 1.0
C      1  0.4353500000000  0.5474150000000  0.4849120000000 1.0
C      1  0.4961760000000  0.4211950000000  0.4589570000000 1.0
C      1  0.4987050000000  0.4791320000000  0.6122940000000 1.0
C      1  0.4213790000000  0.5165390000000  0.5185640000000 1.0
C      1  0.5322480000000  0.4551880000000  0.4194420000000 1.0
C      1  0.5448980000000  0.4629650000000  0.6035560000000 1.0
C      1  0.4279840000000  0.5299920000000  0.4343590000000 1.0
C      1  0.4216910000000  0.5412600000000  0.6043690000000 1.0
C      1  0.5670610000000  0.5924490000000  0.5250180000000 1.0
C      1  0.4377460000000  0.5670190000000  0.4476130000000 1.0
C      1  0.4286980000000  0.4467950000000  0.5533710000000 1.0
C      1  0.4836680000000  0.4156190000000  0.5868320000000 1.0
C      1  0.5504550000000  0.3927970000000  0.4968150000000 1.0
C      1  0.5427520000000  0.5774780000000  0.4865090000000 1.0
C      1  0.5544380000000  0.4122420000000  0.4703690000000 1.0
C      1  0.4835960000000  0.6138570000000  0.5107080000000 1.0
C      1  0.4851670000000  0.4971810000000  0.4637610000000 1.0
C      1  0.5656270000000  0.5370850000000  0.5073390000000 1.0
C      1  0.4531470000000  0.6165930000000  0.4682950000000 1.0
C      1  0.4815320000000  0.4402870000000  0.4224030000000 1.0
C      1  0.5732890000000  0.5202180000000  0.6081460000000 1.0
C      1  0.5673660000000  0.5421630000000  0.4382750000000 1.0
C      1  0.5405320000000  0.5374710000000  0.4520850000000 1.0
C      1  0.4739080000000  0.4950510000000  0.6005930000000 1.0
C      1  0.4958740000000  0.4518120000000  0.6051300000000 1.0
C      1  0.5802500000000  0.5517070000000  0.5437740000000 1.0
C      1  0.5549680000000  0.4210270000000  0.5091600000000 1.0
C      1  0.5934510000000  0.4566590000000  0.5348880000000 1.0
C      1  0.5183680000000  0.5270770000000  0.4326630000000 1.0
C      1  0.5619670000000  0.5033680000000  0.4504820000000 1.0
C      1  0.4685410000000  0.5433680000000  0.4016790000000 1.0
C      1  0.4388500000000  0.4932120000000  0.4774460000000 1.0
C      1  0.5869930000000  0.5240190000000  0.4595130000000 1.0
C      1  0.5828390000000  0.4611610000000  0.4109560000000 1.0
C      1  0.5953970000000  0.4383410000000  0.4891270000000 1.0
C      1  0.5865190000000  0.4448640000000  0.5585900000000 1.0
C      1  0.4864880000000  0.4327240000000  0.5577720000000 1.0
C      1  0.5021360000000  0.5403950000000  0.4804390000000 1.0
C      1  0.5264220000000  0.5273390000000  0.5409750000000 1.0
C      1  0.4605330000000  0.4649590000000  0.5919350000000 1.0
C      1  0.4646330000000  0.5740520000000  0.5920100000000 1.0
C      1  0.5296250000000  0.3938360000000  0.5237210000000 1.0
C      1  0.4937180000000  0.5623040000000  0.5041850000000 1.0
C      1  0.6015220000000  0.4587830000000  0.5059760000000 1.0
C      1  0.5081490000000  0.4380320000000  0.4025700000000 1.0
C      1  0.4230470000000  0.4209050000000  0.5465800000000 1.0
C      1  0.5117170000000  0.5506990000000  0.5571170000000 1.0
C      1  0.4654350000000  0.5460590000000  0.5787830000000 1.0
C      1  0.4893220000000  0.4787900000000  0.3824310000000 1.0
C      1  0.4239570000000  0.4695090000000  0.4581440000000 1.0
C      1  0.4811350000000  0.4286110000000  0.5081960000000 1.0
C      1  0.4788620000000  0.4089460000000  0.5346860000000 1.0
C      1  0.4601050000000  0.4540900000000  0.5617910000000 1.0
C      1  0.4987030000000  0.3831610000000  0.5275200000000 1.0
C      1  0.4719960000000  0.5210550000000  0.4349550000000 1.0
C      1  0.5007010000000  0.4544520000000  0.3770090000000 1.0
C      1  0.5710330000000  0.5015830000000  0.5491570000000 1.0
C      1  0.5202670000000  0.5491570000000  0.5180260000000 1.0
C      1  0.4682110000000  0.5769140000000  0.4445580000000 1.0
C      1  0.4629820000000  0.4134970000000  0.4321080000000 1.0
C      1  0.5949760000000  0.4857660000000  0.4926680000000 1.0
C      1  0.4980380000000  0.5167620000000  0.5152150000000 1.0
C      1  0.4627130000000  0.5978920000000  0.6009150000000 1.0
C      1  0.5457760000000  0.4719830000000  0.5157750000000 1.0
C      1  0.4563140000000  0.4933580000000  0.4469640000000 1.0
C      1  0.5074640000000  0.4796720000000  0.5670800000000 1.0
C      1  0.5304260000000  0.4127540000000  0.5508970000000 1.0
C      1  0.3961250000000  0.4766040000000  0.4971760000000 1.0
C      1  0.5777910000000  0.4667780000000  0.4498780000000 1.0
C      1  0.4065550000000  0.5493720000000  0.5013520000000 1.0
C      1  0.4191060000000  0.5204390000000  0.4720650000000 1.0
C      1  0.4493760000000  0.5731080000000  0.4918100000000 1.0
C      1  0.4356860000000  0.4865360000000  0.5927190000000 1.0
C      1  0.5690180000000  0.5181680000000  0.4142430000000 1.0
C      1  0.4814910000000  0.5691150000000  0.4196170000000 1.0
C      1  0.4336530000000  0.5049150000000  0.5704630000000 1.0
C      1  0.4396250000000  0.5037500000000  0.4192180000000 1.0
C      1  0.5455100000000  0.4670980000000  0.5494280000000 1.0
C      1  0.4411100000000  0.6040190000000  0.4890980000000 1.0
C      1  0.4937590000000  0.5220640000000  0.4098700000000 1.0
C      1  0.4357670000000  0.5434720000000  0.4082460000000 1.0
C      1  0.5117300000000  0.4423160000000  0.5069250000000 1.0
C      1  0.5751800000000  0.4805320000000  0.5267350000000 1.0
C      1  0.4773240000000  0.5250910000000  0.4760820000000 1.0
C      1  0.4520200000000  0.5164230000000  0.5251560000000 1.0
C      1  0.5265790000000  0.5206160000000  0.4761720000000 1.0
C      1  0.4649810000000  0.4762470000000  0.4910650000000 1.0
C      1  0.5372240000000  0.5691610000000  0.5480000000000 1.0
C      1  0.5876000000000  0.5717260000000  0.5208890000000 1.0
C      1  0.5960800000000  0.5055830000000  0.5185440000000 1.0
C      1  0.5295040000000  0.4992300000000  0.4498910000000 1.0
C      1  0.5536370000000  0.4361980000000  0.5591730000000 1.0
C      1  0.5265590000000  0.4309050000000  0.4670710000000 1.0
C      1  0.5159170000000  0.4106750000000  0.4999690000000 1.0
C      1  0.4526620000000  0.4014570000000  0.5143210000000 1.0
C      1  0.4665350000000  0.4946850000000  0.3766800000000 1.0
C      1  0.4143240000000  0.4666100000000  0.5339710000000 1.0
C      1  0.4533980000000  0.4596490000000  0.4442870000000 1.0
C      1  0.5355920000000  0.5653950000000  0.5877430000000 1.0
C      1  0.5245590000000  0.5273860000000  0.3925630000000 1.0
C      1  0.5094350000000  0.5737160000000  0.4199490000000 1.0
C      1  0.4498990000000  0.4509400000000  0.4986140000000 1.0
C      1  0.5305880000000  0.4875450000000  0.4179810000000 1.0
C      1  0.4907100000000  0.4014240000000  0.4246860000000 1.0
C      1  0.5149260000000  0.4199350000000  0.4305790000000 1.0
C      1  0.5090790000000  0.4047210000000  0.5751990000000 1.0
C      1  0.5676950000000  0.4215430000000  0.5323100000000 1.0
C      1  0.5568970000000  0.5276820000000  0.5378770000000 1.0
C      1  0.4134520000000  0.4970130000000  0.5452470000000 1.0
C      1  0.4161640000000  0.5475530000000  0.5542920000000 1.0
C      1  0.4547690000000  0.5679090000000  0.5228940000000 1.0
C      1  0.4565890000000  0.5121050000000  0.3951560000000 1.0
C      1  0.4198170000000  0.4461230000000  0.5072410000000 1.0
C      1  0.4293630000000  0.4155000000000  0.5186060000000 1.0
C      1  0.5715370000000  0.5787910000000  0.4751380000000 1.0
C      1  0.4818830000000  0.5473210000000  0.5523690000000 1.0
C      1  0.5475830000000  0.4950230000000  0.5688310000000 1.0
C      1  0.5611000000000  0.4464760000000  0.4271380000000 1.0
C      1  0.5081780000000  0.6128780000000  0.4904490000000 1.0
C      1  0.4862320000000  0.5259900000000  0.5967020000000 1.0
C      1  0.5918270000000  0.5357820000000  0.4870860000000 1.0
C      1  0.5959330000000  0.5243410000000  0.5449080000000 1.0
C      1  0.5441540000000  0.5097810000000  0.4019440000000 1.0
C      1  0.4269880000000  0.4854560000000  0.5083820000000 1.0
C      1  0.5111690000000  0.5480170000000  0.5881480000000 1.0
C      1  0.4618500000000  0.4275290000000  0.4804840000000 1.0
C      1  0.5576760000000  0.5523690000000  0.5692260000000 1.0
C      1  0.4847380000000  0.4816170000000  0.5280980000000 1.0
C      1  0.4739400000000  0.5404810000000  0.5212090000000 1.0
C      1  0.5306100000000  0.6007170000000  0.5029860000000 1.0
C      1  0.4966920000000  0.5891340000000  0.5205140000000 1.0
C      1  0.4218420000000  0.5638950000000  0.5281930000000 1.0
C      1  0.4977570000000  0.4711120000000  0.4985340000000 1.0
C      1  0.3969380000000  0.5263530000000  0.5482040000000 1.0
C      1  0.5420160000000  0.4475970000000  0.4923550000000 1.0
C      1  0.5241280000000  0.5839610000000  0.4467020000000 1.0
C      1  0.5631900000000  0.4903090000000  0.4814640000000 1.0
C      1  0.4950780000000  0.4004380000000  0.4835180000000 1.0
C      1  0.4494740000000  0.4441950000000  0.4169600000000 1.0
C      1  0.3894930000000  0.5283850000000  0.5181160000000 1.0
C      1  0.5242480000000  0.5931340000000  0.5313290000000 1.0
C      1  0.5354160000000  0.4731890000000  0.4709460000000 1.0
C      1  0.5811660000000  0.4904070000000  0.4256470000000 1.0
C      1  0.5485120000000  0.5653530000000  0.5161350000000 1.0
C      1  0.5141710000000  0.4390330000000  0.5390500000000 1.0
C      1  0.4783830000000  0.3851800000000  0.5028370000000 1.0
C      1  0.5211260000000  0.5511810000000  0.4105570000000 1.0
C      1  0.4337660000000  0.5950610000000  0.5210690000000 1.0
C      1  0.4995020000000  0.4891330000000  0.4085610000000 1.0
C      1  0.4526440000000  0.4767160000000  0.5289320000000 1.0
C      1  0.4352160000000  0.5358530000000  0.5770170000000 1.0
C      1  0.5538030000000  0.5233030000000  0.5866970000000 1.0
C      1  0.5020450000000  0.4709020000000  0.4647970000000 1.0
C      1  0.4168810000000  0.4996010000000  0.4448100000000 1.0
END
