TITL C-2847952-8118-341 0.00432178256091303 125000 -254.257738651108 0 0 45 (C1) n - 1
REM
REM in /home/bkarasulu/work/CARBON/AIRSS/Generating-Clusters/AIREBO/with-SteepDescent/Only-C1/SD-CG-opt/Try1-1.4A-POS3A/HFTN-CG
REM
REM
REM
REM
REM
REM ./C.cell (11c1c37f851c82e70ff6c80c92926a4b)
REM
REM compiler GCC version 9.2.1 20190827 (Red Hat 9.2.1-1)
REM options -cpp -mtune=generic -march=x86-64 -g -O0 -fpre-include=/usr/include/finclude/math-vector-fortran.h
REM seed 686989497 -354091277 846866886 1024894562 -504969377 775220526 -1438180355 1778581406 -1444833214 -2121750109 1428525926 -1790600718 432422469 626035115 567308546 -1139438564 -1664395786 761253877 -1319306286 100380200 705792094 -197527931 -1114325453 -813246897 -554861074 -741414694 -771175470 1566888763 -711739360 907930070 -1266021285 -2058635700 17119010
REM
CELL 1.54180   50.00000   50.00000   50.00000   90.00000   90.00000   90.00000
LATT -1
SFAC C  
C      1  0.5073270000000  0.4243380000000  0.4994350000000 1.0
C      1  0.5255000000000  0.5356550000000  0.5499770000000 1.0
C      1  0.4778870000000  0.4984040000000  0.4306200000000 1.0
C      1  0.4867650000000  0.4564600000000  0.5321900000000 1.0
C      1  0.4946570000000  0.4527420000000  0.4996000000000 1.0
C      1  0.4661100000000  0.5378970000000  0.5366170000000 1.0
C      1  0.4961100000000  0.5586680000000  0.4795000000000 1.0
C      1  0.4400290000000  0.4987910000000  0.5257490000000 1.0
C      1  0.5623520000000  0.4764040000000  0.5100890000000 1.0
C      1  0.4746730000000  0.5422860000000  0.4748520000000 1.0
C      1  0.5459290000000  0.5306620000000  0.5236800000000 1.0
C      1  0.5148830000000  0.4756890000000  0.4947750000000 1.0
C      1  0.4752250000000  0.5115400000000  0.4886490000000 1.0
C      1  0.5150400000000  0.5283310000000  0.5122600000000 1.0
C      1  0.5595530000000  0.4522340000000  0.5240760000000 1.0
C      1  0.5243980000000  0.5134910000000  0.5669080000000 1.0
C      1  0.4434530000000  0.5275070000000  0.5228540000000 1.0
C      1  0.5354920000000  0.4409370000000  0.5348470000000 1.0
C      1  0.4528740000000  0.4984510000000  0.4496150000000 1.0
C      1  0.4974550000000  0.5517480000000  0.5392520000000 1.0
C      1  0.4890140000000  0.4883510000000  0.5332990000000 1.0
C      1  0.4490600000000  0.5216440000000  0.4695650000000 1.0
C      1  0.5246500000000  0.5261420000000  0.4453240000000 1.0
C      1  0.4368030000000  0.4693160000000  0.5298470000000 1.0
C      1  0.4975370000000  0.4821940000000  0.4494160000000 1.0
C      1  0.5482020000000  0.5218750000000  0.4909130000000 1.0
C      1  0.4357250000000  0.5363770000000  0.4966070000000 1.0
C      1  0.5156490000000  0.5237840000000  0.4163500000000 1.0
C      1  0.4931020000000  0.5183610000000  0.5345140000000 1.0
C      1  0.4669270000000  0.4657100000000  0.4892060000000 1.0
C      1  0.5174760000000  0.5551500000000  0.4615580000000 1.0
C      1  0.5486330000000  0.4990470000000  0.5233980000000 1.0
C      1  0.5434920000000  0.5389590000000  0.4696630000000 1.0
C      1  0.4694290000000  0.4746220000000  0.4612860000000 1.0
C      1  0.5156810000000  0.4577310000000  0.5474670000000 1.0
C      1  0.4568880000000  0.4533250000000  0.5192470000000 1.0
C      1  0.5195870000000  0.4893350000000  0.5234290000000 1.0
C      1  0.4667240000000  0.4910320000000  0.5105830000000 1.0
C      1  0.5190100000000  0.4996360000000  0.4630560000000 1.0
C      1  0.5246760000000  0.4189110000000  0.5202590000000 1.0
C      1  0.5440190000000  0.4900580000000  0.4847370000000 1.0
C      1  0.4908570000000  0.5132310000000  0.4107300000000 1.0
C      1  0.5058430000000  0.5082600000000  0.4910830000000 1.0
C      1  0.5214030000000  0.4869850000000  0.5566140000000 1.0
C      1  0.5039010000000  0.5577290000000  0.5063020000000 1.0
END
