TITL C-2847949-8115-515 -0.00101562491447363 125000 -429.02755985962 0 0 79 (C1) n - 1
REM
REM in /home/bkarasulu/work/CARBON/AIRSS/Generating-Clusters/AIREBO/with-SteepDescent/Only-C1/SD-CG-opt/Try1-1.4A-POS3A/HFTN-CG
REM
REM
REM
REM
REM
REM ./C.cell (11c1c37f851c82e70ff6c80c92926a4b)
REM
REM compiler GCC version 9.2.1 20190827 (Red Hat 9.2.1-1)
REM options -cpp -mtune=generic -march=x86-64 -g -O0 -fpre-include=/usr/include/finclude/math-vector-fortran.h
REM seed -1441059097 -126446964 -1512920100 -450264705 -496883757 2120470755 -1204313289 -1513329385 -1721478886 181217113 955882337 -987459249 -1663377671 1916625550 2112809096 1238776032 1160002004 397617559 -150539444 1272288565 651387795 -536346654 539614848 37815719 754577453 -2046598506 -1111880984 2008405573 1756067656 1976302254 1111948110 -2010210755 400236462
REM
CELL 1.54180   50.00000   50.00000   50.00000   90.00000   90.00000   90.00000
LATT -1
SFAC C  
C      1  0.5578660000000  0.4950500000000  0.4585440000000 1.0
C      1  0.4717590000000  0.5673100000000  0.4764810000000 1.0
C      1  0.5147920000000  0.4431640000000  0.4707760000000 1.0
C      1  0.5567200000000  0.4640020000000  0.4540190000000 1.0
C      1  0.4355360000000  0.4913020000000  0.5453900000000 1.0
C      1  0.5064200000000  0.5119570000000  0.5286970000000 1.0
C      1  0.4894670000000  0.4822800000000  0.5855470000000 1.0
C      1  0.5649720000000  0.5183020000000  0.5380980000000 1.0
C      1  0.4747990000000  0.5059700000000  0.4774270000000 1.0
C      1  0.5798360000000  0.4946200000000  0.5237450000000 1.0
C      1  0.4711720000000  0.5842020000000  0.5057460000000 1.0
C      1  0.5504600000000  0.4837660000000  0.5246380000000 1.0
C      1  0.4459370000000  0.5457780000000  0.4819710000000 1.0
C      1  0.5677060000000  0.5328250000000  0.4853860000000 1.0
C      1  0.4386970000000  0.4452780000000  0.4693320000000 1.0
C      1  0.4068930000000  0.5051580000000  0.4441790000000 1.0
C      1  0.5348740000000  0.4559520000000  0.5205820000000 1.0
C      1  0.5464460000000  0.5377180000000  0.5987780000000 1.0
C      1  0.4350820000000  0.5330160000000  0.5243140000000 1.0
C      1  0.4881700000000  0.5784300000000  0.5279190000000 1.0
C      1  0.5039660000000  0.5743700000000  0.4681350000000 1.0
C      1  0.4384200000000  0.4445970000000  0.5092790000000 1.0
C      1  0.4455480000000  0.5161420000000  0.4734720000000 1.0
C      1  0.4755620000000  0.5293310000000  0.5602650000000 1.0
C      1  0.4577430000000  0.4247190000000  0.4792020000000 1.0
C      1  0.5113100000000  0.5073600000000  0.5856140000000 1.0
C      1  0.4880380000000  0.4859350000000  0.4603150000000 1.0
C      1  0.4289790000000  0.5500180000000  0.5029060000000 1.0
C      1  0.5406530000000  0.4298920000000  0.5050250000000 1.0
C      1  0.5770340000000  0.5074670000000  0.4781700000000 1.0
C      1  0.4444680000000  0.4930300000000  0.4984450000000 1.0
C      1  0.4911470000000  0.5411920000000  0.4863900000000 1.0
C      1  0.5467160000000  0.5115890000000  0.4317530000000 1.0
C      1  0.4800570000000  0.5583740000000  0.5453290000000 1.0
C      1  0.5294570000000  0.4909390000000  0.4159370000000 1.0
C      1  0.5168720000000  0.4651970000000  0.4270750000000 1.0
C      1  0.5918060000000  0.4950200000000  0.4984980000000 1.0
C      1  0.4888570000000  0.4682970000000  0.4329430000000 1.0
C      1  0.5325770000000  0.5064700000000  0.5144480000000 1.0
C      1  0.4583020000000  0.5837250000000  0.4552600000000 1.0
C      1  0.4959290000000  0.4144710000000  0.5063430000000 1.0
C      1  0.5363550000000  0.5187330000000  0.5826580000000 1.0
C      1  0.5094450000000  0.5311510000000  0.4659430000000 1.0
C      1  0.5197820000000  0.4228890000000  0.4892730000000 1.0
C      1  0.5391820000000  0.4789480000000  0.5549720000000 1.0
C      1  0.5070480000000  0.4398670000000  0.5583120000000 1.0
C      1  0.4331630000000  0.5124000000000  0.4466840000000 1.0
C      1  0.4715950000000  0.5344030000000  0.4199500000000 1.0
C      1  0.4779630000000  0.4568340000000  0.5797730000000 1.0
C      1  0.4492820000000  0.5202400000000  0.4254630000000 1.0
C      1  0.5362610000000  0.5380990000000  0.4462190000000 1.0
C      1  0.5275830000000  0.5034710000000  0.4656240000000 1.0
C      1  0.5041520000000  0.4170130000000  0.5398830000000 1.0
C      1  0.4918160000000  0.5003460000000  0.5568240000000 1.0
C      1  0.5093470000000  0.4715180000000  0.5525620000000 1.0
C      1  0.5369510000000  0.5597970000000  0.5119090000000 1.0
C      1  0.4726890000000  0.4037300000000  0.4886340000000 1.0
C      1  0.5308890000000  0.4527050000000  0.4489090000000 1.0
C      1  0.5084190000000  0.5025460000000  0.4385860000000 1.0
C      1  0.4653340000000  0.4826280000000  0.5449230000000 1.0
C      1  0.5131450000000  0.5629980000000  0.4428500000000 1.0
C      1  0.5156050000000  0.5813740000000  0.5217920000000 1.0
C      1  0.4821450000000  0.5183610000000  0.5082340000000 1.0
C      1  0.5212500000000  0.5784090000000  0.4899730000000 1.0
C      1  0.5598510000000  0.5482220000000  0.4643420000000 1.0
C      1  0.4986210000000  0.5335930000000  0.4337830000000 1.0
C      1  0.4331770000000  0.4669670000000  0.4890240000000 1.0
C      1  0.4292280000000  0.5056950000000  0.5227560000000 1.0
C      1  0.4697780000000  0.4530920000000  0.5528470000000 1.0
C      1  0.5509170000000  0.5338680000000  0.5114810000000 1.0
C      1  0.4744860000000  0.4857700000000  0.5141920000000 1.0
C      1  0.5190560000000  0.4915570000000  0.4909170000000 1.0
C      1  0.5561030000000  0.4515110000000  0.5473250000000 1.0
C      1  0.5501490000000  0.5083460000000  0.5604980000000 1.0
C      1  0.4842000000000  0.4402850000000  0.5251550000000 1.0
C      1  0.4978450000000  0.4655010000000  0.4856580000000 1.0
C      1  0.4637790000000  0.5345910000000  0.5300890000000 1.0
C      1  0.4693160000000  0.4503410000000  0.4962800000000 1.0
C      1  0.5030470000000  0.4679850000000  0.5193330000000 1.0
END
