TITL C-2848495-5024-391 0.0025543156568242 125000 -921.91056643343 0 0 170 (C1) n - 1
REM
REM in /home/bkarasulu/work/CARBON/AIRSS/Generating-Clusters/AIREBO/with-SteepDescent/Only-C1/SD-CG-opt/Try1-1.4A-POS3A/HFTN-CG
REM
REM
REM
REM
REM
REM ./C.cell (11c1c37f851c82e70ff6c80c92926a4b)
REM
REM compiler GCC version 9.2.1 20190827 (Red Hat 9.2.1-1)
REM options -cpp -mtune=generic -march=x86-64 -g -O0 -fpre-include=/usr/include/finclude/math-vector-fortran.h
REM seed 1367330140 -491172262 -728395078 989605003 569869412 446500284 -872731828 636077535 1592059658 -1373316776 719821650 -1708198316 -414111143 1961278379 281141392 201467846 -284205262 1321948953 1424184961 -1747798380 -2144425188 -691050844 -2111328274 -882283015 731893095 -730523494 -2022496235 532452250 -1601762031 -2053669447 -462093504 -1814836646 -704982488
REM
CELL 1.54180   50.00000   50.00000   50.00000   90.00000   90.00000   90.00000
LATT -1
SFAC C  
C      1  0.4520870000000  0.3999230000000  0.5050920000000 1.0
C      1  0.5612390000000  0.4440550000000  0.4472600000000 1.0
C      1  0.4177080000000  0.5391970000000  0.5458870000000 1.0
C      1  0.5308960000000  0.4074970000000  0.5489470000000 1.0
C      1  0.4729550000000  0.4329140000000  0.5305660000000 1.0
C      1  0.4630070000000  0.4881070000000  0.4033780000000 1.0
C      1  0.5871440000000  0.4882990000000  0.4532900000000 1.0
C      1  0.3915810000000  0.4752890000000  0.4791470000000 1.0
C      1  0.5327130000000  0.5032270000000  0.6100130000000 1.0
C      1  0.5025520000000  0.5771430000000  0.5635030000000 1.0
C      1  0.5246880000000  0.5827520000000  0.4303020000000 1.0
C      1  0.4323330000000  0.5067200000000  0.5278420000000 1.0
C      1  0.4752310000000  0.3943040000000  0.5207000000000 1.0
C      1  0.4721700000000  0.5200690000000  0.4032320000000 1.0
C      1  0.5275440000000  0.5498360000000  0.4764560000000 1.0
C      1  0.5309890000000  0.4326460000000  0.4354320000000 1.0
C      1  0.5855580000000  0.5349150000000  0.4642630000000 1.0
C      1  0.4821440000000  0.5603150000000  0.4086420000000 1.0
C      1  0.5275190000000  0.4400410000000  0.5110320000000 1.0
C      1  0.4833150000000  0.6033910000000  0.4803030000000 1.0
C      1  0.5373500000000  0.6018270000000  0.4804260000000 1.0
C      1  0.5179570000000  0.4438200000000  0.5594330000000 1.0
C      1  0.4584460000000  0.5808540000000  0.4858680000000 1.0
C      1  0.4620950000000  0.4960680000000  0.5188090000000 1.0
C      1  0.4748240000000  0.5956840000000  0.5615840000000 1.0
C      1  0.4309290000000  0.4228100000000  0.5113970000000 1.0
C      1  0.5242880000000  0.5280900000000  0.6198400000000 1.0
C      1  0.4949900000000  0.5275890000000  0.5840080000000 1.0
C      1  0.5615270000000  0.5532450000000  0.4527820000000 1.0
C      1  0.4645610000000  0.5419550000000  0.5900600000000 1.0
C      1  0.5400810000000  0.4539920000000  0.4828840000000 1.0
C      1  0.5996400000000  0.4852180000000  0.4772870000000 1.0
C      1  0.4566650000000  0.5258060000000  0.5032150000000 1.0
C      1  0.5470800000000  0.4947930000000  0.4984680000000 1.0
C      1  0.5112770000000  0.5738360000000  0.5944690000000 1.0
C      1  0.4979600000000  0.5433520000000  0.4335070000000 1.0
C      1  0.5590200000000  0.5514580000000  0.4225300000000 1.0
C      1  0.4812280000000  0.5074510000000  0.4499100000000 1.0
C      1  0.5344170000000  0.4600980000000  0.4156540000000 1.0
C      1  0.5386860000000  0.4856220000000  0.5540610000000 1.0
C      1  0.4052630000000  0.5320430000000  0.4503690000000 1.0
C      1  0.5412210000000  0.5696970000000  0.5581280000000 1.0
C      1  0.4551280000000  0.5251140000000  0.5453370000000 1.0
C      1  0.4101850000000  0.5321380000000  0.4840140000000 1.0
C      1  0.3986980000000  0.4663180000000  0.4488410000000 1.0
C      1  0.6118710000000  0.4765320000000  0.5126880000000 1.0
C      1  0.4585400000000  0.5326590000000  0.4474910000000 1.0
C      1  0.5136030000000  0.4942580000000  0.5111270000000 1.0
C      1  0.5314930000000  0.4750400000000  0.4634930000000 1.0
C      1  0.5079630000000  0.6133860000000  0.4912940000000 1.0
C      1  0.4852000000000  0.5527330000000  0.4955240000000 1.0
C      1  0.4958380000000  0.5831220000000  0.4298250000000 1.0
C      1  0.6020280000000  0.5165270000000  0.5275010000000 1.0
C      1  0.4770030000000  0.4781410000000  0.5612090000000 1.0
C      1  0.5826380000000  0.4381770000000  0.4734750000000 1.0
C      1  0.4686480000000  0.3926180000000  0.5482790000000 1.0
C      1  0.5041350000000  0.4489310000000  0.4213020000000 1.0
C      1  0.5017270000000  0.4219260000000  0.5390890000000 1.0
C      1  0.5610370000000  0.4649350000000  0.5805110000000 1.0
C      1  0.5759880000000  0.4354940000000  0.5264740000000 1.0
C      1  0.4732490000000  0.4379660000000  0.5808830000000 1.0
C      1  0.5122980000000  0.5448710000000  0.4032890000000 1.0
C      1  0.4884140000000  0.5469090000000  0.5568030000000 1.0
C      1  0.5577550000000  0.4952960000000  0.4557660000000 1.0
C      1  0.5202680000000  0.5007050000000  0.4784090000000 1.0
C      1  0.5613760000000  0.5277820000000  0.5817420000000 1.0
C      1  0.5654310000000  0.4989110000000  0.5472260000000 1.0
C      1  0.5739580000000  0.4485320000000  0.5596480000000 1.0
C      1  0.5862790000000  0.4614190000000  0.4961620000000 1.0
C      1  0.4841020000000  0.4755480000000  0.4787950000000 1.0
C      1  0.5348490000000  0.5402880000000  0.5515210000000 1.0
C      1  0.4243130000000  0.4381500000000  0.4886150000000 1.0
C      1  0.5285950000000  0.5279370000000  0.5788480000000 1.0
C      1  0.4574500000000  0.4155600000000  0.4756930000000 1.0
C      1  0.5407660000000  0.4885490000000  0.4273560000000 1.0
C      1  0.4934930000000  0.4497180000000  0.4929150000000 1.0
C      1  0.4907990000000  0.4977770000000  0.3857930000000 1.0
C      1  0.5088810000000  0.5491830000000  0.6062980000000 1.0
C      1  0.4669380000000  0.4364240000000  0.5008250000000 1.0
C      1  0.5005230000000  0.5110990000000  0.4221350000000 1.0
C      1  0.4571870000000  0.4586480000000  0.4790450000000 1.0
C      1  0.4240360000000  0.5038010000000  0.4967710000000 1.0
C      1  0.5308760000000  0.4615180000000  0.5848660000000 1.0
C      1  0.5527710000000  0.4254470000000  0.5479040000000 1.0
C      1  0.5161850000000  0.4820170000000  0.5974610000000 1.0
C      1  0.4367440000000  0.5470070000000  0.5093440000000 1.0
C      1  0.5511410000000  0.4959470000000  0.5839920000000 1.0
C      1  0.5455490000000  0.5702650000000  0.5189570000000 1.0
C      1  0.5568250000000  0.5246870000000  0.5350770000000 1.0
C      1  0.4850270000000  0.4987530000000  0.4975120000000 1.0
C      1  0.5601040000000  0.5767340000000  0.4773250000000 1.0
C      1  0.5105090000000  0.4242780000000  0.4867440000000 1.0
C      1  0.4016790000000  0.4665210000000  0.5054000000000 1.0
C      1  0.4869740000000  0.5226040000000  0.4780960000000 1.0
C      1  0.5131870000000  0.5309330000000  0.5270800000000 1.0
C      1  0.4022020000000  0.4989280000000  0.4574650000000 1.0
C      1  0.5415900000000  0.5897410000000  0.4510090000000 1.0
C      1  0.5185930000000  0.5157020000000  0.3936980000000 1.0
C      1  0.5060280000000  0.6080550000000  0.5220350000000 1.0
C      1  0.4517240000000  0.4431510000000  0.5550720000000 1.0
C      1  0.4760640000000  0.5944830000000  0.5304670000000 1.0
C      1  0.5247920000000  0.5776120000000  0.4959380000000 1.0
C      1  0.4970580000000  0.5513460000000  0.4636850000000 1.0
C      1  0.4493490000000  0.5771490000000  0.5187620000000 1.0
C      1  0.5448140000000  0.5053080000000  0.3913480000000 1.0
C      1  0.5155190000000  0.5023310000000  0.5417030000000 1.0
C      1  0.4835370000000  0.5074280000000  0.5514320000000 1.0
C      1  0.5064650000000  0.4646850000000  0.5175920000000 1.0
C      1  0.5462550000000  0.5266520000000  0.4626900000000 1.0
C      1  0.5471340000000  0.4240930000000  0.4708950000000 1.0
C      1  0.5862420000000  0.5303660000000  0.4931770000000 1.0
C      1  0.4317660000000  0.5508230000000  0.4562100000000 1.0
C      1  0.4248880000000  0.4373930000000  0.5350070000000 1.0
C      1  0.5327090000000  0.3947470000000  0.4715540000000 1.0
C      1  0.4506050000000  0.4752380000000  0.5438090000000 1.0
C      1  0.4281780000000  0.4260440000000  0.4617650000000 1.0
C      1  0.5070960000000  0.4030470000000  0.5126240000000 1.0
C      1  0.4267150000000  0.5286580000000  0.4236430000000 1.0
C      1  0.4293600000000  0.5633680000000  0.4837820000000 1.0
C      1  0.4456120000000  0.5577500000000  0.5464720000000 1.0
C      1  0.4753780000000  0.4395130000000  0.4237620000000 1.0
C      1  0.5413260000000  0.4558360000000  0.5377940000000 1.0
C      1  0.5749450000000  0.5360330000000  0.5585580000000 1.0
C      1  0.4408170000000  0.4796100000000  0.4277320000000 1.0
C      1  0.5110490000000  0.4150690000000  0.4567260000000 1.0
C      1  0.4475260000000  0.5187970000000  0.5778900000000 1.0
C      1  0.5917370000000  0.4942760000000  0.5419680000000 1.0
C      1  0.5751160000000  0.4688860000000  0.4313070000000 1.0
C      1  0.5354700000000  0.5628830000000  0.4131510000000 1.0
C      1  0.5690130000000  0.4976470000000  0.4139740000000 1.0
C      1  0.4573420000000  0.4940090000000  0.5921170000000 1.0
C      1  0.4973870000000  0.4320960000000  0.5828920000000 1.0
C      1  0.4503910000000  0.4095850000000  0.5604080000000 1.0
C      1  0.4798270000000  0.5372760000000  0.5253300000000 1.0
C      1  0.4247470000000  0.5976710000000  0.5211650000000 1.0
C      1  0.4963970000000  0.5782730000000  0.5085810000000 1.0
C      1  0.4192770000000  0.5161810000000  0.5638980000000 1.0
C      1  0.4800680000000  0.4062540000000  0.4550290000000 1.0
C      1  0.4551910000000  0.5415090000000  0.4163540000000 1.0
C      1  0.4716490000000  0.4092920000000  0.4281460000000 1.0
C      1  0.4316140000000  0.4533610000000  0.5805220000000 1.0
C      1  0.4490790000000  0.5715560000000  0.4419210000000 1.0
C      1  0.5906850000000  0.5449810000000  0.5300870000000 1.0
C      1  0.4738460000000  0.4725440000000  0.4317410000000 1.0
C      1  0.5713150000000  0.5300190000000  0.4112430000000 1.0
C      1  0.4418300000000  0.4728300000000  0.5968930000000 1.0
C      1  0.4251070000000  0.4521090000000  0.4401270000000 1.0
C      1  0.4448100000000  0.5151350000000  0.4730980000000 1.0
C      1  0.4996620000000  0.4789540000000  0.4520380000000 1.0
C      1  0.5572570000000  0.4664310000000  0.5094660000000 1.0
C      1  0.4975620000000  0.4635790000000  0.5456540000000 1.0
C      1  0.5590340000000  0.5212770000000  0.5055870000000 1.0
C      1  0.4644390000000  0.5670950000000  0.5699890000000 1.0
C      1  0.4778160000000  0.5787240000000  0.4576740000000 1.0
C      1  0.4565960000000  0.4508490000000  0.4501990000000 1.0
C      1  0.5948250000000  0.4618700000000  0.5367820000000 1.0
C      1  0.5739200000000  0.5602350000000  0.5043070000000 1.0
C      1  0.5239010000000  0.5872730000000  0.5390110000000 1.0
C      1  0.5062920000000  0.4796650000000  0.4097070000000 1.0
C      1  0.4084370000000  0.4604630000000  0.5320550000000 1.0
C      1  0.4300540000000  0.4716670000000  0.4890620000000 1.0
C      1  0.5647800000000  0.4262850000000  0.4998820000000 1.0
C      1  0.4073830000000  0.5365770000000  0.5176320000000 1.0
C      1  0.6104170000000  0.5076790000000  0.4985140000000 1.0
C      1  0.5344580000000  0.5408530000000  0.5064900000000 1.0
C      1  0.4186130000000  0.4860590000000  0.5481100000000 1.0
C      1  0.4318710000000  0.5033540000000  0.4438380000000 1.0
C      1  0.5398700000000  0.4029580000000  0.5035110000000 1.0
C      1  0.4894150000000  0.4943330000000  0.5884100000000 1.0
C      1  0.5230310000000  0.5107150000000  0.4460840000000 1.0
END
