TITL C-2848503-6230-487 0.0021982296303315 125000 -231.97390017168 0 0 43 (C1) n - 1
REM
REM in /home/bkarasulu/work/CARBON/AIRSS/Generating-Clusters/AIREBO/with-SteepDescent/Only-C1/SD-CG-opt/Try1-1.4A-POS3A/HFTN-CG
REM
REM
REM
REM
REM
REM ./C.cell (11c1c37f851c82e70ff6c80c92926a4b)
REM
REM compiler GCC version 9.2.1 20190827 (Red Hat 9.2.1-1)
REM options -cpp -mtune=generic -march=x86-64 -g -O0 -fpre-include=/usr/include/finclude/math-vector-fortran.h
REM seed -224934377 -2132335309 380988736 -629750865 464096689 -208559457 483286012 1721894664 -740720346 -409938586 78067088 -1858915820 761430738 -227473638 784544928 -1285596715 254559140 -1281374553 1829006493 913939133 93437751 595733027 563204403 555098424 384756786 513848925 424586829 -971560611 -1544430706 -1328146582 -757482054 -560230415 559882179
REM
CELL 1.54180   50.00000   50.00000   50.00000   90.00000   90.00000   90.00000
LATT -1
SFAC C  
C      1  0.5137110000000  0.4394740000000  0.5191150000000 1.0
C      1  0.4923540000000  0.5566910000000  0.4830850000000 1.0
C      1  0.5661740000000  0.4715100000000  0.4892720000000 1.0
C      1  0.5073410000000  0.4508050000000  0.4957080000000 1.0
C      1  0.4824830000000  0.5583330000000  0.5144090000000 1.0
C      1  0.4944460000000  0.5289210000000  0.5543400000000 1.0
C      1  0.4433180000000  0.5052760000000  0.5232690000000 1.0
C      1  0.5219890000000  0.4885780000000  0.4495960000000 1.0
C      1  0.5341050000000  0.5397020000000  0.5296240000000 1.0
C      1  0.4882280000000  0.4699150000000  0.4227100000000 1.0
C      1  0.5297940000000  0.5642630000000  0.4834780000000 1.0
C      1  0.4713380000000  0.4736530000000  0.4451020000000 1.0
C      1  0.5349660000000  0.4862830000000  0.5555020000000 1.0
C      1  0.4372370000000  0.4613360000000  0.5006970000000 1.0
C      1  0.5555430000000  0.5313090000000  0.5058820000000 1.0
C      1  0.4407390000000  0.4490990000000  0.4754870000000 1.0
C      1  0.4238510000000  0.4858720000000  0.5118940000000 1.0
C      1  0.4754740000000  0.4985510000000  0.4579160000000 1.0
C      1  0.4763130000000  0.5286060000000  0.4870580000000 1.0
C      1  0.4889340000000  0.5078650000000  0.5054250000000 1.0
C      1  0.5232390000000  0.4866890000000  0.5235910000000 1.0
C      1  0.4891010000000  0.4427690000000  0.4763510000000 1.0
C      1  0.4481110000000  0.5306930000000  0.5347020000000 1.0
C      1  0.4739860000000  0.5430920000000  0.5349680000000 1.0
C      1  0.5211530000000  0.4268560000000  0.5468840000000 1.0
C      1  0.4575030000000  0.5207250000000  0.4607630000000 1.0
C      1  0.5666570000000  0.4948020000000  0.4499060000000 1.0
C      1  0.4660480000000  0.4517670000000  0.4626300000000 1.0
C      1  0.4680020000000  0.4914590000000  0.5179790000000 1.0
C      1  0.5464950000000  0.4885350000000  0.4731660000000 1.0
C      1  0.4638090000000  0.5521560000000  0.4650390000000 1.0
C      1  0.5437030000000  0.5185140000000  0.4837900000000 1.0
C      1  0.5268920000000  0.5316850000000  0.5591400000000 1.0
C      1  0.5208240000000  0.4785480000000  0.4931070000000 1.0
C      1  0.5451120000000  0.5608060000000  0.5063380000000 1.0
C      1  0.5043070000000  0.5025360000000  0.4755530000000 1.0
C      1  0.4815710000000  0.5205410000000  0.5777410000000 1.0
C      1  0.5098540000000  0.5159000000000  0.5269390000000 1.0
C      1  0.5325610000000  0.4581110000000  0.5395970000000 1.0
C      1  0.5394760000000  0.5091730000000  0.5680980000000 1.0
C      1  0.5137270000000  0.4800240000000  0.4259250000000 1.0
C      1  0.4630960000000  0.4640400000000  0.5144770000000 1.0
C      1  0.5164330000000  0.5345400000000  0.4737490000000 1.0
END
