TITL C-2847956-8218-634 -1.57837898048031e-07 125000 -23.4609424290142 0 0 5 (Cs) n - 1
REM
REM in /home/bkarasulu/work/CARBON/AIRSS/Generating-Clusters/AIREBO/with-SteepDescent/Only-C1/SD-CG-opt/Try1-1.4A-POS3A/HFTN-CG
REM
REM
REM
REM
REM
REM ./C.cell (11c1c37f851c82e70ff6c80c92926a4b)
REM
REM compiler GCC version 9.2.1 20190827 (Red Hat 9.2.1-1)
REM options -cpp -mtune=generic -march=x86-64 -g -O0 -fpre-include=/usr/include/finclude/math-vector-fortran.h
REM seed -148597833 492174483 -1679535680 753784824 214494744 1302968051 127980909 1593019835 186751968 -182771025 1221980554 -874917234 1009394828 -1264528811 -1668051176 -2039717653 -883269637 -982813178 944210064 -901945863 -1771716696 1680506392 -920441985 -469353018 -809401162 -941228260 -1960267982 1053479728 -977467751 953718614 -2020741072 1773045040 891295764
REM
CELL 1.54180   50.00000   50.00000   50.00000   90.00000   90.00000   90.00000
LATT -1
SFAC C  
C      1  0.4972640000000  0.5092880000000  0.4582080000000 1.0
C      1  0.4799640000000  0.5035040000000  0.5270410000000 1.0
C      1  0.5235630000000  0.4870160000000  0.5205220000000 1.0
C      1  0.5007480000000  0.4977300000000  0.5107420000000 1.0
C      1  0.4984620000000  0.5024620000000  0.4834870000000 1.0
END
