TITL C-2847958-8115-97 -0.00195383401235898 125000 -974.753463345112 0 0 176 (C1) n - 1
REM
REM in /home/bkarasulu/work/CARBON/AIRSS/Generating-Clusters/AIREBO/with-SteepDescent/Only-C1/SD-CG-opt/Try1-1.4A-POS3A/HFTN-CG
REM
REM
REM
REM
REM
REM ./C.cell (11c1c37f851c82e70ff6c80c92926a4b)
REM
REM compiler GCC version 9.2.1 20190827 (Red Hat 9.2.1-1)
REM options -cpp -mtune=generic -march=x86-64 -g -O0 -fpre-include=/usr/include/finclude/math-vector-fortran.h
REM seed -1945664458 -490709746 -288136770 1544988814 -1869303578 1833155434 -1631749454 780472733 -99722856 -1422132731 -1986735870 1321854448 142089930 -1285383412 -184307946 1230887545 -1140303398 -1069260990 -1216277982 1468977104 697976932 1878677143 -246090870 -1364241232 1705940932 558875139 -1479908034 1219554956 -613074711 1811655640 546096379 -1064267864 -1533299734
REM
CELL 1.54180   50.00000   50.00000   50.00000   90.00000   90.00000   90.00000
LATT -1
SFAC C  
C      1  0.5009260000000  0.4795860000000  0.3943650000000 1.0
C      1  0.4029850000000  0.4801850000000  0.5506400000000 1.0
C      1  0.4074000000000  0.5365610000000  0.4526120000000 1.0
C      1  0.5558750000000  0.5814180000000  0.5233290000000 1.0
C      1  0.5248070000000  0.4001030000000  0.4495010000000 1.0
C      1  0.4940790000000  0.4141820000000  0.4448160000000 1.0
C      1  0.4487450000000  0.5058950000000  0.4072010000000 1.0
C      1  0.5177850000000  0.5258920000000  0.5013430000000 1.0
C      1  0.4137320000000  0.5644800000000  0.5475430000000 1.0
C      1  0.5018050000000  0.5534700000000  0.5127050000000 1.0
C      1  0.5069610000000  0.4645090000000  0.5666240000000 1.0
C      1  0.4239930000000  0.4687180000000  0.5697900000000 1.0
C      1  0.5341430000000  0.4869830000000  0.5206760000000 1.0
C      1  0.5567590000000  0.4735590000000  0.5823830000000 1.0
C      1  0.5672930000000  0.5373100000000  0.5679670000000 1.0
C      1  0.5342330000000  0.5614410000000  0.5079800000000 1.0
C      1  0.5014830000000  0.4566340000000  0.5992490000000 1.0
C      1  0.5346870000000  0.4684210000000  0.5495160000000 1.0
C      1  0.5241320000000  0.5717160000000  0.5804600000000 1.0
C      1  0.5521760000000  0.5751200000000  0.4841080000000 1.0
C      1  0.5779970000000  0.4812870000000  0.4937490000000 1.0
C      1  0.4431820000000  0.3947870000000  0.5475960000000 1.0
C      1  0.5973840000000  0.5486150000000  0.5375410000000 1.0
C      1  0.5256680000000  0.5473600000000  0.3964370000000 1.0
C      1  0.4226820000000  0.4856360000000  0.4805260000000 1.0
C      1  0.5501010000000  0.4159960000000  0.4657530000000 1.0
C      1  0.4486790000000  0.4988940000000  0.5627160000000 1.0
C      1  0.5016520000000  0.4567880000000  0.4100600000000 1.0
C      1  0.5759110000000  0.5932240000000  0.4998010000000 1.0
C      1  0.4700540000000  0.5926660000000  0.4841920000000 1.0
C      1  0.4308570000000  0.4163800000000  0.5364470000000 1.0
C      1  0.4282200000000  0.5076190000000  0.4344200000000 1.0
C      1  0.5999390000000  0.5492540000000  0.5074310000000 1.0
C      1  0.5177100000000  0.4572970000000  0.4605940000000 1.0
C      1  0.4677940000000  0.5023590000000  0.4923350000000 1.0
C      1  0.5416440000000  0.5652160000000  0.4102780000000 1.0
C      1  0.5664080000000  0.4957240000000  0.4691550000000 1.0
C      1  0.6142780000000  0.5162610000000  0.5336530000000 1.0
C      1  0.5015930000000  0.4321850000000  0.5226730000000 1.0
C      1  0.4868760000000  0.5255090000000  0.4762080000000 1.0
C      1  0.4663680000000  0.4032530000000  0.5617080000000 1.0
C      1  0.4829490000000  0.5444950000000  0.5931900000000 1.0
C      1  0.4323240000000  0.4288110000000  0.4853600000000 1.0
C      1  0.4695660000000  0.5185590000000  0.5810700000000 1.0
C      1  0.5554590000000  0.5383790000000  0.4995580000000 1.0
C      1  0.4841810000000  0.5877370000000  0.4400410000000 1.0
C      1  0.4615880000000  0.5245220000000  0.4562360000000 1.0
C      1  0.4345390000000  0.4447220000000  0.5554960000000 1.0
C      1  0.4087920000000  0.5523270000000  0.4996670000000 1.0
C      1  0.5215370000000  0.3976580000000  0.5234870000000 1.0
C      1  0.5286620000000  0.4964110000000  0.4883550000000 1.0
C      1  0.5346540000000  0.4267670000000  0.5144360000000 1.0
C      1  0.4478730000000  0.5423980000000  0.5058010000000 1.0
C      1  0.5801530000000  0.4304520000000  0.5991520000000 1.0
C      1  0.5078880000000  0.5043240000000  0.4626240000000 1.0
C      1  0.4687360000000  0.4647490000000  0.5378560000000 1.0
C      1  0.4396950000000  0.4277820000000  0.4583620000000 1.0
C      1  0.4014610000000  0.4490720000000  0.4400230000000 1.0
C      1  0.5777300000000  0.4916950000000  0.4210180000000 1.0
C      1  0.5652890000000  0.4455440000000  0.5832340000000 1.0
C      1  0.5637580000000  0.4192180000000  0.5080630000000 1.0
C      1  0.5004750000000  0.5386360000000  0.3833530000000 1.0
C      1  0.5329960000000  0.5362440000000  0.4740790000000 1.0
C      1  0.4183960000000  0.5519720000000  0.4733830000000 1.0
C      1  0.4978470000000  0.5414150000000  0.4245550000000 1.0
C      1  0.5129930000000  0.5485880000000  0.5985580000000 1.0
C      1  0.4590780000000  0.4597970000000  0.4445560000000 1.0
C      1  0.5719020000000  0.3971110000000  0.4835470000000 1.0
C      1  0.5185290000000  0.4504280000000  0.4999040000000 1.0
C      1  0.5231030000000  0.5164480000000  0.5335710000000 1.0
C      1  0.5233650000000  0.4295120000000  0.4762780000000 1.0
C      1  0.4814930000000  0.5226390000000  0.3933870000000 1.0
C      1  0.4985770000000  0.5562090000000  0.4730720000000 1.0
C      1  0.4169450000000  0.5375480000000  0.5663770000000 1.0
C      1  0.4474890000000  0.4112570000000  0.5004590000000 1.0
C      1  0.4557140000000  0.6046480000000  0.5041270000000 1.0
C      1  0.4239470000000  0.4781820000000  0.5245450000000 1.0
C      1  0.5663270000000  0.4893280000000  0.5217860000000 1.0
C      1  0.4234190000000  0.5404200000000  0.4266110000000 1.0
C      1  0.5873700000000  0.5488550000000  0.4601980000000 1.0
C      1  0.5909950000000  0.5665440000000  0.4885020000000 1.0
C      1  0.4199330000000  0.4287630000000  0.4388550000000 1.0
C      1  0.4708120000000  0.4481440000000  0.4844230000000 1.0
C      1  0.4290160000000  0.4581960000000  0.4998040000000 1.0
C      1  0.4584300000000  0.5775090000000  0.4588330000000 1.0
C      1  0.5388560000000  0.5007310000000  0.5592670000000 1.0
C      1  0.4751650000000  0.5464340000000  0.5246470000000 1.0
C      1  0.5069970000000  0.5843410000000  0.4559220000000 1.0
C      1  0.4441230000000  0.4874620000000  0.4539820000000 1.0
C      1  0.5777590000000  0.4305950000000  0.4800530000000 1.0
C      1  0.5219310000000  0.4374810000000  0.4089290000000 1.0
C      1  0.4891960000000  0.4687400000000  0.4691240000000 1.0
C      1  0.5929420000000  0.4541320000000  0.4834240000000 1.0
C      1  0.5633960000000  0.5265800000000  0.4695090000000 1.0
C      1  0.4669120000000  0.5641260000000  0.5478800000000 1.0
C      1  0.5698330000000  0.4891850000000  0.5551590000000 1.0
C      1  0.5194990000000  0.3988170000000  0.4905680000000 1.0
C      1  0.6099940000000  0.4743680000000  0.4624260000000 1.0
C      1  0.3969080000000  0.4963730000000  0.5210600000000 1.0
C      1  0.5824150000000  0.5190360000000  0.5452090000000 1.0
C      1  0.5065630000000  0.5401470000000  0.5515550000000 1.0
C      1  0.5238210000000  0.4958050000000  0.3953300000000 1.0
C      1  0.5270310000000  0.5943720000000  0.5358340000000 1.0
C      1  0.4471250000000  0.4434950000000  0.5239240000000 1.0
C      1  0.4249420000000  0.5241190000000  0.3982630000000 1.0
C      1  0.4315220000000  0.5380990000000  0.5355390000000 1.0
C      1  0.5744240000000  0.5188120000000  0.5114480000000 1.0
C      1  0.4058460000000  0.5247760000000  0.5081200000000 1.0
C      1  0.5040470000000  0.4716320000000  0.5167310000000 1.0
C      1  0.3626010000000  0.4838570000000  0.4825910000000 1.0
C      1  0.4209820000000  0.5277490000000  0.5902740000000 1.0
C      1  0.4356210000000  0.5115480000000  0.4983780000000 1.0
C      1  0.5284340000000  0.5003260000000  0.4357950000000 1.0
C      1  0.4777610000000  0.6010850000000  0.5374310000000 1.0
C      1  0.4950160000000  0.4977740000000  0.5308800000000 1.0
C      1  0.4826680000000  0.5979000000000  0.5649520000000 1.0
C      1  0.5277220000000  0.4773570000000  0.5930410000000 1.0
C      1  0.5502340000000  0.4409050000000  0.5569110000000 1.0
C      1  0.5389570000000  0.4797860000000  0.4605890000000 1.0
C      1  0.5142160000000  0.3894200000000  0.5548750000000 1.0
C      1  0.5707240000000  0.4338740000000  0.4098050000000 1.0
C      1  0.6024120000000  0.5207730000000  0.4646610000000 1.0
C      1  0.5702250000000  0.4165690000000  0.5381680000000 1.0
C      1  0.5207260000000  0.3764710000000  0.4715160000000 1.0
C      1  0.5408760000000  0.5795070000000  0.5598440000000 1.0
C      1  0.5153050000000  0.4131720000000  0.4206810000000 1.0
C      1  0.4717470000000  0.5170190000000  0.5289380000000 1.0
C      1  0.4606050000000  0.4797690000000  0.3641850000000 1.0
C      1  0.4667140000000  0.4338420000000  0.5573440000000 1.0
C      1  0.4927510000000  0.5656490000000  0.5687260000000 1.0
C      1  0.4750060000000  0.5634480000000  0.4254620000000 1.0
C      1  0.4926780000000  0.4970490000000  0.6214350000000 1.0
C      1  0.4989780000000  0.5822970000000  0.4948890000000 1.0
C      1  0.4946030000000  0.5121360000000  0.5611760000000 1.0
C      1  0.4494110000000  0.5494820000000  0.4725300000000 1.0
C      1  0.4717500000000  0.4301680000000  0.4554070000000 1.0
C      1  0.5910180000000  0.4950240000000  0.4478700000000 1.0
C      1  0.4765150000000  0.4939930000000  0.4545500000000 1.0
C      1  0.6190780000000  0.4983680000000  0.5089150000000 1.0
C      1  0.4745120000000  0.4744050000000  0.5057240000000 1.0
C      1  0.4722470000000  0.4689790000000  0.5940290000000 1.0
C      1  0.4417220000000  0.5686770000000  0.5640190000000 1.0
C      1  0.5481910000000  0.4764280000000  0.4218250000000 1.0
C      1  0.5219330000000  0.6002180000000  0.4768190000000 1.0
C      1  0.4197630000000  0.5716630000000  0.5173640000000 1.0
C      1  0.5493490000000  0.6085480000000  0.4846980000000 1.0
C      1  0.3905180000000  0.4939620000000  0.4878700000000 1.0
C      1  0.5404790000000  0.4091280000000  0.5497040000000 1.0
C      1  0.4421700000000  0.5060830000000  0.5313090000000 1.0
C      1  0.4905330000000  0.3905010000000  0.5664940000000 1.0
C      1  0.4058800000000  0.5069700000000  0.4600510000000 1.0
C      1  0.4607960000000  0.4926590000000  0.6133660000000 1.0
C      1  0.5174990000000  0.5466690000000  0.4481860000000 1.0
C      1  0.4027570000000  0.4672200000000  0.4600110000000 1.0
C      1  0.4785650000000  0.4831210000000  0.5641500000000 1.0
C      1  0.5473850000000  0.4478140000000  0.4130470000000 1.0
C      1  0.5289870000000  0.5253670000000  0.6012070000000 1.0
C      1  0.4720100000000  0.4918150000000  0.3865740000000 1.0
C      1  0.5020710000000  0.5974550000000  0.5233620000000 1.0
C      1  0.5695580000000  0.5644560000000  0.5490160000000 1.0
C      1  0.4706580000000  0.5236880000000  0.4256230000000 1.0
C      1  0.6022580000000  0.5202760000000  0.4957540000000 1.0
C      1  0.4739620000000  0.4277390000000  0.5102010000000 1.0
C      1  0.4962970000000  0.4396590000000  0.5512000000000 1.0
C      1  0.5420300000000  0.5620480000000  0.4380530000000 1.0
C      1  0.5175490000000  0.5011350000000  0.6099060000000 1.0
C      1  0.4489630000000  0.5852370000000  0.5284420000000 1.0
C      1  0.4420990000000  0.5144570000000  0.5988370000000 1.0
C      1  0.5556560000000  0.4958190000000  0.3954580000000 1.0
C      1  0.4923430000000  0.4593520000000  0.4374630000000 1.0
C      1  0.5606760000000  0.5647750000000  0.4580440000000 1.0
C      1  0.5192540000000  0.5202670000000  0.4134890000000 1.0
C      1  0.6174890000000  0.4751830000000  0.4944990000000 1.0
C      1  0.4463920000000  0.5584540000000  0.4332780000000 1.0
C      1  0.4388130000000  0.4751210000000  0.5933050000000 1.0
C      1  0.5470770000000  0.5221730000000  0.5800280000000 1.0
END
