TITL C-2848499-1157-382 -0.00100994117295417 125000 -537.260979273437 0 0 102 (C1) n - 1
REM
REM in /home/bkarasulu/work/CARBON/AIRSS/Generating-Clusters/AIREBO/with-SteepDescent/Only-C1/SD-CG-opt/Try1-1.4A-POS3A/HFTN-CG
REM
REM
REM
REM
REM
REM ./C.cell (11c1c37f851c82e70ff6c80c92926a4b)
REM
REM compiler GCC version 9.2.1 20190827 (Red Hat 9.2.1-1)
REM options -cpp -mtune=generic -march=x86-64 -g -O0 -fpre-include=/usr/include/finclude/math-vector-fortran.h
REM seed -758409317 874327160 1631068317 -1987863966 485201927 -2072853321 -2127361136 -89753001 -1407454832 293159749 -243797711 162032609 650760020 403695789 -2051344675 174423469 -896365790 -608056726 -1277868232 -1756199291 1519927217 1165398096 556973022 -1902466541 1413304437 -438087004 -1253903780 1593726765 2105039110 -1825387557 -2042084633 1077153187 408302139
REM
CELL 1.54180   50.00000   50.00000   50.00000   90.00000   90.00000   90.00000
LATT -1
SFAC C  
C      1  0.4527060000000  0.5273350000000  0.4340390000000 1.0
C      1  0.4596500000000  0.4409850000000  0.5746710000000 1.0
C      1  0.4738280000000  0.4820900000000  0.5212540000000 1.0
C      1  0.4857180000000  0.5458630000000  0.5015750000000 1.0
C      1  0.4763850000000  0.5536760000000  0.5583050000000 1.0
C      1  0.5082630000000  0.5330640000000  0.6044990000000 1.0
C      1  0.4483580000000  0.4290680000000  0.4620140000000 1.0
C      1  0.4697780000000  0.4708710000000  0.4761730000000 1.0
C      1  0.4325590000000  0.4720560000000  0.4407350000000 1.0
C      1  0.4871040000000  0.5211570000000  0.4783270000000 1.0
C      1  0.4693510000000  0.5719310000000  0.5113960000000 1.0
C      1  0.5635050000000  0.5038400000000  0.5545510000000 1.0
C      1  0.5708180000000  0.4526170000000  0.5482050000000 1.0
C      1  0.4269020000000  0.4478550000000  0.4579110000000 1.0
C      1  0.4369050000000  0.5616150000000  0.5082580000000 1.0
C      1  0.5567600000000  0.5020000000000  0.4932390000000 1.0
C      1  0.5694860000000  0.5739020000000  0.5195410000000 1.0
C      1  0.5001260000000  0.5029050000000  0.4134160000000 1.0
C      1  0.5267150000000  0.5038900000000  0.5847310000000 1.0
C      1  0.4593400000000  0.4734960000000  0.4315910000000 1.0
C      1  0.5045480000000  0.5804810000000  0.4748540000000 1.0
C      1  0.4309210000000  0.5238520000000  0.4526940000000 1.0
C      1  0.4497170000000  0.5346660000000  0.5545870000000 1.0
C      1  0.4816060000000  0.5428450000000  0.4284310000000 1.0
C      1  0.5347120000000  0.4854350000000  0.4760340000000 1.0
C      1  0.5405680000000  0.5154290000000  0.4253680000000 1.0
C      1  0.5030300000000  0.4451010000000  0.5907560000000 1.0
C      1  0.4186750000000  0.4597790000000  0.4831960000000 1.0
C      1  0.4963920000000  0.5048380000000  0.5975470000000 1.0
C      1  0.5827930000000  0.4630740000000  0.4758010000000 1.0
C      1  0.4761640000000  0.4913420000000  0.5735730000000 1.0
C      1  0.4150400000000  0.5030690000000  0.5085440000000 1.0
C      1  0.5137250000000  0.4753580000000  0.5183510000000 1.0
C      1  0.5327240000000  0.5401030000000  0.4943010000000 1.0
C      1  0.5183220000000  0.5523920000000  0.4659520000000 1.0
C      1  0.4763120000000  0.5148040000000  0.5283230000000 1.0
C      1  0.5148200000000  0.5380090000000  0.4353270000000 1.0
C      1  0.5342620000000  0.5440260000000  0.4080760000000 1.0
C      1  0.5145340000000  0.5052970000000  0.5336600000000 1.0
C      1  0.5478020000000  0.5636330000000  0.3954950000000 1.0
C      1  0.4714570000000  0.5019760000000  0.4285710000000 1.0
C      1  0.4430410000000  0.4926190000000  0.4982940000000 1.0
C      1  0.4972020000000  0.5841460000000  0.5008460000000 1.0
C      1  0.4336920000000  0.5402060000000  0.4794770000000 1.0
C      1  0.5664190000000  0.4772010000000  0.5672110000000 1.0
C      1  0.5185960000000  0.5838780000000  0.5197530000000 1.0
C      1  0.4930580000000  0.5248720000000  0.5513380000000 1.0
C      1  0.5275240000000  0.5436110000000  0.5882450000000 1.0
C      1  0.5700270000000  0.4614120000000  0.5196410000000 1.0
C      1  0.5195170000000  0.4787930000000  0.4014680000000 1.0
C      1  0.5065150000000  0.5287650000000  0.3974110000000 1.0
C      1  0.5266950000000  0.4257880000000  0.4358880000000 1.0
C      1  0.4461540000000  0.4614730000000  0.4988240000000 1.0
C      1  0.5121740000000  0.4477430000000  0.4470480000000 1.0
C      1  0.5376970000000  0.5480000000000  0.5558310000000 1.0
C      1  0.5350710000000  0.4880840000000  0.4259240000000 1.0
C      1  0.4851270000000  0.5492540000000  0.4592840000000 1.0
C      1  0.5472360000000  0.5090740000000  0.5251340000000 1.0
C      1  0.4475330000000  0.4685570000000  0.5314160000000 1.0
C      1  0.5493260000000  0.5228730000000  0.5724110000000 1.0
C      1  0.4706020000000  0.4628190000000  0.5557600000000 1.0
C      1  0.4885870000000  0.4613460000000  0.5006770000000 1.0
C      1  0.4207750000000  0.5408260000000  0.5382700000000 1.0
C      1  0.4476560000000  0.5094640000000  0.5711610000000 1.0
C      1  0.4205320000000  0.4967810000000  0.4549850000000 1.0
C      1  0.4183730000000  0.5331080000000  0.5087620000000 1.0
C      1  0.5156390000000  0.4581730000000  0.5660830000000 1.0
C      1  0.5730990000000  0.4370450000000  0.4813170000000 1.0
C      1  0.4677440000000  0.4123730000000  0.5032590000000 1.0
C      1  0.5258090000000  0.4368770000000  0.5255170000000 1.0
C      1  0.5435370000000  0.5552330000000  0.5228320000000 1.0
C      1  0.5096800000000  0.5350960000000  0.5166930000000 1.0
C      1  0.5203150000000  0.5140110000000  0.4769290000000 1.0
C      1  0.5030010000000  0.4405310000000  0.4779370000000 1.0
C      1  0.5684880000000  0.5335500000000  0.5148510000000 1.0
C      1  0.5977820000000  0.5546580000000  0.4723370000000 1.0
C      1  0.5837370000000  0.5441750000000  0.4908950000000 1.0
C      1  0.5521370000000  0.4377070000000  0.5039980000000 1.0
C      1  0.5085010000000  0.4892520000000  0.5630440000000 1.0
C      1  0.5086730000000  0.5543430000000  0.5447100000000 1.0
C      1  0.4745520000000  0.4435390000000  0.4595600000000 1.0
C      1  0.5065380000000  0.5070080000000  0.4465740000000 1.0
C      1  0.4848380000000  0.4383220000000  0.4027140000000 1.0
C      1  0.4505470000000  0.4085680000000  0.4816570000000 1.0
C      1  0.5112530000000  0.5880980000000  0.5478750000000 1.0
C      1  0.4611980000000  0.5515420000000  0.4787060000000 1.0
C      1  0.4787370000000  0.4328000000000  0.5163090000000 1.0
C      1  0.4827400000000  0.4512130000000  0.4299880000000 1.0
C      1  0.5395760000000  0.4682700000000  0.5049800000000 1.0
C      1  0.5860840000000  0.5103500000000  0.5325280000000 1.0
C      1  0.4244600000000  0.4871780000000  0.5370610000000 1.0
C      1  0.5809540000000  0.4869650000000  0.4909280000000 1.0
C      1  0.5923280000000  0.4864310000000  0.5179040000000 1.0
C      1  0.4250720000000  0.4956080000000  0.5630530000000 1.0
C      1  0.5815990000000  0.4136300000000  0.4701840000000 1.0
C      1  0.4974810000000  0.4506880000000  0.5383290000000 1.0
C      1  0.4082400000000  0.4868520000000  0.4801470000000 1.0
C      1  0.5301800000000  0.4730970000000  0.4490130000000 1.0
C      1  0.4781410000000  0.4941930000000  0.4601900000000 1.0
C      1  0.4522080000000  0.5650500000000  0.5384580000000 1.0
C      1  0.4691700000000  0.5067530000000  0.4995170000000 1.0
C      1  0.5444530000000  0.4544050000000  0.5649950000000 1.0
END
