TITL C-2847953-8112-473 -0.00202006955917597 125000 -729.857225591202 0 0 133 (C1) n - 1
REM
REM in /home/bkarasulu/work/CARBON/AIRSS/Generating-Clusters/AIREBO/with-SteepDescent/Only-C1/SD-CG-opt/Try1-1.4A-POS3A/HFTN-CG
REM
REM
REM
REM
REM
REM ./C.cell (11c1c37f851c82e70ff6c80c92926a4b)
REM
REM compiler GCC version 9.2.1 20190827 (Red Hat 9.2.1-1)
REM options -cpp -mtune=generic -march=x86-64 -g -O0 -fpre-include=/usr/include/finclude/math-vector-fortran.h
REM seed -338189120 -1014752634 1763563367 455075206 -1981120201 1453584569 -78366560 2056256238 1718399373 1330820517 1407160213 -302764983 -564824788 733862059 1416943418 1255173954 -849527343 405842554 454866268 -398958479 -1316172925 -895174132 118286173 49823825 -1956571121 1006553953 -922562741 -1780931147 1939525121 1949661194 -1032659735 -413231245 1591061794
REM
CELL 1.54180   50.00000   50.00000   50.00000   90.00000   90.00000   90.00000
LATT -1
SFAC C  
C      1  0.4757560000000  0.4022000000000  0.4390100000000 1.0
C      1  0.4234430000000  0.4606240000000  0.5587760000000 1.0
C      1  0.4618650000000  0.5309940000000  0.5565710000000 1.0
C      1  0.4309620000000  0.4622430000000  0.4255750000000 1.0
C      1  0.5233350000000  0.4622170000000  0.5862800000000 1.0
C      1  0.4691200000000  0.5173860000000  0.6070350000000 1.0
C      1  0.5754240000000  0.5135160000000  0.5013450000000 1.0
C      1  0.5512840000000  0.5523880000000  0.5709110000000 1.0
C      1  0.4931940000000  0.5339100000000  0.5628640000000 1.0
C      1  0.5094390000000  0.4368930000000  0.5215180000000 1.0
C      1  0.5265800000000  0.5927190000000  0.5423450000000 1.0
C      1  0.5649710000000  0.5033230000000  0.4463260000000 1.0
C      1  0.5066790000000  0.4738560000000  0.4832770000000 1.0
C      1  0.4610820000000  0.5336420000000  0.5234340000000 1.0
C      1  0.5157270000000  0.5511770000000  0.4098250000000 1.0
C      1  0.5525800000000  0.4961620000000  0.5163180000000 1.0
C      1  0.4666440000000  0.4998800000000  0.4325240000000 1.0
C      1  0.4973570000000  0.4187820000000  0.4439450000000 1.0
C      1  0.4451170000000  0.4492960000000  0.5348710000000 1.0
C      1  0.5102450000000  0.5172840000000  0.5162140000000 1.0
C      1  0.4220500000000  0.5118080000000  0.4474100000000 1.0
C      1  0.5665070000000  0.4271100000000  0.4666230000000 1.0
C      1  0.4584910000000  0.4766000000000  0.5501320000000 1.0
C      1  0.4571130000000  0.5913170000000  0.4906350000000 1.0
C      1  0.5284980000000  0.4562740000000  0.5010930000000 1.0
C      1  0.5117260000000  0.5142650000000  0.5463910000000 1.0
C      1  0.5202900000000  0.4857230000000  0.5618890000000 1.0
C      1  0.5539250000000  0.4015370000000  0.5106360000000 1.0
C      1  0.5480560000000  0.4325720000000  0.4464330000000 1.0
C      1  0.4464130000000  0.4032210000000  0.4764400000000 1.0
C      1  0.4731440000000  0.5958570000000  0.5626150000000 1.0
C      1  0.6059530000000  0.4930830000000  0.5170540000000 1.0
C      1  0.4538680000000  0.5091900000000  0.5790720000000 1.0
C      1  0.5276010000000  0.5577410000000  0.4769030000000 1.0
C      1  0.4027150000000  0.4580130000000  0.4839330000000 1.0
C      1  0.5374330000000  0.4492450000000  0.5617560000000 1.0
C      1  0.5475760000000  0.5488840000000  0.5207450000000 1.0
C      1  0.4146070000000  0.5327770000000  0.4823030000000 1.0
C      1  0.4478890000000  0.5056990000000  0.4918940000000 1.0
C      1  0.5813580000000  0.4965660000000  0.5481430000000 1.0
C      1  0.5781070000000  0.4510690000000  0.4760410000000 1.0
C      1  0.5393470000000  0.4869330000000  0.4370410000000 1.0
C      1  0.5901710000000  0.5349350000000  0.5411980000000 1.0
C      1  0.4502030000000  0.4093410000000  0.4487290000000 1.0
C      1  0.4777200000000  0.5817230000000  0.5157600000000 1.0
C      1  0.5678660000000  0.5718350000000  0.5048580000000 1.0
C      1  0.4977430000000  0.4678130000000  0.4510280000000 1.0
C      1  0.4942630000000  0.4919730000000  0.3915080000000 1.0
C      1  0.4649270000000  0.5883230000000  0.4609560000000 1.0
C      1  0.5213860000000  0.5847350000000  0.5906830000000 1.0
C      1  0.4698160000000  0.4597600000000  0.4872030000000 1.0
C      1  0.4243960000000  0.4442390000000  0.4766350000000 1.0
C      1  0.4843200000000  0.4411610000000  0.5773060000000 1.0
C      1  0.4888930000000  0.5719520000000  0.3757390000000 1.0
C      1  0.5723310000000  0.5589570000000  0.4757910000000 1.0
C      1  0.5053830000000  0.5594150000000  0.5494450000000 1.0
C      1  0.4954240000000  0.4735730000000  0.5143570000000 1.0
C      1  0.4971340000000  0.4614150000000  0.5562200000000 1.0
C      1  0.4072310000000  0.5071300000000  0.4730090000000 1.0
C      1  0.4647390000000  0.5332800000000  0.4337160000000 1.0
C      1  0.4357800000000  0.5488100000000  0.5527940000000 1.0
C      1  0.4780640000000  0.5615800000000  0.4746850000000 1.0
C      1  0.5526370000000  0.4701180000000  0.5445480000000 1.0
C      1  0.5026890000000  0.5682060000000  0.4970510000000 1.0
C      1  0.5310650000000  0.5322230000000  0.4204460000000 1.0
C      1  0.4387960000000  0.4327970000000  0.4387280000000 1.0
C      1  0.5168680000000  0.5083120000000  0.5871110000000 1.0
C      1  0.4200490000000  0.5426180000000  0.5341030000000 1.0
C      1  0.3951110000000  0.4905520000000  0.5185330000000 1.0
C      1  0.5329640000000  0.5269860000000  0.4730220000000 1.0
C      1  0.4665120000000  0.4677010000000  0.5803680000000 1.0
C      1  0.5266700000000  0.4965320000000  0.4977170000000 1.0
C      1  0.4860980000000  0.5403490000000  0.4550270000000 1.0
C      1  0.5491950000000  0.5022960000000  0.5549980000000 1.0
C      1  0.5548830000000  0.5401460000000  0.5948430000000 1.0
C      1  0.4320320000000  0.5279960000000  0.5089730000000 1.0
C      1  0.4330700000000  0.4882000000000  0.5687390000000 1.0
C      1  0.4617040000000  0.5838480000000  0.4332970000000 1.0
C      1  0.5332030000000  0.4411630000000  0.4197540000000 1.0
C      1  0.5609970000000  0.5325260000000  0.4257260000000 1.0
C      1  0.5073930000000  0.3948500000000  0.5188360000000 1.0
C      1  0.5052690000000  0.4431980000000  0.4285120000000 1.0
C      1  0.5345780000000  0.6179710000000  0.5244860000000 1.0
C      1  0.5234580000000  0.4733080000000  0.5298920000000 1.0
C      1  0.4914140000000  0.5612570000000  0.4003520000000 1.0
C      1  0.5915000000000  0.5219860000000  0.4485740000000 1.0
C      1  0.5533130000000  0.4999780000000  0.4768510000000 1.0
C      1  0.4847850000000  0.5813430000000  0.5442990000000 1.0
C      1  0.5700010000000  0.4729260000000  0.4892910000000 1.0
C      1  0.5191120000000  0.5939460000000  0.5110790000000 1.0
C      1  0.5433440000000  0.4669200000000  0.4121880000000 1.0
C      1  0.4955800000000  0.4755430000000  0.5933660000000 1.0
C      1  0.4357570000000  0.4914480000000  0.4325190000000 1.0
C      1  0.5111340000000  0.4339340000000  0.4667900000000 1.0
C      1  0.5760620000000  0.5323930000000  0.4018930000000 1.0
C      1  0.4101530000000  0.4857390000000  0.4949320000000 1.0
C      1  0.4791470000000  0.5088400000000  0.4784640000000 1.0
C      1  0.4937990000000  0.5139850000000  0.6114360000000 1.0
C      1  0.4354180000000  0.4235860000000  0.5201340000000 1.0
C      1  0.4428780000000  0.4603530000000  0.4566380000000 1.0
C      1  0.4311130000000  0.4011020000000  0.5354610000000 1.0
C      1  0.5443040000000  0.5151710000000  0.5990140000000 1.0
C      1  0.5570770000000  0.5362490000000  0.4929140000000 1.0
C      1  0.4450240000000  0.5550650000000  0.4699140000000 1.0
C      1  0.4664720000000  0.4859520000000  0.5212940000000 1.0
C      1  0.4930080000000  0.4977750000000  0.4169430000000 1.0
C      1  0.5987020000000  0.5210670000000  0.5192780000000 1.0
C      1  0.5163960000000  0.5486560000000  0.5212620000000 1.0
C      1  0.4931260000000  0.4370310000000  0.4916810000000 1.0
C      1  0.4322230000000  0.4220810000000  0.4916200000000 1.0
C      1  0.5638100000000  0.4068120000000  0.4858450000000 1.0
C      1  0.5772420000000  0.5489780000000  0.4506940000000 1.0
C      1  0.5291310000000  0.5725610000000  0.5663170000000 1.0
C      1  0.5168070000000  0.5077500000000  0.4332040000000 1.0
C      1  0.4680480000000  0.3917410000000  0.4900620000000 1.0
C      1  0.5431290000000  0.6425900000000  0.5226260000000 1.0
C      1  0.4380690000000  0.5364100000000  0.4488710000000 1.0
C      1  0.4690880000000  0.4814460000000  0.4610090000000 1.0
C      1  0.4860230000000  0.5019980000000  0.5742510000000 1.0
C      1  0.4697740000000  0.5605670000000  0.4185130000000 1.0
C      1  0.4789130000000  0.4490450000000  0.5302900000000 1.0
C      1  0.4424760000000  0.4759520000000  0.4993800000000 1.0
C      1  0.4881550000000  0.4065530000000  0.5025290000000 1.0
C      1  0.4520430000000  0.5625300000000  0.5085680000000 1.0
C      1  0.5320750000000  0.4045990000000  0.5280310000000 1.0
C      1  0.5780210000000  0.4744090000000  0.5223200000000 1.0
C      1  0.5303270000000  0.4594440000000  0.4549650000000 1.0
C      1  0.5583740000000  0.5344420000000  0.5478030000000 1.0
C      1  0.5286440000000  0.4283840000000  0.5456230000000 1.0
C      1  0.4816260000000  0.5133080000000  0.5106810000000 1.0
C      1  0.4233520000000  0.5623660000000  0.4913250000000 1.0
C      1  0.5062870000000  0.5184740000000  0.4603220000000 1.0
C      1  0.5912370000000  0.4474960000000  0.5281100000000 1.0
END
