TITL C-2848503-6230-202 0.00118861452063507 125000 -705.747074068943 0 0 129 (C1) n - 1
REM
REM in /home/bkarasulu/work/CARBON/AIRSS/Generating-Clusters/AIREBO/with-SteepDescent/Only-C1/SD-CG-opt/Try1-1.4A-POS3A/HFTN-CG
REM
REM
REM
REM
REM
REM ./C.cell (11c1c37f851c82e70ff6c80c92926a4b)
REM
REM compiler GCC version 9.2.1 20190827 (Red Hat 9.2.1-1)
REM options -cpp -mtune=generic -march=x86-64 -g -O0 -fpre-include=/usr/include/finclude/math-vector-fortran.h
REM seed -1280022091 496391085 -1015577343 -226463724 -1156677877 52457602 -1488291686 1148512991 -84933395 376466440 438329171 132286833 822215279 -623848931 -1645585366 -696142847 755763456 1544956361 -510114734 1494322392 -918731607 1533829869 -1829585600 -1611643743 -1907562005 -236852814 1466727902 1494166866 404368498 -401942430 -850117464 -563158264 480627438
REM
CELL 1.54180   50.00000   50.00000   50.00000   90.00000   90.00000   90.00000
LATT -1
SFAC C  
C      1  0.5055590000000  0.4188290000000  0.5696490000000 1.0
C      1  0.4844320000000  0.4706210000000  0.4287060000000 1.0
C      1  0.4869060000000  0.5380520000000  0.6132980000000 1.0
C      1  0.4664350000000  0.5973540000000  0.4380420000000 1.0
C      1  0.4751610000000  0.4235000000000  0.4449020000000 1.0
C      1  0.5021630000000  0.4194450000000  0.4834480000000 1.0
C      1  0.4359910000000  0.4434600000000  0.5712190000000 1.0
C      1  0.5202290000000  0.4749270000000  0.4977590000000 1.0
C      1  0.4801370000000  0.5901690000000  0.5805420000000 1.0
C      1  0.4769740000000  0.4049560000000  0.4982550000000 1.0
C      1  0.5108310000000  0.4691660000000  0.4687890000000 1.0
C      1  0.5514000000000  0.5427700000000  0.5718750000000 1.0
C      1  0.5434060000000  0.5452900000000  0.4648780000000 1.0
C      1  0.5522830000000  0.4332820000000  0.5192550000000 1.0
C      1  0.4961920000000  0.4827280000000  0.5418770000000 1.0
C      1  0.4770840000000  0.4838190000000  0.5698330000000 1.0
C      1  0.5729880000000  0.5286260000000  0.4216450000000 1.0
C      1  0.4419770000000  0.5163730000000  0.5579220000000 1.0
C      1  0.4857550000000  0.5728370000000  0.5620330000000 1.0
C      1  0.4932180000000  0.5272920000000  0.5037740000000 1.0
C      1  0.4464680000000  0.4763500000000  0.5826240000000 1.0
C      1  0.4190750000000  0.4368810000000  0.5155910000000 1.0
C      1  0.5253420000000  0.4699520000000  0.4030810000000 1.0
C      1  0.4813950000000  0.4801220000000  0.5134450000000 1.0
C      1  0.5421930000000  0.6015290000000  0.4454790000000 1.0
C      1  0.5033560000000  0.4768660000000  0.5892620000000 1.0
C      1  0.4867070000000  0.4429060000000  0.5768160000000 1.0
C      1  0.5198560000000  0.5950550000000  0.4967590000000 1.0
C      1  0.4862040000000  0.5735380000000  0.5224310000000 1.0
C      1  0.5254320000000  0.4984340000000  0.5822610000000 1.0
C      1  0.4755700000000  0.5104460000000  0.4722270000000 1.0
C      1  0.4733870000000  0.5173320000000  0.5697940000000 1.0
C      1  0.6204130000000  0.4636710000000  0.4798300000000 1.0
C      1  0.4552530000000  0.4573410000000  0.4376970000000 1.0
C      1  0.5805410000000  0.5095870000000  0.5035140000000 1.0
C      1  0.4490730000000  0.4220580000000  0.5074830000000 1.0
C      1  0.4340920000000  0.4315620000000  0.4799280000000 1.0
C      1  0.5777080000000  0.4700780000000  0.5342700000000 1.0
C      1  0.5653860000000  0.5296000000000  0.5463720000000 1.0
C      1  0.5189280000000  0.6187360000000  0.4517980000000 1.0
C      1  0.4650860000000  0.5504370000000  0.4371790000000 1.0
C      1  0.5440970000000  0.5058320000000  0.5345480000000 1.0
C      1  0.4082180000000  0.5066080000000  0.4697510000000 1.0
C      1  0.5459810000000  0.5695800000000  0.4442330000000 1.0
C      1  0.5188510000000  0.4389040000000  0.4374260000000 1.0
C      1  0.5185080000000  0.4477980000000  0.5821490000000 1.0
C      1  0.4256220000000  0.5353890000000  0.4778400000000 1.0
C      1  0.4898620000000  0.5164540000000  0.4053330000000 1.0
C      1  0.5485230000000  0.4824940000000  0.5683490000000 1.0
C      1  0.5387250000000  0.4619270000000  0.4518410000000 1.0
C      1  0.4578370000000  0.5389860000000  0.4675340000000 1.0
C      1  0.4655420000000  0.4540320000000  0.5581430000000 1.0
C      1  0.4619240000000  0.5776600000000  0.5052240000000 1.0
C      1  0.5498820000000  0.5233810000000  0.4088050000000 1.0
C      1  0.5339330000000  0.4150650000000  0.4739250000000 1.0
C      1  0.4672740000000  0.4206780000000  0.5361690000000 1.0
C      1  0.5340300000000  0.4016740000000  0.4997790000000 1.0
C      1  0.4703500000000  0.5058040000000  0.5052280000000 1.0
C      1  0.5015130000000  0.4231440000000  0.4520540000000 1.0
C      1  0.4674750000000  0.5464630000000  0.5520600000000 1.0
C      1  0.4118700000000  0.4471840000000  0.5396800000000 1.0
C      1  0.5152820000000  0.5315050000000  0.4695470000000 1.0
C      1  0.5169300000000  0.5211990000000  0.4033190000000 1.0
C      1  0.5117200000000  0.4570520000000  0.5362230000000 1.0
C      1  0.4346030000000  0.5776840000000  0.5085830000000 1.0
C      1  0.5606180000000  0.4478420000000  0.5412950000000 1.0
C      1  0.5835080000000  0.5306280000000  0.4773360000000 1.0
C      1  0.5334910000000  0.5831290000000  0.4710470000000 1.0
C      1  0.4930980000000  0.5313620000000  0.5888180000000 1.0
C      1  0.5796600000000  0.5154430000000  0.4499510000000 1.0
C      1  0.4168450000000  0.4988760000000  0.5457620000000 1.0
C      1  0.5786620000000  0.5509000000000  0.5288470000000 1.0
C      1  0.5076440000000  0.4555390000000  0.4178370000000 1.0
C      1  0.4252560000000  0.5219620000000  0.4472850000000 1.0
C      1  0.5718430000000  0.4965420000000  0.5511830000000 1.0
C      1  0.4210440000000  0.5487340000000  0.5037940000000 1.0
C      1  0.5487410000000  0.4385740000000  0.4724670000000 1.0
C      1  0.5442930000000  0.4903650000000  0.5073170000000 1.0
C      1  0.5364820000000  0.4557250000000  0.5574150000000 1.0
C      1  0.5015230000000  0.5096340000000  0.4502590000000 1.0
C      1  0.4678160000000  0.4523990000000  0.5269790000000 1.0
C      1  0.5213140000000  0.5295520000000  0.5786040000000 1.0
C      1  0.5045270000000  0.4456490000000  0.5049940000000 1.0
C      1  0.5291900000000  0.5409670000000  0.5166970000000 1.0
C      1  0.4797580000000  0.4783160000000  0.4618730000000 1.0
C      1  0.4740230000000  0.4915820000000  0.4058590000000 1.0
C      1  0.4121440000000  0.4531670000000  0.4874910000000 1.0
C      1  0.4861490000000  0.3895070000000  0.5199790000000 1.0
C      1  0.4510930000000  0.4718580000000  0.4073450000000 1.0
C      1  0.5958830000000  0.4751830000000  0.4760340000000 1.0
C      1  0.5136010000000  0.5724280000000  0.5425500000000 1.0
C      1  0.4479660000000  0.5126700000000  0.5242060000000 1.0
C      1  0.4460190000000  0.4803270000000  0.4581720000000 1.0
C      1  0.4417820000000  0.5452100000000  0.5305070000000 1.0
C      1  0.5273790000000  0.5436870000000  0.5482330000000 1.0
C      1  0.4937050000000  0.5504090000000  0.4808330000000 1.0
C      1  0.4581670000000  0.4408980000000  0.4653160000000 1.0
C      1  0.4595870000000  0.5736650000000  0.4257140000000 1.0
C      1  0.5188790000000  0.5018110000000  0.5500110000000 1.0
C      1  0.4915310000000  0.5413630000000  0.5298980000000 1.0
C      1  0.5502290000000  0.5132000000000  0.4636460000000 1.0
C      1  0.5603020000000  0.4461020000000  0.4957880000000 1.0
C      1  0.5855680000000  0.4848670000000  0.4517660000000 1.0
C      1  0.4792290000000  0.5943360000000  0.4627610000000 1.0
C      1  0.5343910000000  0.4961590000000  0.4156560000000 1.0
C      1  0.4489280000000  0.4177450000000  0.5592760000000 1.0
C      1  0.5210210000000  0.4210300000000  0.5216880000000 1.0
C      1  0.4701000000000  0.5693030000000  0.4770760000000 1.0
C      1  0.4271680000000  0.4836520000000  0.4861830000000 1.0
C      1  0.5114870000000  0.5037380000000  0.4883730000000 1.0
C      1  0.5363320000000  0.5864730000000  0.5239770000000 1.0
C      1  0.4990670000000  0.4097430000000  0.5420400000000 1.0
C      1  0.5682000000000  0.4686100000000  0.4381950000000 1.0
C      1  0.4771450000000  0.4571610000000  0.4883910000000 1.0
C      1  0.4443670000000  0.5439420000000  0.5768830000000 1.0
C      1  0.4739090000000  0.5203330000000  0.4335500000000 1.0
C      1  0.5018330000000  0.6073640000000  0.4716760000000 1.0
C      1  0.5619890000000  0.5535190000000  0.4915170000000 1.0
C      1  0.5748720000000  0.4761610000000  0.5009390000000 1.0
C      1  0.4260300000000  0.4723520000000  0.5563140000000 1.0
C      1  0.4206030000000  0.4994540000000  0.5125740000000 1.0
C      1  0.4473180000000  0.4620730000000  0.5030470000000 1.0
C      1  0.4116620000000  0.5280690000000  0.5291110000000 1.0
C      1  0.5315620000000  0.4948120000000  0.4468670000000 1.0
C      1  0.5496910000000  0.5222790000000  0.4969020000000 1.0
C      1  0.4477000000000  0.5063120000000  0.4408210000000 1.0
C      1  0.5121710000000  0.5626360000000  0.5033780000000 1.0
C      1  0.5597250000000  0.5713150000000  0.5178450000000 1.0
C      1  0.5950440000000  0.5388830000000  0.5085700000000 1.0
END
