TITL C-2848504-8560-280 -0.00115540152854607 125000 -161.419228084602 0 0 32 (C1) n - 1
REM
REM in /home/bkarasulu/work/CARBON/AIRSS/Generating-Clusters/AIREBO/with-SteepDescent/Only-C1/SD-CG-opt/Try1-1.4A-POS3A/HFTN-CG
REM
REM
REM
REM
REM
REM ./C.cell (11c1c37f851c82e70ff6c80c92926a4b)
REM
REM compiler GCC version 9.2.1 20190827 (Red Hat 9.2.1-1)
REM options -cpp -mtune=generic -march=x86-64 -g -O0 -fpre-include=/usr/include/finclude/math-vector-fortran.h
REM seed -271320089 1975077916 -447542734 -222244857 562785610 561914155 -316117146 1021823847 1934954544 1766448443 -360901239 734269027 -788657379 -1167948792 527527544 -998737409 -39185992 296203242 -1987051780 -1963928387 1516308800 -1966131682 -918364679 -1373556755 11884211 -1900461113 1149952244 -1341477901 -724685257 1168248749 -184488754 -282227639 -1698311141
REM
CELL 1.54180   50.00000   50.00000   50.00000   90.00000   90.00000   90.00000
LATT -1
SFAC C  
C      1  0.4550060000000  0.4950440000000  0.5165460000000 1.0
C      1  0.5151500000000  0.4743020000000  0.4583120000000 1.0
C      1  0.4608450000000  0.4804270000000  0.4674700000000 1.0
C      1  0.5411420000000  0.4999680000000  0.4614150000000 1.0
C      1  0.4963260000000  0.5103690000000  0.4562390000000 1.0
C      1  0.4595800000000  0.5438270000000  0.4677880000000 1.0
C      1  0.4723210000000  0.4971270000000  0.4902450000000 1.0
C      1  0.4571150000000  0.4681860000000  0.5263190000000 1.0
C      1  0.4872930000000  0.4845960000000  0.5467920000000 1.0
C      1  0.4924480000000  0.4818480000000  0.5130180000000 1.0
C      1  0.5194100000000  0.4783840000000  0.5558530000000 1.0
C      1  0.5196490000000  0.4555660000000  0.4810460000000 1.0
C      1  0.5430330000000  0.5495700000000  0.5257770000000 1.0
C      1  0.4986060000000  0.4538100000000  0.4994100000000 1.0
C      1  0.5443120000000  0.4775780000000  0.4841670000000 1.0
C      1  0.4487480000000  0.4683900000000  0.4484780000000 1.0
C      1  0.5388640000000  0.5044010000000  0.4282960000000 1.0
C      1  0.5359510000000  0.5232150000000  0.4804840000000 1.0
C      1  0.5120290000000  0.5415870000000  0.4771660000000 1.0
C      1  0.5475390000000  0.4909690000000  0.5088490000000 1.0
C      1  0.4807870000000  0.5285580000000  0.4804090000000 1.0
C      1  0.4641770000000  0.5192710000000  0.5296070000000 1.0
C      1  0.5202070000000  0.4919500000000  0.5257120000000 1.0
C      1  0.5211400000000  0.5203410000000  0.5109540000000 1.0
C      1  0.4701840000000  0.4489510000000  0.5090360000000 1.0
C      1  0.4799190000000  0.5138190000000  0.5530970000000 1.0
C      1  0.4627570000000  0.4646930000000  0.5558070000000 1.0
C      1  0.4805410000000  0.5364710000000  0.5130550000000 1.0
C      1  0.4984440000000  0.5338430000000  0.5565580000000 1.0
C      1  0.5107940000000  0.4943600000000  0.4360970000000 1.0
C      1  0.5094260000000  0.5446250000000  0.5282520000000 1.0
C      1  0.5562560000000  0.5239540000000  0.5077460000000 1.0
END
