TITL C-2847953-8112-346 0.000664510779821754 125000 -194.254351086359 0 0 36 (C1) n - 1
REM
REM in /home/bkarasulu/work/CARBON/AIRSS/Generating-Clusters/AIREBO/with-SteepDescent/Only-C1/SD-CG-opt/Try1-1.4A-POS3A/HFTN-CG
REM
REM
REM
REM
REM
REM ./C.cell (11c1c37f851c82e70ff6c80c92926a4b)
REM
REM compiler GCC version 9.2.1 20190827 (Red Hat 9.2.1-1)
REM options -cpp -mtune=generic -march=x86-64 -g -O0 -fpre-include=/usr/include/finclude/math-vector-fortran.h
REM seed -1938682740 657417375 -1171672544 -1422537250 1230053153 -1163132590 -718653150 684343335 1558855768 1384984783 2071110867 -1785673877 -1180681319 1129856282 192348818 -1961403914 552698771 -1540100860 162255046 -597757940 788879205 91949718 -742051829 22104834 1237151405 418270050 -1186279525 867768883 1561592818 167005181 350972708 -1802926701 1993158251
REM
CELL 1.54180   50.00000   50.00000   50.00000   90.00000   90.00000   90.00000
LATT -1
SFAC C  
C      1  0.4781470000000  0.4665270000000  0.4606150000000 1.0
C      1  0.5338980000000  0.5223240000000  0.5185460000000 1.0
C      1  0.4876140000000  0.5258580000000  0.5045810000000 1.0
C      1  0.5176690000000  0.4468520000000  0.5043060000000 1.0
C      1  0.5062010000000  0.4593950000000  0.4769590000000 1.0
C      1  0.5557580000000  0.5070140000000  0.4433430000000 1.0
C      1  0.4638010000000  0.5156650000000  0.5529570000000 1.0
C      1  0.5172930000000  0.5075350000000  0.4706370000000 1.0
C      1  0.5292760000000  0.4653110000000  0.5802110000000 1.0
C      1  0.4528270000000  0.4581280000000  0.5240400000000 1.0
C      1  0.4278100000000  0.4776930000000  0.4696740000000 1.0
C      1  0.5433740000000  0.4491080000000  0.5553040000000 1.0
C      1  0.4607010000000  0.4532430000000  0.4986760000000 1.0
C      1  0.5270850000000  0.5487050000000  0.5282290000000 1.0
C      1  0.5258480000000  0.4782450000000  0.4640740000000 1.0
C      1  0.4819220000000  0.5398220000000  0.4484370000000 1.0
C      1  0.4538450000000  0.4764780000000  0.4793540000000 1.0
C      1  0.5118970000000  0.5654280000000  0.4767090000000 1.0
C      1  0.5090670000000  0.4476330000000  0.5591400000000 1.0
C      1  0.5021870000000  0.5869440000000  0.5011790000000 1.0
C      1  0.4877330000000  0.5124700000000  0.4605030000000 1.0
C      1  0.5011140000000  0.4783030000000  0.5714730000000 1.0
C      1  0.5161740000000  0.5137020000000  0.4999830000000 1.0
C      1  0.4820050000000  0.4388580000000  0.4890470000000 1.0
C      1  0.5338610000000  0.5627350000000  0.5503160000000 1.0
C      1  0.4621820000000  0.5115850000000  0.5192000000000 1.0
C      1  0.5480970000000  0.4801540000000  0.4479440000000 1.0
C      1  0.4680910000000  0.5041630000000  0.4866570000000 1.0
C      1  0.4821850000000  0.4874750000000  0.4418060000000 1.0
C      1  0.5243320000000  0.4467530000000  0.5292410000000 1.0
C      1  0.5386170000000  0.5255670000000  0.4572180000000 1.0
C      1  0.5037380000000  0.5535210000000  0.5074940000000 1.0
C      1  0.5368700000000  0.5515630000000  0.4644310000000 1.0
C      1  0.4786120000000  0.4895930000000  0.5643870000000 1.0
C      1  0.4610980000000  0.4831720000000  0.5371740000000 1.0
C      1  0.4890690000000  0.5624770000000  0.4561530000000 1.0
END
