TITL C-2848497-6229-571 -0.000196446259148247 125000 -235.51200046719 0 0 43 (C1) n - 1
REM
REM in /home/bkarasulu/work/CARBON/AIRSS/Generating-Clusters/AIREBO/with-SteepDescent/Only-C1/SD-CG-opt/Try1-1.4A-POS3A/HFTN-CG
REM
REM
REM
REM
REM
REM ./C.cell (11c1c37f851c82e70ff6c80c92926a4b)
REM
REM compiler GCC version 9.2.1 20190827 (Red Hat 9.2.1-1)
REM options -cpp -mtune=generic -march=x86-64 -g -O0 -fpre-include=/usr/include/finclude/math-vector-fortran.h
REM seed -2030740440 -1810877521 -2145322454 -2096503960 -1635333953 -520630873 -1401471244 1528983175 1142525934 -1127968392 -1034818358 378085404 -1147466625 -1952224024 253340032 -1799430610 1676992516 445053524 1468392438 -375002531 617450181 -1097214038 655487007 1280287352 339222750 256672614 469218790 -1292699398 1233587826 713510191 790260814 -439353564 -986810044
REM
CELL 1.54180   50.00000   50.00000   50.00000   90.00000   90.00000   90.00000
LATT -1
SFAC C  
C      1  0.5188850000000  0.5384780000000  0.5469430000000 1.0
C      1  0.5146850000000  0.4561710000000  0.5158690000000 1.0
C      1  0.4874330000000  0.4792250000000  0.4623270000000 1.0
C      1  0.4841640000000  0.4567830000000  0.4413410000000 1.0
C      1  0.4999010000000  0.4305520000000  0.4817830000000 1.0
C      1  0.4986560000000  0.4697560000000  0.4894320000000 1.0
C      1  0.5045620000000  0.5440320000000  0.4749050000000 1.0
C      1  0.5332470000000  0.5732590000000  0.5034950000000 1.0
C      1  0.4732530000000  0.5309010000000  0.5211760000000 1.0
C      1  0.4534030000000  0.4802080000000  0.5464140000000 1.0
C      1  0.5072260000000  0.5229530000000  0.4320530000000 1.0
C      1  0.5226600000000  0.4501290000000  0.4772410000000 1.0
C      1  0.4581180000000  0.4889780000000  0.4701090000000 1.0
C      1  0.4705680000000  0.5018810000000  0.5271400000000 1.0
C      1  0.4887160000000  0.5851140000000  0.4976180000000 1.0
C      1  0.4586930000000  0.5389400000000  0.4991590000000 1.0
C      1  0.4753240000000  0.4378730000000  0.4949500000000 1.0
C      1  0.5434640000000  0.5200460000000  0.5015190000000 1.0
C      1  0.5078290000000  0.4994290000000  0.4524800000000 1.0
C      1  0.5068300000000  0.5630310000000  0.5000350000000 1.0
C      1  0.5199900000000  0.5088360000000  0.5571610000000 1.0
C      1  0.5263190000000  0.5179740000000  0.4768560000000 1.0
C      1  0.5381360000000  0.4911340000000  0.4596480000000 1.0
C      1  0.4947340000000  0.4859430000000  0.5190150000000 1.0
C      1  0.4351330000000  0.5349840000000  0.4784340000000 1.0
C      1  0.5445130000000  0.4673960000000  0.4732530000000 1.0
C      1  0.5374050000000  0.5377050000000  0.5208350000000 1.0
C      1  0.4597100000000  0.4564410000000  0.4801690000000 1.0
C      1  0.4415350000000  0.4877960000000  0.5186420000000 1.0
C      1  0.4658570000000  0.4557240000000  0.5488660000000 1.0
C      1  0.5217900000000  0.5581350000000  0.5664190000000 1.0
C      1  0.5426270000000  0.4714280000000  0.5246550000000 1.0
C      1  0.4744900000000  0.5363640000000  0.4729030000000 1.0
C      1  0.4986350000000  0.4559790000000  0.5451420000000 1.0
C      1  0.5732860000000  0.4843330000000  0.5317300000000 1.0
C      1  0.4774800000000  0.4420170000000  0.5223170000000 1.0
C      1  0.5092110000000  0.5458840000000  0.4432640000000 1.0
C      1  0.4395400000000  0.4768060000000  0.4941880000000 1.0
C      1  0.5173000000000  0.4845250000000  0.5432800000000 1.0
C      1  0.5599620000000  0.4715930000000  0.4962720000000 1.0
C      1  0.4980330000000  0.5439230000000  0.5239050000000 1.0
C      1  0.4540430000000  0.5164100000000  0.4605080000000 1.0
C      1  0.5626550000000  0.5009310000000  0.5065510000000 1.0
END
