TITL C-2847952-8118-8 -0.00133817854365586 125000 -837.427046772788 0 0 151 (C1) n - 1
REM
REM in /home/bkarasulu/work/CARBON/AIRSS/Generating-Clusters/AIREBO/with-SteepDescent/Only-C1/SD-CG-opt/Try1-1.4A-POS3A/HFTN-CG
REM
REM
REM
REM
REM
REM ./C.cell (11c1c37f851c82e70ff6c80c92926a4b)
REM
REM compiler GCC version 9.2.1 20190827 (Red Hat 9.2.1-1)
REM options -cpp -mtune=generic -march=x86-64 -g -O0 -fpre-include=/usr/include/finclude/math-vector-fortran.h
REM seed 332961658 1215550514 443575397 1149638024 1564367711 842070596 -1319087507 -580258916 90798454 -1297704361 -473660042 -1406988068 -154714518 941371004 1192182199 409554278 -855997103 -1096305571 -1640784511 -537129929 -989382387 695275780 -1477890116 -1397379597 1948284573 2069177219 -349932887 -1266938945 2097457942 -794183377 -1283714885 -1934745289 -1368425242
REM
CELL 1.54180   50.00000   50.00000   50.00000   90.00000   90.00000   90.00000
LATT -1
SFAC C  
C      1  0.5141270000000  0.4885730000000  0.5891430000000 1.0
C      1  0.4774630000000  0.4207560000000  0.4435600000000 1.0
C      1  0.4809830000000  0.4927950000000  0.5955510000000 1.0
C      1  0.5339590000000  0.4980200000000  0.4582660000000 1.0
C      1  0.4997900000000  0.5995970000000  0.4913390000000 1.0
C      1  0.5714130000000  0.5130500000000  0.5907390000000 1.0
C      1  0.5528240000000  0.5216940000000  0.5330990000000 1.0
C      1  0.4509040000000  0.5845700000000  0.5134660000000 1.0
C      1  0.5177290000000  0.5901530000000  0.5133480000000 1.0
C      1  0.5645150000000  0.5380270000000  0.4695390000000 1.0
C      1  0.5372510000000  0.4514980000000  0.4041860000000 1.0
C      1  0.4678150000000  0.4045000000000  0.5253250000000 1.0
C      1  0.5729070000000  0.4419370000000  0.4643920000000 1.0
C      1  0.5598880000000  0.4194220000000  0.4422530000000 1.0
C      1  0.4787220000000  0.3936560000000  0.5004520000000 1.0
C      1  0.5398230000000  0.5694530000000  0.4701560000000 1.0
C      1  0.4215820000000  0.5024820000000  0.4844880000000 1.0
C      1  0.4699410000000  0.5783670000000  0.4288960000000 1.0
C      1  0.4449120000000  0.4492290000000  0.5418450000000 1.0
C      1  0.5302840000000  0.4952580000000  0.5135280000000 1.0
C      1  0.3999730000000  0.5272180000000  0.5340100000000 1.0
C      1  0.4136350000000  0.5329650000000  0.4843270000000 1.0
C      1  0.5627660000000  0.5031260000000  0.5072410000000 1.0
C      1  0.4543420000000  0.5326030000000  0.4149460000000 1.0
C      1  0.4714750000000  0.4145130000000  0.4749640000000 1.0
C      1  0.5666490000000  0.5676840000000  0.5139530000000 1.0
C      1  0.4565680000000  0.4746510000000  0.4296430000000 1.0
C      1  0.5096060000000  0.4168240000000  0.4340830000000 1.0
C      1  0.5070750000000  0.4058390000000  0.5086660000000 1.0
C      1  0.4948440000000  0.5021950000000  0.4951220000000 1.0
C      1  0.4808790000000  0.5370060000000  0.5118130000000 1.0
C      1  0.4319590000000  0.5310820000000  0.5229580000000 1.0
C      1  0.4711760000000  0.5944050000000  0.4900020000000 1.0
C      1  0.5772900000000  0.4697610000000  0.4360750000000 1.0
C      1  0.4322620000000  0.4346790000000  0.4716700000000 1.0
C      1  0.4447930000000  0.5407190000000  0.4463420000000 1.0
C      1  0.4862590000000  0.5050560000000  0.4623180000000 1.0
C      1  0.4151340000000  0.4518550000000  0.5366450000000 1.0
C      1  0.4526760000000  0.4355130000000  0.5676150000000 1.0
C      1  0.4359550000000  0.5504790000000  0.5616330000000 1.0
C      1  0.5178060000000  0.5735670000000  0.4476160000000 1.0
C      1  0.5027130000000  0.4162680000000  0.4787410000000 1.0
C      1  0.6003000000000  0.4802590000000  0.5142530000000 1.0
C      1  0.4945890000000  0.4541860000000  0.4880260000000 1.0
C      1  0.3921790000000  0.4961640000000  0.5311730000000 1.0
C      1  0.5069170000000  0.5395530000000  0.4108560000000 1.0
C      1  0.4339190000000  0.5119640000000  0.4328380000000 1.0
C      1  0.4800890000000  0.5470380000000  0.4250770000000 1.0
C      1  0.5854520000000  0.5265230000000  0.5304100000000 1.0
C      1  0.5100260000000  0.5063270000000  0.5385110000000 1.0
C      1  0.6014850000000  0.5094890000000  0.5147580000000 1.0
C      1  0.5980190000000  0.4633900000000  0.4624030000000 1.0
C      1  0.4512880000000  0.4996240000000  0.4961050000000 1.0
C      1  0.5500060000000  0.4352050000000  0.5403030000000 1.0
C      1  0.4968870000000  0.5208390000000  0.6037680000000 1.0
C      1  0.4580070000000  0.5954160000000  0.5415090000000 1.0
C      1  0.4186280000000  0.5245810000000  0.5600240000000 1.0
C      1  0.5341670000000  0.5470800000000  0.5376410000000 1.0
C      1  0.3958590000000  0.4844480000000  0.4473470000000 1.0
C      1  0.6099120000000  0.5221080000000  0.4889890000000 1.0
C      1  0.5603340000000  0.4467670000000  0.4240360000000 1.0
C      1  0.5298400000000  0.5968690000000  0.5426700000000 1.0
C      1  0.5162950000000  0.4807140000000  0.5574860000000 1.0
C      1  0.5828270000000  0.4929110000000  0.4609990000000 1.0
C      1  0.5102920000000  0.4445250000000  0.4187120000000 1.0
C      1  0.4800370000000  0.5794370000000  0.5589560000000 1.0
C      1  0.4616710000000  0.5146480000000  0.5248720000000 1.0
C      1  0.4638490000000  0.5221780000000  0.5571110000000 1.0
C      1  0.4501800000000  0.5322600000000  0.5865680000000 1.0
C      1  0.5745420000000  0.5545880000000  0.5376340000000 1.0
C      1  0.5077720000000  0.4957050000000  0.4400540000000 1.0
C      1  0.4291850000000  0.5517490000000  0.4706820000000 1.0
C      1  0.5107260000000  0.5300760000000  0.5064780000000 1.0
C      1  0.4406730000000  0.4991720000000  0.5550210000000 1.0
C      1  0.4616010000000  0.4866330000000  0.4598270000000 1.0
C      1  0.4749780000000  0.5491280000000  0.5700750000000 1.0
C      1  0.5077270000000  0.4391420000000  0.5155680000000 1.0
C      1  0.4509860000000  0.5010950000000  0.5934900000000 1.0
C      1  0.4071940000000  0.4763560000000  0.5544320000000 1.0
C      1  0.5379370000000  0.4741950000000  0.3892980000000 1.0
C      1  0.5713210000000  0.4515010000000  0.5416620000000 1.0
C      1  0.5282250000000  0.5175700000000  0.6012470000000 1.0
C      1  0.4256620000000  0.4978760000000  0.5266830000000 1.0
C      1  0.5708990000000  0.5343890000000  0.4159250000000 1.0
C      1  0.4933940000000  0.4465890000000  0.4549050000000 1.0
C      1  0.4465170000000  0.5582160000000  0.5329250000000 1.0
C      1  0.5100360000000  0.5091060000000  0.4106870000000 1.0
C      1  0.4824560000000  0.4682250000000  0.5746080000000 1.0
C      1  0.5160510000000  0.4657670000000  0.4428630000000 1.0
C      1  0.5965630000000  0.4696580000000  0.5421930000000 1.0
C      1  0.5086690000000  0.4488680000000  0.5825110000000 1.0
C      1  0.5581800000000  0.4957430000000  0.4407390000000 1.0
C      1  0.4092600000000  0.4331320000000  0.4902940000000 1.0
C      1  0.4841600000000  0.4891400000000  0.5246560000000 1.0
C      1  0.5781150000000  0.5130060000000  0.4825110000000 1.0
C      1  0.4997210000000  0.5335690000000  0.4495500000000 1.0
C      1  0.4846670000000  0.4618550000000  0.4148860000000 1.0
C      1  0.4651310000000  0.5277980000000  0.4874570000000 1.0
C      1  0.4462310000000  0.4245730000000  0.4430620000000 1.0
C      1  0.5238970000000  0.5245190000000  0.5603020000000 1.0
C      1  0.5343190000000  0.4633990000000  0.5998500000000 1.0
C      1  0.4706080000000  0.5420900000000  0.4634330000000 1.0
C      1  0.5535800000000  0.5546480000000  0.5645100000000 1.0
C      1  0.5571460000000  0.5102260000000  0.4146040000000 1.0
C      1  0.5695990000000  0.5853820000000  0.4661570000000 1.0
C      1  0.4281570000000  0.4886960000000  0.4540260000000 1.0
C      1  0.5506550000000  0.5318270000000  0.5893470000000 1.0
C      1  0.5763400000000  0.5450080000000  0.4404250000000 1.0
C      1  0.5362380000000  0.5006630000000  0.3987990000000 1.0
C      1  0.3998360000000  0.4861600000000  0.5003980000000 1.0
C      1  0.4049080000000  0.4589150000000  0.5049950000000 1.0
C      1  0.4564900000000  0.4332580000000  0.5191930000000 1.0
C      1  0.5692280000000  0.4394440000000  0.4968170000000 1.0
C      1  0.4552350000000  0.5009660000000  0.4085580000000 1.0
C      1  0.4654320000000  0.4707470000000  0.4873500000000 1.0
C      1  0.4866590000000  0.4270620000000  0.5393650000000 1.0
C      1  0.4252570000000  0.4843240000000  0.5811180000000 1.0
C      1  0.4848910000000  0.4906650000000  0.4068800000000 1.0
C      1  0.4637370000000  0.4750300000000  0.5484570000000 1.0
C      1  0.5312270000000  0.5161940000000  0.4867490000000 1.0
C      1  0.5312660000000  0.5377660000000  0.4616410000000 1.0
C      1  0.5040870000000  0.5399600000000  0.5791370000000 1.0
C      1  0.4404330000000  0.5773610000000  0.4817030000000 1.0
C      1  0.4063580000000  0.4229650000000  0.5204100000000 1.0
C      1  0.5667560000000  0.4846340000000  0.5355460000000 1.0
C      1  0.5416610000000  0.4640920000000  0.5666530000000 1.0
C      1  0.5315450000000  0.5786420000000  0.5629720000000 1.0
C      1  0.4571830000000  0.4402050000000  0.4901660000000 1.0
C      1  0.4874010000000  0.5707960000000  0.4563440000000 1.0
C      1  0.5327810000000  0.4113800000000  0.4499250000000 1.0
C      1  0.5761060000000  0.5630490000000  0.4853030000000 1.0
C      1  0.3975930000000  0.5406670000000  0.5049360000000 1.0
C      1  0.5446810000000  0.4545090000000  0.4532100000000 1.0
C      1  0.4342320000000  0.4559440000000  0.4450360000000 1.0
C      1  0.5915980000000  0.4608920000000  0.4942210000000 1.0
C      1  0.5499650000000  0.5022600000000  0.5588300000000 1.0
C      1  0.5322340000000  0.4325870000000  0.5641450000000 1.0
C      1  0.5071930000000  0.5716530000000  0.5748100000000 1.0
C      1  0.5407060000000  0.4320710000000  0.5111980000000 1.0
C      1  0.5414940000000  0.5755880000000  0.5004850000000 1.0
C      1  0.5123200000000  0.4688780000000  0.5259660000000 1.0
C      1  0.5580820000000  0.4842290000000  0.5864970000000 1.0
C      1  0.5114170000000  0.5603850000000  0.5218880000000 1.0
C      1  0.5353350000000  0.4155010000000  0.4823020000000 1.0
C      1  0.4599940000000  0.5908560000000  0.4588530000000 1.0
C      1  0.5241760000000  0.5599890000000  0.4201920000000 1.0
C      1  0.4795300000000  0.5608640000000  0.5321500000000 1.0
C      1  0.5262920000000  0.4479160000000  0.4774480000000 1.0
C      1  0.5121440000000  0.6005200000000  0.4664650000000 1.0
C      1  0.4829060000000  0.4342590000000  0.5688270000000 1.0
C      1  0.5147920000000  0.4803890000000  0.4801270000000 1.0
END
