TITL C-2848503-6230-212 0.000326752209642033 125000 -436.124659980334 0 0 84 (C1) n - 1
REM
REM in /home/bkarasulu/work/CARBON/AIRSS/Generating-Clusters/AIREBO/with-SteepDescent/Only-C1/SD-CG-opt/Try1-1.4A-POS3A/HFTN-CG
REM
REM
REM
REM
REM
REM ./C.cell (11c1c37f851c82e70ff6c80c92926a4b)
REM
REM compiler GCC version 9.2.1 20190827 (Red Hat 9.2.1-1)
REM options -cpp -mtune=generic -march=x86-64 -g -O0 -fpre-include=/usr/include/finclude/math-vector-fortran.h
REM seed 509954521 1501068997 1117065565 1000116760 885073352 -1368844680 -847040749 1795688969 -151155265 -2114054634 96482615 288834745 1798807548 23644160 2122956246 1445259313 403169703 1712262120 1716106850 -490341348 229207206 763220790 -1028914880 -423678788 922339185 1604068376 473911950 -2018302502 -596783497 -744878579 -431507976 1879637744 1635735145
REM
CELL 1.54180   50.00000   50.00000   50.00000   90.00000   90.00000   90.00000
LATT -1
SFAC C  
C      1  0.4863050000000  0.4307330000000  0.4694800000000 1.0
C      1  0.5026300000000  0.5580070000000  0.5538960000000 1.0
C      1  0.4858400000000  0.4611390000000  0.5078040000000 1.0
C      1  0.5296710000000  0.5145470000000  0.4425800000000 1.0
C      1  0.4683540000000  0.5421770000000  0.4990600000000 1.0
C      1  0.5626700000000  0.4469880000000  0.4789090000000 1.0
C      1  0.4857340000000  0.5506090000000  0.4373850000000 1.0
C      1  0.5485990000000  0.5039850000000  0.5010960000000 1.0
C      1  0.4652240000000  0.4533380000000  0.4449100000000 1.0
C      1  0.4741290000000  0.4484950000000  0.5571350000000 1.0
C      1  0.4258650000000  0.5571510000000  0.5050850000000 1.0
C      1  0.4820750000000  0.4383470000000  0.5316640000000 1.0
C      1  0.5162750000000  0.4900220000000  0.4231940000000 1.0
C      1  0.5044520000000  0.5632380000000  0.4555640000000 1.0
C      1  0.4279080000000  0.4738210000000  0.4765700000000 1.0
C      1  0.5371410000000  0.4808370000000  0.5649400000000 1.0
C      1  0.5770010000000  0.5177830000000  0.5102230000000 1.0
C      1  0.4515640000000  0.5728920000000  0.5343610000000 1.0
C      1  0.5547590000000  0.5535750000000  0.4968560000000 1.0
C      1  0.4581500000000  0.4994530000000  0.4768760000000 1.0
C      1  0.4410700000000  0.5279380000000  0.5135480000000 1.0
C      1  0.4897800000000  0.5015750000000  0.5522530000000 1.0
C      1  0.5109030000000  0.4251460000000  0.5294300000000 1.0
C      1  0.4539060000000  0.5440810000000  0.5405790000000 1.0
C      1  0.5057050000000  0.5641360000000  0.4889790000000 1.0
C      1  0.5503250000000  0.5270440000000  0.4760470000000 1.0
C      1  0.5056410000000  0.4643810000000  0.4598240000000 1.0
C      1  0.4874360000000  0.5257610000000  0.4779690000000 1.0
C      1  0.4498790000000  0.4634330000000  0.5572220000000 1.0
C      1  0.5196700000000  0.4257170000000  0.4652730000000 1.0
C      1  0.5206850000000  0.5095270000000  0.5642090000000 1.0
C      1  0.5447430000000  0.4740160000000  0.4326580000000 1.0
C      1  0.4584190000000  0.5493920000000  0.4453460000000 1.0
C      1  0.5765120000000  0.4577630000000  0.5068400000000 1.0
C      1  0.4649460000000  0.4841420000000  0.4375130000000 1.0
C      1  0.5455060000000  0.4585150000000  0.5210120000000 1.0
C      1  0.4475460000000  0.5175240000000  0.4500830000000 1.0
C      1  0.4434470000000  0.4896830000000  0.5023320000000 1.0
C      1  0.4576270000000  0.5116780000000  0.5476090000000 1.0
C      1  0.4467490000000  0.5686970000000  0.4627660000000 1.0
C      1  0.4516090000000  0.4892250000000  0.5707300000000 1.0
C      1  0.4750670000000  0.4909750000000  0.5122140000000 1.0
C      1  0.5299590000000  0.4419230000000  0.5403960000000 1.0
C      1  0.5819790000000  0.5374100000000  0.4829070000000 1.0
C      1  0.4788430000000  0.4732070000000  0.4767920000000 1.0
C      1  0.5223270000000  0.5386970000000  0.4637130000000 1.0
C      1  0.5106720000000  0.4928150000000  0.5294520000000 1.0
C      1  0.4950510000000  0.5181600000000  0.5164240000000 1.0
C      1  0.4345590000000  0.4642980000000  0.5311910000000 1.0
C      1  0.4952490000000  0.4409970000000  0.4378340000000 1.0
C      1  0.5602410000000  0.4858140000000  0.4606390000000 1.0
C      1  0.5480440000000  0.5253120000000  0.5515800000000 1.0
C      1  0.4807970000000  0.5363780000000  0.5696780000000 1.0
C      1  0.5226960000000  0.4565960000000  0.5634510000000 1.0
C      1  0.4919200000000  0.4714470000000  0.4232290000000 1.0
C      1  0.5610030000000  0.5218480000000  0.4438520000000 1.0
C      1  0.4988940000000  0.4307840000000  0.4993950000000 1.0
C      1  0.5029270000000  0.4960910000000  0.4840240000000 1.0
C      1  0.4573230000000  0.4468780000000  0.4769700000000 1.0
C      1  0.5757090000000  0.5284730000000  0.5362290000000 1.0
C      1  0.4326160000000  0.5214870000000  0.4812530000000 1.0
C      1  0.5015800000000  0.5229670000000  0.4253530000000 1.0
C      1  0.4711420000000  0.5135350000000  0.5850710000000 1.0
C      1  0.4439640000000  0.5726180000000  0.4908710000000 1.0
C      1  0.5823050000000  0.5035550000000  0.4797280000000 1.0
C      1  0.5033740000000  0.5705320000000  0.5222900000000 1.0
C      1  0.4331030000000  0.4857540000000  0.4493290000000 1.0
C      1  0.5440710000000  0.4960060000000  0.5348060000000 1.0
C      1  0.5339260000000  0.5659330000000  0.5080620000000 1.0
C      1  0.5294770000000  0.4538510000000  0.4816660000000 1.0
C      1  0.5278880000000  0.4899490000000  0.4647550000000 1.0
C      1  0.4727790000000  0.5748600000000  0.5080050000000 1.0
C      1  0.5856130000000  0.4713700000000  0.4779110000000 1.0
C      1  0.4810440000000  0.5123200000000  0.4473510000000 1.0
C      1  0.4340030000000  0.4513290000000  0.5013360000000 1.0
C      1  0.4852620000000  0.5376940000000  0.5359950000000 1.0
C      1  0.5256230000000  0.4797010000000  0.5033380000000 1.0
C      1  0.5254030000000  0.5426810000000  0.5674120000000 1.0
C      1  0.5148420000000  0.5321470000000  0.4961960000000 1.0
C      1  0.4899340000000  0.4860180000000  0.5810710000000 1.0
C      1  0.5427100000000  0.4474170000000  0.4510060000000 1.0
C      1  0.4326970000000  0.4987200000000  0.5300550000000 1.0
C      1  0.4954400000000  0.4590300000000  0.5733200000000 1.0
C      1  0.5714920000000  0.4759090000000  0.5340410000000 1.0
END
