TITL C-2847951-7423-292 -0.000712243745310714 125000 -698.681867981097 0 0 132 (C1) n - 1
REM
REM in /home/bkarasulu/work/CARBON/AIRSS/Generating-Clusters/AIREBO/with-SteepDescent/Only-C1/SD-CG-opt/Try1-1.4A-POS3A/HFTN-CG
REM
REM
REM
REM
REM
REM ./C.cell (11c1c37f851c82e70ff6c80c92926a4b)
REM
REM compiler GCC version 9.2.1 20190827 (Red Hat 9.2.1-1)
REM options -cpp -mtune=generic -march=x86-64 -g -O0 -fpre-include=/usr/include/finclude/math-vector-fortran.h
REM seed -870295586 -580181520 -1566264727 54451412 1121459573 -849587870 1560385417 -1710381741 1370221186 -1243844211 -846562791 -78112399 -616107016 62855262 -1031623396 -1117837451 -298846919 334637000 -31218445 996162327 -326349343 -202077245 -625661085 -990746308 -2120700111 -1696985446 2028920412 -462820778 1498670832 -566546831 -825955279 -1997312770 1895694673
REM
CELL 1.54180   50.00000   50.00000   50.00000   90.00000   90.00000   90.00000
LATT -1
SFAC C  
C      1  0.5486830000000  0.5357280000000  0.5537120000000 1.0
C      1  0.4584970000000  0.5782380000000  0.4764260000000 1.0
C      1  0.5121760000000  0.5900720000000  0.5275740000000 1.0
C      1  0.5523540000000  0.4674420000000  0.5726970000000 1.0
C      1  0.5367060000000  0.4711810000000  0.4666700000000 1.0
C      1  0.6033640000000  0.5329420000000  0.5199930000000 1.0
C      1  0.4950210000000  0.4505470000000  0.4195870000000 1.0
C      1  0.5212530000000  0.5264070000000  0.4131740000000 1.0
C      1  0.4050870000000  0.5104780000000  0.4875970000000 1.0
C      1  0.4918250000000  0.4537860000000  0.5880590000000 1.0
C      1  0.5750090000000  0.4694160000000  0.5487270000000 1.0
C      1  0.5874800000000  0.4819700000000  0.4726130000000 1.0
C      1  0.4312080000000  0.5220780000000  0.4722860000000 1.0
C      1  0.4302780000000  0.5238970000000  0.4274990000000 1.0
C      1  0.4577250000000  0.4851820000000  0.5590630000000 1.0
C      1  0.5046310000000  0.4717110000000  0.4553790000000 1.0
C      1  0.4520420000000  0.4937470000000  0.4128060000000 1.0
C      1  0.4835490000000  0.5078850000000  0.5270880000000 1.0
C      1  0.5732370000000  0.5377100000000  0.5322690000000 1.0
C      1  0.5026600000000  0.4110640000000  0.5243720000000 1.0
C      1  0.5566890000000  0.4616540000000  0.4915580000000 1.0
C      1  0.4417610000000  0.5768410000000  0.5054100000000 1.0
C      1  0.4960730000000  0.5338560000000  0.4995090000000 1.0
C      1  0.4011230000000  0.4827260000000  0.4943570000000 1.0
C      1  0.5710300000000  0.5252100000000  0.4501450000000 1.0
C      1  0.5542730000000  0.4973730000000  0.4539520000000 1.0
C      1  0.5129450000000  0.4114780000000  0.5666970000000 1.0
C      1  0.5780630000000  0.4366750000000  0.5002790000000 1.0
C      1  0.5728350000000  0.4685830000000  0.4506680000000 1.0
C      1  0.4733910000000  0.5373400000000  0.4242850000000 1.0
C      1  0.5029910000000  0.5877250000000  0.4546970000000 1.0
C      1  0.5925040000000  0.4509250000000  0.5259630000000 1.0
C      1  0.4304900000000  0.4409150000000  0.4996600000000 1.0
C      1  0.5803270000000  0.5224730000000  0.4962800000000 1.0
C      1  0.4888240000000  0.4821010000000  0.5724910000000 1.0
C      1  0.4834810000000  0.5058410000000  0.4942320000000 1.0
C      1  0.4158990000000  0.5360180000000  0.5492460000000 1.0
C      1  0.4745160000000  0.5117530000000  0.4120610000000 1.0
C      1  0.5853540000000  0.4752760000000  0.5039510000000 1.0
C      1  0.5685560000000  0.5574820000000  0.4606060000000 1.0
C      1  0.5345900000000  0.5491420000000  0.4208450000000 1.0
C      1  0.4375740000000  0.5483260000000  0.4428940000000 1.0
C      1  0.4844880000000  0.5714140000000  0.5664380000000 1.0
C      1  0.5043910000000  0.4987500000000  0.4039420000000 1.0
C      1  0.4678680000000  0.5424180000000  0.4574650000000 1.0
C      1  0.4256910000000  0.5104290000000  0.5325220000000 1.0
C      1  0.5236800000000  0.4653540000000  0.5908730000000 1.0
C      1  0.5414550000000  0.4421590000000  0.5148700000000 1.0
C      1  0.5316280000000  0.4125230000000  0.5094340000000 1.0
C      1  0.5262530000000  0.5388200000000  0.4705760000000 1.0
C      1  0.4726370000000  0.5823010000000  0.4499270000000 1.0
C      1  0.5226140000000  0.5159220000000  0.5445370000000 1.0
C      1  0.5416910000000  0.5683340000000  0.4774640000000 1.0
C      1  0.5371130000000  0.4679640000000  0.4328120000000 1.0
C      1  0.4167850000000  0.4631030000000  0.5215130000000 1.0
C      1  0.5478560000000  0.5326680000000  0.4951230000000 1.0
C      1  0.4916570000000  0.4806140000000  0.5386380000000 1.0
C      1  0.5789380000000  0.5670740000000  0.4911590000000 1.0
C      1  0.4683750000000  0.5679190000000  0.4267870000000 1.0
C      1  0.4626450000000  0.4330410000000  0.5482570000000 1.0
C      1  0.5270980000000  0.4847070000000  0.5565330000000 1.0
C      1  0.4540520000000  0.5125270000000  0.4489840000000 1.0
C      1  0.5295810000000  0.5550990000000  0.5331320000000 1.0
C      1  0.4993780000000  0.5537770000000  0.4582320000000 1.0
C      1  0.5402660000000  0.4262440000000  0.4608890000000 1.0
C      1  0.5056990000000  0.4908230000000  0.4822860000000 1.0
C      1  0.5201570000000  0.5666570000000  0.4356790000000 1.0
C      1  0.4813740000000  0.5712050000000  0.5006030000000 1.0
C      1  0.4646950000000  0.4626420000000  0.5342210000000 1.0
C      1  0.5219130000000  0.5203220000000  0.5108270000000 1.0
C      1  0.4278610000000  0.4824230000000  0.5430010000000 1.0
C      1  0.5199720000000  0.4515690000000  0.5600120000000 1.0
C      1  0.4601610000000  0.4524340000000  0.4719370000000 1.0
C      1  0.4095590000000  0.5287590000000  0.5104340000000 1.0
C      1  0.4575310000000  0.4280860000000  0.5158410000000 1.0
C      1  0.5044290000000  0.4282830000000  0.4354210000000 1.0
C      1  0.4872840000000  0.4305260000000  0.5690140000000 1.0
C      1  0.5143420000000  0.5871400000000  0.4848620000000 1.0
C      1  0.4530640000000  0.5160770000000  0.5178140000000 1.0
C      1  0.5399560000000  0.5877590000000  0.5072170000000 1.0
C      1  0.4946410000000  0.5334050000000  0.5415260000000 1.0
C      1  0.5171910000000  0.5750470000000  0.5577490000000 1.0
C      1  0.5250730000000  0.4058920000000  0.4798850000000 1.0
C      1  0.4523110000000  0.4739050000000  0.4392030000000 1.0
C      1  0.4165480000000  0.5546920000000  0.5023880000000 1.0
C      1  0.5141180000000  0.4708650000000  0.4165760000000 1.0
C      1  0.5887490000000  0.5023040000000  0.5223430000000 1.0
C      1  0.5568220000000  0.5588310000000  0.5131210000000 1.0
C      1  0.4802420000000  0.4090880000000  0.5056520000000 1.0
C      1  0.5883240000000  0.5100430000000  0.4705330000000 1.0
C      1  0.4668310000000  0.5420300000000  0.4909300000000 1.0
C      1  0.4385630000000  0.5525290000000  0.5482010000000 1.0
C      1  0.4463280000000  0.4807690000000  0.4719710000000 1.0
C      1  0.4656540000000  0.4210240000000  0.4623160000000 1.0
C      1  0.5097860000000  0.4401160000000  0.4668420000000 1.0
C      1  0.5643180000000  0.4388380000000  0.5395620000000 1.0
C      1  0.4687520000000  0.4456100000000  0.4390310000000 1.0
C      1  0.4528850000000  0.5047310000000  0.4880490000000 1.0
C      1  0.4707610000000  0.4550970000000  0.5014130000000 1.0
C      1  0.5392220000000  0.4269940000000  0.5517040000000 1.0
C      1  0.5613920000000  0.5478090000000  0.4287300000000 1.0
C      1  0.5131100000000  0.5586190000000  0.5033610000000 1.0
C      1  0.5569200000000  0.5086390000000  0.5255490000000 1.0
C      1  0.4557330000000  0.5164520000000  0.5723380000000 1.0
C      1  0.4517890000000  0.5498180000000  0.5204190000000 1.0
C      1  0.4792450000000  0.4929320000000  0.4475120000000 1.0
C      1  0.4842830000000  0.5317320000000  0.5702940000000 1.0
C      1  0.4915960000000  0.6034410000000  0.5041850000000 1.0
C      1  0.5643080000000  0.5130050000000  0.5711510000000 1.0
C      1  0.5489440000000  0.5034340000000  0.5918140000000 1.0
C      1  0.5010580000000  0.4374210000000  0.5387020000000 1.0
C      1  0.5844490000000  0.4983600000000  0.5558530000000 1.0
C      1  0.5157220000000  0.4631990000000  0.5220510000000 1.0
C      1  0.5284350000000  0.3970090000000  0.5398460000000 1.0
C      1  0.4253960000000  0.5051550000000  0.4055400000000 1.0
C      1  0.4877980000000  0.5651740000000  0.5334420000000 1.0
C      1  0.4918430000000  0.4132430000000  0.4774330000000 1.0
C      1  0.5009780000000  0.4601250000000  0.4934510000000 1.0
C      1  0.5281380000000  0.5490320000000  0.5767640000000 1.0
C      1  0.5159180000000  0.4980610000000  0.5857390000000 1.0
C      1  0.4412140000000  0.4183520000000  0.4807330000000 1.0
C      1  0.4298960000000  0.4710430000000  0.5749790000000 1.0
C      1  0.4334490000000  0.5553640000000  0.4736880000000 1.0
C      1  0.5239710000000  0.5085700000000  0.4610220000000 1.0
C      1  0.5058590000000  0.5068010000000  0.4364290000000 1.0
C      1  0.5553210000000  0.4438320000000  0.4444120000000 1.0
C      1  0.3849190000000  0.4668150000000  0.5169990000000 1.0
C      1  0.4579710000000  0.5508030000000  0.5711260000000 1.0
C      1  0.4208690000000  0.4624980000000  0.4474810000000 1.0
C      1  0.4200510000000  0.4638240000000  0.4800280000000 1.0
C      1  0.5335460000000  0.4898580000000  0.5174020000000 1.0
C      1  0.5085430000000  0.5287120000000  0.5858810000000 1.0
END
