TITL C-2848495-5024-50 0.00333139770257816 125000 -324.227442266089 0 0 59 (C1) n - 1
REM
REM in /home/bkarasulu/work/CARBON/AIRSS/Generating-Clusters/AIREBO/with-SteepDescent/Only-C1/SD-CG-opt/Try1-1.4A-POS3A/HFTN-CG
REM
REM
REM
REM
REM
REM ./C.cell (11c1c37f851c82e70ff6c80c92926a4b)
REM
REM compiler GCC version 9.2.1 20190827 (Red Hat 9.2.1-1)
REM options -cpp -mtune=generic -march=x86-64 -g -O0 -fpre-include=/usr/include/finclude/math-vector-fortran.h
REM seed 1870179304 1220603777 -1629826814 -1691225175 1304912925 -1677569452 -2078493322 -1124173820 -1273165700 -1436118677 1615739259 608835198 -148011119 1593954742 -258580914 -799261012 2040958830 -2034012878 -835646516 2001180238 79623357 249127336 -1143741869 -1230765963 1391702339 -40108691 -1849362014 -894777141 -1940772474 954448056 355904770 -1312970181 1759642122
REM
CELL 1.54180   50.00000   50.00000   50.00000   90.00000   90.00000   90.00000
LATT -1
SFAC C  
C      1  0.5601120000000  0.4600080000000  0.4954350000000 1.0
C      1  0.4431050000000  0.5463480000000  0.4682680000000 1.0
C      1  0.5281400000000  0.5495620000000  0.5280580000000 1.0
C      1  0.5224470000000  0.5467250000000  0.4513110000000 1.0
C      1  0.5230370000000  0.5657330000000  0.4727300000000 1.0
C      1  0.5597030000000  0.5283220000000  0.4833050000000 1.0
C      1  0.4766410000000  0.4285180000000  0.4792790000000 1.0
C      1  0.5428580000000  0.5280550000000  0.4547830000000 1.0
C      1  0.5596700000000  0.4661070000000  0.4676160000000 1.0
C      1  0.5054300000000  0.4332250000000  0.5282290000000 1.0
C      1  0.4873130000000  0.5629920000000  0.4944310000000 1.0
C      1  0.4668260000000  0.5475930000000  0.5131910000000 1.0
C      1  0.4733590000000  0.5204260000000  0.4698090000000 1.0
C      1  0.5475430000000  0.5293140000000  0.5336020000000 1.0
C      1  0.4508660000000  0.5267970000000  0.4928990000000 1.0
C      1  0.5123530000000  0.4831980000000  0.4641610000000 1.0
C      1  0.4922140000000  0.5020740000000  0.4840240000000 1.0
C      1  0.5525030000000  0.4850960000000  0.5137800000000 1.0
C      1  0.4878670000000  0.4677800000000  0.4505580000000 1.0
C      1  0.4953140000000  0.4564680000000  0.5046650000000 1.0
C      1  0.5078840000000  0.4955320000000  0.5389550000000 1.0
C      1  0.4844740000000  0.4946560000000  0.5614300000000 1.0
C      1  0.4798240000000  0.5143170000000  0.4383740000000 1.0
C      1  0.5607510000000  0.5150120000000  0.5128920000000 1.0
C      1  0.5279960000000  0.5183610000000  0.4906080000000 1.0
C      1  0.5173830000000  0.5493580000000  0.4998170000000 1.0
C      1  0.4489400000000  0.4693190000000  0.4708080000000 1.0
C      1  0.4975190000000  0.4422680000000  0.4674570000000 1.0
C      1  0.5440770000000  0.4354620000000  0.5021660000000 1.0
C      1  0.4949090000000  0.4641180000000  0.5378010000000 1.0
C      1  0.4621840000000  0.4659010000000  0.5369770000000 1.0
C      1  0.5352370000000  0.5077030000000  0.5551790000000 1.0
C      1  0.5410870000000  0.4813050000000  0.4528020000000 1.0
C      1  0.4852450000000  0.5318760000000  0.5316310000000 1.0
C      1  0.5025720000000  0.5123380000000  0.5123800000000 1.0
C      1  0.4796380000000  0.4734980000000  0.4848590000000 1.0
C      1  0.4470060000000  0.4816800000000  0.5536520000000 1.0
C      1  0.4545330000000  0.4430950000000  0.4896460000000 1.0
C      1  0.4499710000000  0.4749540000000  0.4402440000000 1.0
C      1  0.4956420000000  0.5406740000000  0.4438430000000 1.0
C      1  0.4745450000000  0.4881700000000  0.4310460000000 1.0
C      1  0.4762170000000  0.5538530000000  0.4668100000000 1.0
C      1  0.4386640000000  0.5091280000000  0.5379050000000 1.0
C      1  0.4880030000000  0.5931700000000  0.4987380000000 1.0
C      1  0.4681970000000  0.5152400000000  0.5499270000000 1.0
C      1  0.5222660000000  0.4514840000000  0.4861790000000 1.0
C      1  0.5301720000000  0.4225490000000  0.5233080000000 1.0
C      1  0.5442470000000  0.4796350000000  0.5430400000000 1.0
C      1  0.4850680000000  0.4820170000000  0.5854570000000 1.0
C      1  0.5478750000000  0.5050500000000  0.4398190000000 1.0
C      1  0.4267040000000  0.4846330000000  0.4857220000000 1.0
C      1  0.5071590000000  0.5465190000000  0.5468880000000 1.0
C      1  0.5262530000000  0.4594040000000  0.5501300000000 1.0
C      1  0.5173760000000  0.5318210000000  0.5681830000000 1.0
C      1  0.4406600000000  0.5410880000000  0.5288060000000 1.0
C      1  0.4514810000000  0.4669230000000  0.5106000000000 1.0
C      1  0.5265940000000  0.4843750000000  0.4939250000000 1.0
C      1  0.5850040000000  0.5378810000000  0.4752240000000 1.0
C      1  0.4393390000000  0.5012910000000  0.5066390000000 1.0
END
