TITL C-2847953-8112-670 -0.0112088324975391 125000 -1111.68675427054 0 0 197 (C1) n - 1
REM
REM in /home/bkarasulu/work/CARBON/AIRSS/Generating-Clusters/AIREBO/with-SteepDescent/Only-C1/SD-CG-opt/Try1-1.4A-POS3A/HFTN-CG
REM
REM
REM
REM
REM
REM ./C.cell (11c1c37f851c82e70ff6c80c92926a4b)
REM
REM compiler GCC version 9.2.1 20190827 (Red Hat 9.2.1-1)
REM options -cpp -mtune=generic -march=x86-64 -g -O0 -fpre-include=/usr/include/finclude/math-vector-fortran.h
REM seed -914212401 -108262301 -601528901 560346226 -1869693163 -1481806601 1161990599 1534592732 286292279 -73904059 -1975415111 -2079798552 1432443690 -226562580 -1723476922 -381069380 1997805510 -1808834259 953074988 766998484 -1511269233 19507199 1632275022 -1184190622 -650528554 -986317951 2066068612 1468952244 -848006143 1938011485 1246029995 -1122753144 -726475723
REM
CELL 1.54180   50.00000   50.00000   50.00000   90.00000   90.00000   90.00000
LATT -1
SFAC C  
C      1  0.5064290000000  0.5581750000000  0.4517080000000 1.0
C      1  0.4808740000000  0.5183110000000  0.5592390000000 1.0
C      1  0.5504180000000  0.4857770000000  0.6161810000000 1.0
C      1  0.4825860000000  0.6097960000000  0.5217070000000 1.0
C      1  0.4685390000000  0.4503700000000  0.4661940000000 1.0
C      1  0.4498240000000  0.4219590000000  0.4666400000000 1.0
C      1  0.4906120000000  0.4374330000000  0.5293840000000 1.0
C      1  0.5415660000000  0.5558380000000  0.5972590000000 1.0
C      1  0.4162640000000  0.4371850000000  0.5097570000000 1.0
C      1  0.5187940000000  0.5874040000000  0.5443430000000 1.0
C      1  0.4080880000000  0.5308610000000  0.4185860000000 1.0
C      1  0.5320780000000  0.3972780000000  0.4696810000000 1.0
C      1  0.5784120000000  0.4765040000000  0.5473470000000 1.0
C      1  0.6151040000000  0.5489630000000  0.5426790000000 1.0
C      1  0.4762290000000  0.4189610000000  0.4219850000000 1.0
C      1  0.4399710000000  0.4429500000000  0.5412260000000 1.0
C      1  0.4647270000000  0.5324190000000  0.6070910000000 1.0
C      1  0.5415460000000  0.5037100000000  0.5594180000000 1.0
C      1  0.4247210000000  0.4547210000000  0.4345350000000 1.0
C      1  0.5619260000000  0.4565320000000  0.4586340000000 1.0
C      1  0.4284300000000  0.5332070000000  0.5676630000000 1.0
C      1  0.4732940000000  0.4870710000000  0.6003430000000 1.0
C      1  0.4555690000000  0.4992050000000  0.4536030000000 1.0
C      1  0.4816080000000  0.5059160000000  0.4404220000000 1.0
C      1  0.5407050000000  0.5324580000000  0.4003820000000 1.0
C      1  0.4043370000000  0.5295700000000  0.4881010000000 1.0
C      1  0.4234130000000  0.5214670000000  0.4611090000000 1.0
C      1  0.4151120000000  0.5191810000000  0.5250620000000 1.0
C      1  0.4377790000000  0.4583580000000  0.5685790000000 1.0
C      1  0.5321290000000  0.4722150000000  0.3989390000000 1.0
C      1  0.6014400000000  0.4482210000000  0.5089370000000 1.0
C      1  0.5973330000000  0.5375980000000  0.4450520000000 1.0
C      1  0.5136420000000  0.6117950000000  0.4623520000000 1.0
C      1  0.5580080000000  0.4682390000000  0.5037860000000 1.0
C      1  0.4046460000000  0.4931110000000  0.4608670000000 1.0
C      1  0.5111520000000  0.5179790000000  0.5977930000000 1.0
C      1  0.4311030000000  0.5436640000000  0.5191390000000 1.0
C      1  0.3808750000000  0.5067680000000  0.4797760000000 1.0
C      1  0.5139780000000  0.5839180000000  0.4725960000000 1.0
C      1  0.4579270000000  0.4765600000000  0.5300040000000 1.0
C      1  0.4232900000000  0.5792340000000  0.5033640000000 1.0
C      1  0.4021750000000  0.4423780000000  0.4524340000000 1.0
C      1  0.5602230000000  0.5139610000000  0.4127340000000 1.0
C      1  0.4544680000000  0.4733970000000  0.3958690000000 1.0
C      1  0.4279090000000  0.5132070000000  0.4284140000000 1.0
C      1  0.5040830000000  0.5696430000000  0.4997710000000 1.0
C      1  0.5913080000000  0.5140250000000  0.5646220000000 1.0
C      1  0.5615370000000  0.4510670000000  0.5612300000000 1.0
C      1  0.5088130000000  0.5336700000000  0.3998150000000 1.0
C      1  0.5877660000000  0.5677350000000  0.5396810000000 1.0
C      1  0.6063800000000  0.4978880000000  0.5852300000000 1.0
C      1  0.5098070000000  0.5979590000000  0.5173920000000 1.0
C      1  0.4844030000000  0.4655930000000  0.5483050000000 1.0
C      1  0.5097820000000  0.4573050000000  0.5683550000000 1.0
C      1  0.4973590000000  0.5188580000000  0.5161010000000 1.0
C      1  0.4346250000000  0.3911150000000  0.5037440000000 1.0
C      1  0.4393760000000  0.4955580000000  0.5815720000000 1.0
C      1  0.6196340000000  0.5299280000000  0.4997680000000 1.0
C      1  0.5314870000000  0.5528480000000  0.4917140000000 1.0
C      1  0.4178740000000  0.5137390000000  0.5532580000000 1.0
C      1  0.5506510000000  0.5506620000000  0.4498480000000 1.0
C      1  0.4824140000000  0.5116800000000  0.6098550000000 1.0
C      1  0.5021110000000  0.5069580000000  0.4148980000000 1.0
C      1  0.6144710000000  0.4779630000000  0.4860880000000 1.0
C      1  0.4007880000000  0.5559790000000  0.4964030000000 1.0
C      1  0.4067220000000  0.4470420000000  0.4798340000000 1.0
C      1  0.4694770000000  0.4990150000000  0.3814370000000 1.0
C      1  0.5383610000000  0.5639920000000  0.5381730000000 1.0
C      1  0.5184390000000  0.3975920000000  0.5123170000000 1.0
C      1  0.3998010000000  0.4854690000000  0.4331760000000 1.0
C      1  0.5255310000000  0.5332460000000  0.4647700000000 1.0
C      1  0.4658480000000  0.4883210000000  0.4905520000000 1.0
C      1  0.4485840000000  0.4195100000000  0.4142570000000 1.0
C      1  0.4557220000000  0.5540390000000  0.4446510000000 1.0
C      1  0.4555870000000  0.4228440000000  0.5720220000000 1.0
C      1  0.5483730000000  0.3934930000000  0.5142390000000 1.0
C      1  0.3864470000000  0.5043100000000  0.5133140000000 1.0
C      1  0.4170660000000  0.5703280000000  0.5349020000000 1.0
C      1  0.4695880000000  0.5961180000000  0.5489760000000 1.0
C      1  0.5447050000000  0.4920120000000  0.4648490000000 1.0
C      1  0.4021270000000  0.4826070000000  0.5339710000000 1.0
C      1  0.5133340000000  0.5198230000000  0.5637740000000 1.0
C      1  0.5484140000000  0.4932420000000  0.4310720000000 1.0
C      1  0.5055750000000  0.4692460000000  0.6139220000000 1.0
C      1  0.4594440000000  0.4379840000000  0.5157860000000 1.0
C      1  0.4992040000000  0.5901120000000  0.5645880000000 1.0
C      1  0.6053860000000  0.4423740000000  0.4501620000000 1.0
C      1  0.4874880000000  0.4439010000000  0.4185660000000 1.0
C      1  0.4293080000000  0.4831250000000  0.4164190000000 1.0
C      1  0.4257630000000  0.5549510000000  0.4556300000000 1.0
C      1  0.4152330000000  0.4218140000000  0.5401090000000 1.0
C      1  0.4384730000000  0.5586370000000  0.5553870000000 1.0
C      1  0.4781720000000  0.5763470000000  0.4570830000000 1.0
C      1  0.5386130000000  0.4408010000000  0.4982820000000 1.0
C      1  0.4261570000000  0.4668930000000  0.5231470000000 1.0
C      1  0.4248550000000  0.4738000000000  0.4802420000000 1.0
C      1  0.4572020000000  0.5377710000000  0.5015090000000 1.0
C      1  0.5231590000000  0.4913510000000  0.6152730000000 1.0
C      1  0.4771510000000  0.4100480000000  0.4515300000000 1.0
C      1  0.5485810000000  0.4095820000000  0.4891540000000 1.0
C      1  0.5143410000000  0.5832710000000  0.4218380000000 1.0
C      1  0.5741910000000  0.5189680000000  0.5138250000000 1.0
C      1  0.5550330000000  0.4335440000000  0.5372290000000 1.0
C      1  0.5586680000000  0.4648940000000  0.4197250000000 1.0
C      1  0.5629320000000  0.5635410000000  0.5556760000000 1.0
C      1  0.4980760000000  0.5562870000000  0.4181520000000 1.0
C      1  0.4974320000000  0.5981990000000  0.4395190000000 1.0
C      1  0.4647520000000  0.5720560000000  0.5721110000000 1.0
C      1  0.5052140000000  0.3909650000000  0.5361340000000 1.0
C      1  0.4363990000000  0.4093960000000  0.4387460000000 1.0
C      1  0.4948420000000  0.4543470000000  0.4450910000000 1.0
C      1  0.4148990000000  0.4831360000000  0.5642000000000 1.0
C      1  0.5776220000000  0.5476730000000  0.4676240000000 1.0
C      1  0.5685440000000  0.4796550000000  0.4776560000000 1.0
C      1  0.6122630000000  0.4490100000000  0.4769060000000 1.0
C      1  0.5598580000000  0.5473770000000  0.5776650000000 1.0
C      1  0.4944130000000  0.4536690000000  0.5942940000000 1.0
C      1  0.6004530000000  0.5058010000000  0.4447250000000 1.0
C      1  0.3975440000000  0.5447320000000  0.4414740000000 1.0
C      1  0.5742690000000  0.4445650000000  0.5155320000000 1.0
C      1  0.5567130000000  0.4571380000000  0.3866790000000 1.0
C      1  0.5073090000000  0.4278220000000  0.5013250000000 1.0
C      1  0.5065800000000  0.4813090000000  0.4003770000000 1.0
C      1  0.6120600000000  0.4779950000000  0.5161470000000 1.0
C      1  0.5331960000000  0.6139160000000  0.5044920000000 1.0
C      1  0.4781530000000  0.3967530000000  0.5354080000000 1.0
C      1  0.5937860000000  0.4947480000000  0.4725030000000 1.0
C      1  0.5139700000000  0.5497810000000  0.5962040000000 1.0
C      1  0.5375740000000  0.4719410000000  0.5701220000000 1.0
C      1  0.5850100000000  0.4775790000000  0.5795200000000 1.0
C      1  0.5478170000000  0.5861730000000  0.5141530000000 1.0
C      1  0.5463670000000  0.3945130000000  0.5635490000000 1.0
C      1  0.5028080000000  0.4826040000000  0.4463390000000 1.0
C      1  0.4166670000000  0.4996100000000  0.4984590000000 1.0
C      1  0.4294250000000  0.4127810000000  0.5650660000000 1.0
C      1  0.5793760000000  0.5876550000000  0.5156880000000 1.0
C      1  0.4841070000000  0.5191390000000  0.3814990000000 1.0
C      1  0.5228700000000  0.5069410000000  0.4862190000000 1.0
C      1  0.5960470000000  0.5022330000000  0.5338120000000 1.0
C      1  0.4775100000000  0.3970160000000  0.4834520000000 1.0
C      1  0.5751740000000  0.4362890000000  0.5839320000000 1.0
C      1  0.5283980000000  0.6268280000000  0.4811380000000 1.0
C      1  0.4849650000000  0.4641110000000  0.4000740000000 1.0
C      1  0.4376750000000  0.5246650000000  0.5945040000000 1.0
C      1  0.4665390000000  0.5405170000000  0.5772300000000 1.0
C      1  0.5909580000000  0.5224570000000  0.4845790000000 1.0
C      1  0.5403520000000  0.5765910000000  0.4299240000000 1.0
C      1  0.4449350000000  0.4719870000000  0.6034150000000 1.0
C      1  0.5204200000000  0.4065690000000  0.5556950000000 1.0
C      1  0.5534020000000  0.5531510000000  0.4160500000000 1.0
C      1  0.5373400000000  0.3768900000000  0.4524720000000 1.0
C      1  0.4893250000000  0.5120510000000  0.4837680000000 1.0
C      1  0.5218150000000  0.4382660000000  0.5428850000000 1.0
C      1  0.4212810000000  0.5800640000000  0.4719210000000 1.0
C      1  0.4701200000000  0.5275170000000  0.5312440000000 1.0
C      1  0.5412420000000  0.5145200000000  0.5140180000000 1.0
C      1  0.4317950000000  0.4177330000000  0.4902700000000 1.0
C      1  0.5901420000000  0.5796580000000  0.4888510000000 1.0
C      1  0.4510910000000  0.5858120000000  0.5216970000000 1.0
C      1  0.4678880000000  0.5597120000000  0.4164040000000 1.0
C      1  0.5217370000000  0.5344240000000  0.5339920000000 1.0
C      1  0.5049550000000  0.4127050000000  0.4709320000000 1.0
C      1  0.4747980000000  0.4190750000000  0.5532580000000 1.0
C      1  0.5501760000000  0.4866200000000  0.5313080000000 1.0
C      1  0.6093130000000  0.5575190000000  0.4899530000000 1.0
C      1  0.4452520000000  0.4709640000000  0.4531840000000 1.0
C      1  0.5648850000000  0.5206170000000  0.5709240000000 1.0
C      1  0.5398210000000  0.4440670000000  0.4668000000000 1.0
C      1  0.5091730000000  0.4796940000000  0.5013240000000 1.0
C      1  0.5158590000000  0.4372990000000  0.4558790000000 1.0
C      1  0.4968810000000  0.5567680000000  0.5276860000000 1.0
C      1  0.5212570000000  0.5098200000000  0.4404750000000 1.0
C      1  0.5586880000000  0.4037670000000  0.5383470000000 1.0
C      1  0.3789160000000  0.5323630000000  0.4574490000000 1.0
C      1  0.5874880000000  0.5487630000000  0.5138850000000 1.0
C      1  0.5588870000000  0.5675080000000  0.4879200000000 1.0
C      1  0.4774170000000  0.5322080000000  0.4591080000000 1.0
C      1  0.4525870000000  0.4594200000000  0.4942850000000 1.0
C      1  0.4544600000000  0.5675450000000  0.3955560000000 1.0
C      1  0.5609530000000  0.4758450000000  0.5925250000000 1.0
C      1  0.6182960000000  0.5259850000000  0.5275460000000 1.0
C      1  0.4348720000000  0.6017520000000  0.4622630000000 1.0
C      1  0.4495170000000  0.5151050000000  0.4819440000000 1.0
C      1  0.5246770000000  0.4674980000000  0.5257450000000 1.0
C      1  0.4963060000000  0.5664340000000  0.5836170000000 1.0
C      1  0.4651620000000  0.5592010000000  0.5343270000000 1.0
C      1  0.4646860000000  0.6054520000000  0.4981360000000 1.0
C      1  0.4387730000000  0.4456130000000  0.4076590000000 1.0
C      1  0.5812210000000  0.4506290000000  0.4380270000000 1.0
C      1  0.4836430000000  0.4904690000000  0.5168900000000 1.0
C      1  0.4695520000000  0.4901410000000  0.5666310000000 1.0
C      1  0.4615940000000  0.6012550000000  0.4712100000000 1.0
C      1  0.4956240000000  0.4555650000000  0.4861000000000 1.0
C      1  0.4781940000000  0.5544520000000  0.4848120000000 1.0
C      1  0.4624350000000  0.4480270000000  0.5897050000000 1.0
C      1  0.4641610000000  0.4048130000000  0.5095810000000 1.0
C      1  0.5860190000000  0.5207560000000  0.4201690000000 1.0
END
