TITL C-2848506-1665-377 -0.00142827692540474 125000 -942.13280229408 0 0 177 (C1) n - 1
REM
REM in /home/bkarasulu/work/CARBON/AIRSS/Generating-Clusters/AIREBO/with-SteepDescent/Only-C1/SD-CG-opt/Try1-1.4A-POS3A/HFTN-CG
REM
REM
REM
REM
REM
REM ./C.cell (11c1c37f851c82e70ff6c80c92926a4b)
REM
REM compiler GCC version 9.2.1 20190827 (Red Hat 9.2.1-1)
REM options -cpp -mtune=generic -march=x86-64 -g -O0 -fpre-include=/usr/include/finclude/math-vector-fortran.h
REM seed 1125313635 -1414771637 -2051306336 348177855 -1094810971 -1993650393 -609481648 1080242480 -1630018476 2063118600 1041944586 1758371256 -2069493661 -2023215225 526338579 -1766159404 -420063888 -206195908 2058960262 -848811590 -1753919001 -1708289877 1227562520 799291229 -806662377 648244125 320247800 1103427543 -973645334 1017791086 -126137535 519295390 736919311
REM
CELL 1.54180   50.00000   50.00000   50.00000   90.00000   90.00000   90.00000
LATT -1
SFAC C  
C      1  0.4436750000000  0.4813190000000  0.5982870000000 1.0
C      1  0.4611770000000  0.4596660000000  0.5994220000000 1.0
C      1  0.4529220000000  0.4464440000000  0.4537340000000 1.0
C      1  0.4495240000000  0.5585490000000  0.5084860000000 1.0
C      1  0.4797290000000  0.5870510000000  0.5681350000000 1.0
C      1  0.5677750000000  0.5190800000000  0.5441740000000 1.0
C      1  0.5069720000000  0.5116690000000  0.4887100000000 1.0
C      1  0.5853280000000  0.5450410000000  0.5309720000000 1.0
C      1  0.5693690000000  0.4519720000000  0.5698940000000 1.0
C      1  0.5847700000000  0.5713720000000  0.4737380000000 1.0
C      1  0.5376460000000  0.4396360000000  0.4852690000000 1.0
C      1  0.4439610000000  0.4972630000000  0.4318180000000 1.0
C      1  0.4638970000000  0.5976100000000  0.5172500000000 1.0
C      1  0.4923030000000  0.5863240000000  0.5023470000000 1.0
C      1  0.5103840000000  0.5672420000000  0.5361720000000 1.0
C      1  0.4814830000000  0.5593780000000  0.5200780000000 1.0
C      1  0.5341970000000  0.5234200000000  0.5553730000000 1.0
C      1  0.4427220000000  0.5229390000000  0.5444630000000 1.0
C      1  0.5363160000000  0.5601270000000  0.4210090000000 1.0
C      1  0.5930190000000  0.5548130000000  0.4508550000000 1.0
C      1  0.5949420000000  0.4839390000000  0.4921430000000 1.0
C      1  0.4979760000000  0.5586810000000  0.4837940000000 1.0
C      1  0.4344150000000  0.4991400000000  0.4812740000000 1.0
C      1  0.4667750000000  0.4234750000000  0.4833590000000 1.0
C      1  0.4875030000000  0.5460560000000  0.3979070000000 1.0
C      1  0.4914110000000  0.5163700000000  0.4112110000000 1.0
C      1  0.5304790000000  0.5124940000000  0.3926950000000 1.0
C      1  0.4572410000000  0.5237030000000  0.4753570000000 1.0
C      1  0.4204280000000  0.5642860000000  0.5242990000000 1.0
C      1  0.4534740000000  0.4409080000000  0.5727840000000 1.0
C      1  0.5910600000000  0.5653940000000  0.5041700000000 1.0
C      1  0.4979670000000  0.4133970000000  0.4256930000000 1.0
C      1  0.5360580000000  0.5575780000000  0.4621760000000 1.0
C      1  0.5266750000000  0.3910810000000  0.4955800000000 1.0
C      1  0.4188600000000  0.4288030000000  0.5062090000000 1.0
C      1  0.5326940000000  0.4196020000000  0.4483340000000 1.0
C      1  0.4510560000000  0.5346550000000  0.5874820000000 1.0
C      1  0.5634930000000  0.5006100000000  0.4202670000000 1.0
C      1  0.4456500000000  0.4915850000000  0.5688400000000 1.0
C      1  0.4144440000000  0.5316130000000  0.4861540000000 1.0
C      1  0.4549720000000  0.5680740000000  0.4327520000000 1.0
C      1  0.5125850000000  0.3906670000000  0.5243870000000 1.0
C      1  0.4203500000000  0.5619740000000  0.4902960000000 1.0
C      1  0.4995590000000  0.4305610000000  0.4017860000000 1.0
C      1  0.5891760000000  0.4698200000000  0.5541350000000 1.0
C      1  0.5621520000000  0.4152610000000  0.5404120000000 1.0
C      1  0.5271710000000  0.4774830000000  0.4458920000000 1.0
C      1  0.5209510000000  0.5400150000000  0.4945410000000 1.0
C      1  0.5076590000000  0.4318520000000  0.5560810000000 1.0
C      1  0.4044150000000  0.4644800000000  0.5362410000000 1.0
C      1  0.4643600000000  0.5700490000000  0.5474490000000 1.0
C      1  0.5692180000000  0.5572010000000  0.4291100000000 1.0
C      1  0.5710950000000  0.4216430000000  0.5627210000000 1.0
C      1  0.5748080000000  0.4494950000000  0.4235600000000 1.0
C      1  0.4932710000000  0.4868260000000  0.5382230000000 1.0
C      1  0.4276240000000  0.4193190000000  0.4402060000000 1.0
C      1  0.4972640000000  0.4887870000000  0.4575170000000 1.0
C      1  0.4870110000000  0.4847080000000  0.4045570000000 1.0
C      1  0.5117160000000  0.6091670000000  0.5426580000000 1.0
C      1  0.4189670000000  0.5184520000000  0.5126590000000 1.0
C      1  0.5805570000000  0.4799830000000  0.4326910000000 1.0
C      1  0.4786130000000  0.3924790000000  0.4880370000000 1.0
C      1  0.5212950000000  0.5295940000000  0.4206370000000 1.0
C      1  0.5497560000000  0.5745620000000  0.5409490000000 1.0
C      1  0.4832110000000  0.6026410000000  0.4727250000000 1.0
C      1  0.4542800000000  0.4828150000000  0.4042850000000 1.0
C      1  0.5456920000000  0.5571090000000  0.4947940000000 1.0
C      1  0.4180130000000  0.5068150000000  0.5630780000000 1.0
C      1  0.5431940000000  0.5218730000000  0.5128090000000 1.0
C      1  0.5328930000000  0.3942160000000  0.4315070000000 1.0
C      1  0.5021750000000  0.5338850000000  0.5600760000000 1.0
C      1  0.4105330000000  0.4736490000000  0.5623370000000 1.0
C      1  0.5625840000000  0.5707090000000  0.5109100000000 1.0
C      1  0.5442540000000  0.4909570000000  0.5868530000000 1.0
C      1  0.5709120000000  0.4666660000000  0.4862910000000 1.0
C      1  0.5525120000000  0.4664010000000  0.5125820000000 1.0
C      1  0.6047380000000  0.4936510000000  0.4426470000000 1.0
C      1  0.5404620000000  0.5196520000000  0.5946670000000 1.0
C      1  0.4712270000000  0.5409860000000  0.6074990000000 1.0
C      1  0.5290920000000  0.5899960000000  0.5631050000000 1.0
C      1  0.4024590000000  0.5027980000000  0.4735270000000 1.0
C      1  0.4700110000000  0.5114360000000  0.5713170000000 1.0
C      1  0.3847160000000  0.4730030000000  0.5187230000000 1.0
C      1  0.4972650000000  0.4911590000000  0.5696800000000 1.0
C      1  0.4883220000000  0.5210160000000  0.4618140000000 1.0
C      1  0.4350090000000  0.4154010000000  0.4923830000000 1.0
C      1  0.4897900000000  0.4636890000000  0.5135300000000 1.0
C      1  0.5141670000000  0.4555730000000  0.6118080000000 1.0
C      1  0.5587020000000  0.5094160000000  0.3950390000000 1.0
C      1  0.5059890000000  0.5649090000000  0.4097930000000 1.0
C      1  0.3823860000000  0.4908070000000  0.4916530000000 1.0
C      1  0.4961260000000  0.5001310000000  0.6113920000000 1.0
C      1  0.5286460000000  0.4898890000000  0.5565380000000 1.0
C      1  0.4455530000000  0.5030840000000  0.5194860000000 1.0
C      1  0.5328930000000  0.5028460000000  0.4685420000000 1.0
C      1  0.4472000000000  0.4789030000000  0.5398730000000 1.0
C      1  0.5389580000000  0.4445670000000  0.5566070000000 1.0
C      1  0.4687850000000  0.4555510000000  0.5390010000000 1.0
C      1  0.4501450000000  0.4294850000000  0.5410520000000 1.0
C      1  0.4149200000000  0.5420340000000  0.5445380000000 1.0
C      1  0.4188320000000  0.5389150000000  0.4437170000000 1.0
C      1  0.5275660000000  0.4710170000000  0.4792730000000 1.0
C      1  0.5029160000000  0.4571320000000  0.3913270000000 1.0
C      1  0.3754420000000  0.5036930000000  0.5207820000000 1.0
C      1  0.6016350000000  0.5231460000000  0.4593600000000 1.0
C      1  0.4653380000000  0.4034220000000  0.5371150000000 1.0
C      1  0.4694480000000  0.5395900000000  0.5526190000000 1.0
C      1  0.5754550000000  0.5291630000000  0.4754740000000 1.0
C      1  0.4614690000000  0.4569570000000  0.4807260000000 1.0
C      1  0.5143320000000  0.5243060000000  0.6027480000000 1.0
C      1  0.4612690000000  0.4541290000000  0.4059730000000 1.0
C      1  0.5056750000000  0.5662710000000  0.5698540000000 1.0
C      1  0.4756380000000  0.4453390000000  0.4331240000000 1.0
C      1  0.5465180000000  0.4332340000000  0.5171830000000 1.0
C      1  0.5572120000000  0.5371330000000  0.4528280000000 1.0
C      1  0.5226600000000  0.5863980000000  0.4383770000000 1.0
C      1  0.5255710000000  0.4640610000000  0.5331960000000 1.0
C      1  0.4981880000000  0.5483450000000  0.5977870000000 1.0
C      1  0.6120230000000  0.4939980000000  0.4728810000000 1.0
C      1  0.5585700000000  0.4349520000000  0.4472540000000 1.0
C      1  0.5054840000000  0.4384880000000  0.4461830000000 1.0
C      1  0.5870280000000  0.4923850000000  0.5405940000000 1.0
C      1  0.4399780000000  0.4713730000000  0.4958300000000 1.0
C      1  0.4857720000000  0.4504380000000  0.5679870000000 1.0
C      1  0.5334950000000  0.5461360000000  0.5317970000000 1.0
C      1  0.4315930000000  0.5907650000000  0.4425040000000 1.0
C      1  0.5155790000000  0.4245960000000  0.5238160000000 1.0
C      1  0.4841340000000  0.6045790000000  0.5436740000000 1.0
C      1  0.5181090000000  0.4875600000000  0.3914870000000 1.0
C      1  0.4920620000000  0.4704690000000  0.5950410000000 1.0
C      1  0.5381460000000  0.4664990000000  0.6097350000000 1.0
C      1  0.4956950000000  0.4340990000000  0.4977930000000 1.0
C      1  0.5836830000000  0.4382870000000  0.4018460000000 1.0
C      1  0.4191180000000  0.5115150000000  0.4466890000000 1.0
C      1  0.4802620000000  0.4819870000000  0.4864850000000 1.0
C      1  0.5152790000000  0.4153160000000  0.4772360000000 1.0
C      1  0.4225920000000  0.4541180000000  0.5781990000000 1.0
C      1  0.4757820000000  0.5173200000000  0.6242040000000 1.0
C      1  0.5898210000000  0.5007600000000  0.5133860000000 1.0
C      1  0.5703490000000  0.5561110000000  0.5594310000000 1.0
C      1  0.5650430000000  0.4667200000000  0.5948210000000 1.0
C      1  0.5077110000000  0.5455040000000  0.4474570000000 1.0
C      1  0.4243580000000  0.4496540000000  0.4385240000000 1.0
C      1  0.5283920000000  0.5918730000000  0.5208800000000 1.0
C      1  0.4195190000000  0.4744770000000  0.4290460000000 1.0
C      1  0.5021420000000  0.4525180000000  0.4716490000000 1.0
C      1  0.4957680000000  0.5140720000000  0.5371460000000 1.0
C      1  0.4897120000000  0.4728150000000  0.4330410000000 1.0
C      1  0.5438230000000  0.5133020000000  0.4397540000000 1.0
C      1  0.5167420000000  0.4831890000000  0.5064560000000 1.0
C      1  0.4395870000000  0.5859500000000  0.5356870000000 1.0
C      1  0.5577830000000  0.5834380000000  0.4679320000000 1.0
C      1  0.4642350000000  0.5568310000000  0.4786520000000 1.0
C      1  0.5488090000000  0.4955290000000  0.5297330000000 1.0
C      1  0.4942390000000  0.4033790000000  0.5496100000000 1.0
C      1  0.4575260000000  0.5896140000000  0.4847910000000 1.0
C      1  0.4816200000000  0.3878300000000  0.5154750000000 1.0
C      1  0.4882510000000  0.5267970000000  0.5127410000000 1.0
C      1  0.5981910000000  0.4148040000000  0.4854600000000 1.0
C      1  0.4360360000000  0.5611320000000  0.4601370000000 1.0
C      1  0.5692300000000  0.4172590000000  0.4978520000000 1.0
C      1  0.4867800000000  0.5697270000000  0.4351310000000 1.0
C      1  0.3951130000000  0.5204810000000  0.5308070000000 1.0
C      1  0.4682200000000  0.5174340000000  0.4346070000000 1.0
C      1  0.5757640000000  0.4375310000000  0.4733620000000 1.0
C      1  0.4682790000000  0.5076490000000  0.5000450000000 1.0
C      1  0.5180710000000  0.5834490000000  0.4719560000000 1.0
C      1  0.5557150000000  0.5384580000000  0.5769850000000 1.0
C      1  0.4243150000000  0.5365940000000  0.5767660000000 1.0
C      1  0.4900730000000  0.4036350000000  0.4576140000000 1.0
C      1  0.5381150000000  0.5962870000000  0.4925190000000 1.0
C      1  0.4920980000000  0.5988610000000  0.4465640000000 1.0
C      1  0.5587370000000  0.4682410000000  0.4545670000000 1.0
C      1  0.4321130000000  0.4532040000000  0.5234880000000 1.0
C      1  0.4631120000000  0.5434280000000  0.4165590000000 1.0
C      1  0.5736760000000  0.5260120000000  0.5053000000000 1.0
C      1  0.4592570000000  0.4138620000000  0.4514940000000 1.0
END
