TITL C-2847955-7945-423 -0.000706759372446353 125000 -821.331829123184 0 0 152 (C1) n - 1
REM
REM in /home/bkarasulu/work/CARBON/AIRSS/Generating-Clusters/AIREBO/with-SteepDescent/Only-C1/SD-CG-opt/Try1-1.4A-POS3A/HFTN-CG
REM
REM
REM
REM
REM
REM ./C.cell (11c1c37f851c82e70ff6c80c92926a4b)
REM
REM compiler GCC version 9.2.1 20190827 (Red Hat 9.2.1-1)
REM options -cpp -mtune=generic -march=x86-64 -g -O0 -fpre-include=/usr/include/finclude/math-vector-fortran.h
REM seed 1800053022 -1988885215 1515054239 1333171769 -369053271 909780748 807212493 1578198118 588935047 -507072151 -1975957238 2052456657 1431605036 652928904 -1793541577 -1626016509 1875622138 -1196658619 -1661987146 -360615376 212063161 415002460 838035210 587614426 -1053001930 -1733752017 748894251 384169267 1582332852 375349087 734994457 -418001193 16024434
REM
CELL 1.54180   50.00000   50.00000   50.00000   90.00000   90.00000   90.00000
LATT -1
SFAC C  
C      1  0.4194830000000  0.4710710000000  0.4737100000000 1.0
C      1  0.4429960000000  0.5175940000000  0.5773270000000 1.0
C      1  0.5563110000000  0.4636530000000  0.5592130000000 1.0
C      1  0.4774880000000  0.5372470000000  0.5184650000000 1.0
C      1  0.5774940000000  0.5345650000000  0.4765700000000 1.0
C      1  0.4723330000000  0.4283600000000  0.5383490000000 1.0
C      1  0.4526730000000  0.5995380000000  0.5085230000000 1.0
C      1  0.4511740000000  0.4076210000000  0.5003900000000 1.0
C      1  0.4269320000000  0.4907340000000  0.4220530000000 1.0
C      1  0.4449150000000  0.4727800000000  0.4121830000000 1.0
C      1  0.5279100000000  0.4417490000000  0.5149600000000 1.0
C      1  0.4018610000000  0.5005140000000  0.4740080000000 1.0
C      1  0.4628360000000  0.4243730000000  0.4222500000000 1.0
C      1  0.4134180000000  0.5464550000000  0.4486950000000 1.0
C      1  0.5020890000000  0.5535590000000  0.5082260000000 1.0
C      1  0.4461700000000  0.5023270000000  0.5290540000000 1.0
C      1  0.4713270000000  0.5103990000000  0.4075890000000 1.0
C      1  0.3995720000000  0.5302890000000  0.4687340000000 1.0
C      1  0.5381870000000  0.5471250000000  0.4348290000000 1.0
C      1  0.4257620000000  0.5098710000000  0.5537400000000 1.0
C      1  0.4724650000000  0.4720100000000  0.5212460000000 1.0
C      1  0.4731880000000  0.5912410000000  0.4848030000000 1.0
C      1  0.5081340000000  0.5207490000000  0.6006860000000 1.0
C      1  0.4411320000000  0.4942950000000  0.4779280000000 1.0
C      1  0.6070320000000  0.4862480000000  0.5244890000000 1.0
C      1  0.4539240000000  0.4539490000000  0.4331440000000 1.0
C      1  0.4666530000000  0.5694720000000  0.5176550000000 1.0
C      1  0.5102710000000  0.6072380000000  0.5352300000000 1.0
C      1  0.4405760000000  0.4628200000000  0.5286580000000 1.0
C      1  0.4939260000000  0.4119660000000  0.4781010000000 1.0
C      1  0.4944250000000  0.5130120000000  0.4296940000000 1.0
C      1  0.4602500000000  0.4918420000000  0.5890040000000 1.0
C      1  0.5615240000000  0.5070110000000  0.5861600000000 1.0
C      1  0.4439010000000  0.5505990000000  0.4741770000000 1.0
C      1  0.5646650000000  0.5623800000000  0.5283560000000 1.0
C      1  0.5955220000000  0.4945230000000  0.5496990000000 1.0
C      1  0.4688400000000  0.5093910000000  0.5075550000000 1.0
C      1  0.4930150000000  0.5887460000000  0.5753390000000 1.0
C      1  0.4799910000000  0.4013120000000  0.4527880000000 1.0
C      1  0.5482520000000  0.5300360000000  0.5646050000000 1.0
C      1  0.4859180000000  0.4254580000000  0.5083060000000 1.0
C      1  0.5040170000000  0.5453450000000  0.4340810000000 1.0
C      1  0.5177820000000  0.6025760000000  0.5087950000000 1.0
C      1  0.5590100000000  0.4158990000000  0.4839820000000 1.0
C      1  0.4961180000000  0.5543480000000  0.4659150000000 1.0
C      1  0.4864620000000  0.4982090000000  0.6048440000000 1.0
C      1  0.5019250000000  0.4601330000000  0.5637670000000 1.0
C      1  0.5648770000000  0.5785000000000  0.5055600000000 1.0
C      1  0.4922660000000  0.4692190000000  0.4030680000000 1.0
C      1  0.4008370000000  0.4955800000000  0.5044890000000 1.0
C      1  0.4330080000000  0.4442790000000  0.4575440000000 1.0
C      1  0.5156330000000  0.3937000000000  0.4957220000000 1.0
C      1  0.5543240000000  0.4636850000000  0.5120720000000 1.0
C      1  0.5067100000000  0.4670410000000  0.4744460000000 1.0
C      1  0.4029280000000  0.4728530000000  0.5209630000000 1.0
C      1  0.5076160000000  0.4856760000000  0.5816240000000 1.0
C      1  0.5860670000000  0.5436960000000  0.5282220000000 1.0
C      1  0.5653060000000  0.5379470000000  0.4164410000000 1.0
C      1  0.5627470000000  0.4741990000000  0.4369290000000 1.0
C      1  0.5353650000000  0.4896670000000  0.4361070000000 1.0
C      1  0.5291880000000  0.5147740000000  0.5327360000000 1.0
C      1  0.5134060000000  0.5318780000000  0.4847060000000 1.0
C      1  0.4456220000000  0.5371350000000  0.4429880000000 1.0
C      1  0.4680420000000  0.4837380000000  0.3999500000000 1.0
C      1  0.5148200000000  0.4367830000000  0.4678440000000 1.0
C      1  0.5031580000000  0.6118590000000  0.5636100000000 1.0
C      1  0.4928300000000  0.5798130000000  0.5367640000000 1.0
C      1  0.5118460000000  0.4234170000000  0.4236070000000 1.0
C      1  0.5779060000000  0.4837160000000  0.5693260000000 1.0
C      1  0.4733940000000  0.3950180000000  0.5168330000000 1.0
C      1  0.5003430000000  0.5866530000000  0.4560000000000 1.0
C      1  0.4166960000000  0.5514160000000  0.5241610000000 1.0
C      1  0.5726690000000  0.5676420000000  0.4778500000000 1.0
C      1  0.4452870000000  0.4373820000000  0.4884980000000 1.0
C      1  0.5297970000000  0.5445060000000  0.5203390000000 1.0
C      1  0.5459170000000  0.5649740000000  0.4583010000000 1.0
C      1  0.4354540000000  0.4550600000000  0.5613720000000 1.0
C      1  0.5274850000000  0.4827320000000  0.4897240000000 1.0
C      1  0.5338740000000  0.4997010000000  0.5692340000000 1.0
C      1  0.5031090000000  0.5588070000000  0.4030210000000 1.0
C      1  0.5414250000000  0.4332060000000  0.5563030000000 1.0
C      1  0.4576150000000  0.4209500000000  0.4545760000000 1.0
C      1  0.4334780000000  0.5739260000000  0.4517270000000 1.0
C      1  0.4415970000000  0.5619770000000  0.5393870000000 1.0
C      1  0.3961930000000  0.5483940000000  0.4966950000000 1.0
C      1  0.5763310000000  0.4587140000000  0.4876970000000 1.0
C      1  0.5573490000000  0.4975540000000  0.5113290000000 1.0
C      1  0.4669750000000  0.5806980000000  0.4530800000000 1.0
C      1  0.5422170000000  0.4493530000000  0.5866680000000 1.0
C      1  0.5386520000000  0.5553980000000  0.5491950000000 1.0
C      1  0.4736620000000  0.4594140000000  0.5504190000000 1.0
C      1  0.5577710000000  0.4442730000000  0.4446420000000 1.0
C      1  0.4723900000000  0.4863320000000  0.4828010000000 1.0
C      1  0.5351570000000  0.5182280000000  0.6045270000000 1.0
C      1  0.5331620000000  0.4092790000000  0.4760670000000 1.0
C      1  0.4719090000000  0.5565560000000  0.4336080000000 1.0
C      1  0.5508360000000  0.5140110000000  0.4821930000000 1.0
C      1  0.5110080000000  0.5148610000000  0.4000610000000 1.0
C      1  0.6110710000000  0.5103750000000  0.5042920000000 1.0
C      1  0.4669780000000  0.5758180000000  0.5576230000000 1.0
C      1  0.5948370000000  0.5328750000000  0.5040970000000 1.0
C      1  0.5971180000000  0.4837730000000  0.4915700000000 1.0
C      1  0.5328950000000  0.5177930000000  0.4216460000000 1.0
C      1  0.5074450000000  0.5612280000000  0.5614220000000 1.0
C      1  0.5666220000000  0.4419500000000  0.5351500000000 1.0
C      1  0.4931340000000  0.4982580000000  0.5275950000000 1.0
C      1  0.5366760000000  0.4830120000000  0.5422910000000 1.0
C      1  0.5243430000000  0.5101460000000  0.4609490000000 1.0
C      1  0.5709020000000  0.4361490000000  0.4684380000000 1.0
C      1  0.4696020000000  0.5582340000000  0.4856880000000 1.0
C      1  0.4672340000000  0.5146430000000  0.4565210000000 1.0
C      1  0.4747300000000  0.4416420000000  0.5863770000000 1.0
C      1  0.4894870000000  0.4430060000000  0.4184690000000 1.0
C      1  0.4997100000000  0.5817060000000  0.4974260000000 1.0
C      1  0.5621800000000  0.5134110000000  0.5384160000000 1.0
C      1  0.4825770000000  0.4668170000000  0.4417610000000 1.0
C      1  0.4950020000000  0.4281290000000  0.5626440000000 1.0
C      1  0.5058610000000  0.3943460000000  0.5228490000000 1.0
C      1  0.5163370000000  0.5065820000000  0.5044200000000 1.0
C      1  0.4560960000000  0.5466520000000  0.5660270000000 1.0
C      1  0.4499940000000  0.5270690000000  0.4108050000000 1.0
C      1  0.4943940000000  0.4942190000000  0.4580670000000 1.0
C      1  0.4710710000000  0.4545680000000  0.4863050000000 1.0
C      1  0.4619200000000  0.4903010000000  0.5550800000000 1.0
C      1  0.5568430000000  0.4820150000000  0.4755720000000 1.0
C      1  0.5866560000000  0.4835990000000  0.4592100000000 1.0
C      1  0.5382710000000  0.5883610000000  0.4896570000000 1.0
C      1  0.5706310000000  0.5053560000000  0.4258050000000 1.0
C      1  0.4070040000000  0.5304940000000  0.5461790000000 1.0
C      1  0.5142730000000  0.4847300000000  0.4096810000000 1.0
C      1  0.4294160000000  0.5093950000000  0.5015700000000 1.0
C      1  0.4982640000000  0.3989040000000  0.4309770000000 1.0
C      1  0.4987790000000  0.4568450000000  0.5059210000000 1.0
C      1  0.5274630000000  0.5921150000000  0.4586060000000 1.0
C      1  0.5374270000000  0.5543690000000  0.4895740000000 1.0
C      1  0.5566070000000  0.4241140000000  0.5102710000000 1.0
C      1  0.5917220000000  0.5247750000000  0.5504810000000 1.0
C      1  0.4439400000000  0.4275030000000  0.5470640000000 1.0
C      1  0.5174540000000  0.4196550000000  0.5391280000000 1.0
C      1  0.4537290000000  0.4606010000000  0.5849130000000 1.0
C      1  0.5319530000000  0.4333520000000  0.4413590000000 1.0
C      1  0.4275450000000  0.5384850000000  0.4958920000000 1.0
C      1  0.4960510000000  0.5360740000000  0.5740290000000 1.0
C      1  0.4184550000000  0.4796210000000  0.5483440000000 1.0
C      1  0.5264820000000  0.4664420000000  0.6014100000000 1.0
C      1  0.4911960000000  0.5067330000000  0.5605560000000 1.0
C      1  0.5721040000000  0.5290150000000  0.4458600000000 1.0
C      1  0.4354280000000  0.5050290000000  0.4476530000000 1.0
C      1  0.4683300000000  0.5338520000000  0.5935770000000 1.0
C      1  0.4218290000000  0.4537080000000  0.5028990000000 1.0
C      1  0.6080020000000  0.5348130000000  0.4637650000000 1.0
C      1  0.5098250000000  0.4705430000000  0.5352130000000 1.0
END
