TITL C-2848501-3133-409 0.0016916796330903 125000 -758.017411823926 0 0 141 (C1) n - 1
REM
REM in /home/bkarasulu/work/CARBON/AIRSS/Generating-Clusters/AIREBO/with-SteepDescent/Only-C1/SD-CG-opt/Try1-1.4A-POS3A/HFTN-CG
REM
REM
REM
REM
REM
REM ./C.cell (11c1c37f851c82e70ff6c80c92926a4b)
REM
REM compiler GCC version 9.2.1 20190827 (Red Hat 9.2.1-1)
REM options -cpp -mtune=generic -march=x86-64 -g -O0 -fpre-include=/usr/include/finclude/math-vector-fortran.h
REM seed -15238241 -1185726588 1867853428 -1907681704 2061401350 1567225969 -2081699961 -329206283 1024197916 -1924742955 -2058499949 1949162499 -580445677 -110016241 1928095005 -2071608590 -1674676453 98746892 329436733 1795750582 -282575525 -53212432 -1404058595 -349119895 776839167 1488666414 496164565 575315327 1855259955 -1799960525 1263629404 202319581 -1211628643
REM
CELL 1.54180   50.00000   50.00000   50.00000   90.00000   90.00000   90.00000
LATT -1
SFAC C  
C      1  0.5304780000000  0.4291470000000  0.5558130000000 1.0
C      1  0.5253320000000  0.4943240000000  0.4296490000000 1.0
C      1  0.5599670000000  0.4686490000000  0.5302940000000 1.0
C      1  0.4612270000000  0.4761940000000  0.5799060000000 1.0
C      1  0.4141480000000  0.4696300000000  0.5402490000000 1.0
C      1  0.4070170000000  0.5338700000000  0.4693980000000 1.0
C      1  0.4008260000000  0.4868710000000  0.4934150000000 1.0
C      1  0.4932490000000  0.5309920000000  0.4217150000000 1.0
C      1  0.5217290000000  0.5468520000000  0.5290700000000 1.0
C      1  0.4436690000000  0.5399690000000  0.4292390000000 1.0
C      1  0.5182690000000  0.4796460000000  0.4875360000000 1.0
C      1  0.5526730000000  0.4371290000000  0.5377290000000 1.0
C      1  0.5294340000000  0.5631150000000  0.5839280000000 1.0
C      1  0.5016960000000  0.5056130000000  0.5639660000000 1.0
C      1  0.5372780000000  0.5277600000000  0.4979220000000 1.0
C      1  0.4840680000000  0.4866530000000  0.3947030000000 1.0
C      1  0.5746590000000  0.4401790000000  0.4591600000000 1.0
C      1  0.5903050000000  0.5593380000000  0.4967880000000 1.0
C      1  0.4524650000000  0.5533850000000  0.5101160000000 1.0
C      1  0.5527860000000  0.4821290000000  0.4675280000000 1.0
C      1  0.4247360000000  0.5182710000000  0.4449290000000 1.0
C      1  0.5562970000000  0.4177510000000  0.5105650000000 1.0
C      1  0.4463760000000  0.5001570000000  0.5894630000000 1.0
C      1  0.5025530000000  0.4583520000000  0.4483680000000 1.0
C      1  0.4742530000000  0.5385140000000  0.4558490000000 1.0
C      1  0.5318190000000  0.4515390000000  0.5813630000000 1.0
C      1  0.4654930000000  0.4272550000000  0.4238420000000 1.0
C      1  0.5098020000000  0.5758270000000  0.5614580000000 1.0
C      1  0.5560810000000  0.5020400000000  0.4948960000000 1.0
C      1  0.4897590000000  0.5889970000000  0.4590810000000 1.0
C      1  0.5075350000000  0.5649690000000  0.4728760000000 1.0
C      1  0.5161150000000  0.4816420000000  0.5833310000000 1.0
C      1  0.4294830000000  0.5439690000000  0.5686200000000 1.0
C      1  0.5226660000000  0.5262900000000  0.5525420000000 1.0
C      1  0.5263970000000  0.5035550000000  0.4683960000000 1.0
C      1  0.4088100000000  0.4947340000000  0.5520650000000 1.0
C      1  0.5209390000000  0.4629440000000  0.5367790000000 1.0
C      1  0.4637960000000  0.5253910000000  0.4153410000000 1.0
C      1  0.4582870000000  0.4431020000000  0.5143390000000 1.0
C      1  0.5425580000000  0.5772120000000  0.5590830000000 1.0
C      1  0.5454420000000  0.5538730000000  0.4811440000000 1.0
C      1  0.4233770000000  0.5559370000000  0.5219060000000 1.0
C      1  0.4541500000000  0.6021830000000  0.5408370000000 1.0
C      1  0.3952820000000  0.5117440000000  0.5318830000000 1.0
C      1  0.5574770000000  0.5369720000000  0.4314570000000 1.0
C      1  0.4632710000000  0.4967290000000  0.4098200000000 1.0
C      1  0.4200910000000  0.5588730000000  0.5484060000000 1.0
C      1  0.5203090000000  0.4051300000000  0.5423280000000 1.0
C      1  0.5318690000000  0.4666450000000  0.4456360000000 1.0
C      1  0.5113850000000  0.5232440000000  0.3977240000000 1.0
C      1  0.4483760000000  0.4914670000000  0.5233380000000 1.0
C      1  0.5415900000000  0.4178610000000  0.4610870000000 1.0
C      1  0.5713370000000  0.5341980000000  0.5367730000000 1.0
C      1  0.5041050000000  0.5322870000000  0.5038970000000 1.0
C      1  0.5488130000000  0.4812400000000  0.4005270000000 1.0
C      1  0.5550450000000  0.4715140000000  0.5826320000000 1.0
C      1  0.5891930000000  0.5081550000000  0.5493840000000 1.0
C      1  0.3827800000000  0.4996790000000  0.5095990000000 1.0
C      1  0.4411880000000  0.4603640000000  0.4621180000000 1.0
C      1  0.4207020000000  0.5324170000000  0.4974900000000 1.0
C      1  0.6079530000000  0.4963650000000  0.5333080000000 1.0
C      1  0.5163510000000  0.4520510000000  0.5050340000000 1.0
C      1  0.5879500000000  0.5152390000000  0.4607830000000 1.0
C      1  0.4607130000000  0.4851930000000  0.4747290000000 1.0
C      1  0.4592710000000  0.4234010000000  0.5641190000000 1.0
C      1  0.5448930000000  0.5126400000000  0.5362370000000 1.0
C      1  0.4961450000000  0.4310600000000  0.4368670000000 1.0
C      1  0.5794150000000  0.5788520000000  0.5161740000000 1.0
C      1  0.5291190000000  0.5491940000000  0.4335870000000 1.0
C      1  0.4234110000000  0.4730680000000  0.5096100000000 1.0
C      1  0.4673950000000  0.5791250000000  0.5243250000000 1.0
C      1  0.4537310000000  0.4793640000000  0.4361700000000 1.0
C      1  0.5501080000000  0.4415060000000  0.4381740000000 1.0
C      1  0.4973140000000  0.5586670000000  0.4410550000000 1.0
C      1  0.4277280000000  0.5165650000000  0.5246730000000 1.0
C      1  0.4866660000000  0.5628700000000  0.5477680000000 1.0
C      1  0.4579480000000  0.4189310000000  0.5374770000000 1.0
C      1  0.4475320000000  0.4285350000000  0.4519600000000 1.0
C      1  0.4812380000000  0.4187570000000  0.5142990000000 1.0
C      1  0.5214670000000  0.4139780000000  0.4358240000000 1.0
C      1  0.5619020000000  0.4911500000000  0.5557200000000 1.0
C      1  0.4568850000000  0.5096170000000  0.4513670000000 1.0
C      1  0.5792300000000  0.5406690000000  0.4510980000000 1.0
C      1  0.5163020000000  0.4909070000000  0.3979450000000 1.0
C      1  0.5668950000000  0.3937710000000  0.4935680000000 1.0
C      1  0.5717840000000  0.4593220000000  0.4788360000000 1.0
C      1  0.4110630000000  0.4687790000000  0.4597250000000 1.0
C      1  0.5867950000000  0.5103000000000  0.4925460000000 1.0
C      1  0.4886390000000  0.4660170000000  0.4779170000000 1.0
C      1  0.4057210000000  0.4456800000000  0.5503970000000 1.0
C      1  0.5041200000000  0.4494280000000  0.5629500000000 1.0
C      1  0.5544890000000  0.5828860000000  0.4963900000000 1.0
C      1  0.4824030000000  0.5404840000000  0.6021350000000 1.0
C      1  0.5897710000000  0.5346390000000  0.5098360000000 1.0
C      1  0.5298780000000  0.5346170000000  0.4602690000000 1.0
C      1  0.4627420000000  0.4822240000000  0.5489260000000 1.0
C      1  0.4472550000000  0.5126580000000  0.4896970000000 1.0
C      1  0.5003920000000  0.4057440000000  0.4821310000000 1.0
C      1  0.4934710000000  0.4823320000000  0.5418530000000 1.0
C      1  0.4086240000000  0.5000010000000  0.4649570000000 1.0
C      1  0.5833100000000  0.4642060000000  0.5063780000000 1.0
C      1  0.5553350000000  0.5065090000000  0.4224950000000 1.0
C      1  0.5750680000000  0.5583050000000  0.4725650000000 1.0
C      1  0.4275490000000  0.5564600000000  0.4543770000000 1.0
C      1  0.4310210000000  0.5109640000000  0.5639760000000 1.0
C      1  0.4756710000000  0.4459020000000  0.5756560000000 1.0
C      1  0.5614280000000  0.3950560000000  0.4687610000000 1.0
C      1  0.4851010000000  0.4365140000000  0.4856730000000 1.0
C      1  0.4566390000000  0.5323250000000  0.5854520000000 1.0
C      1  0.5347040000000  0.4867400000000  0.5164770000000 1.0
C      1  0.4575660000000  0.5890780000000  0.4929800000000 1.0
C      1  0.5421640000000  0.5033290000000  0.5806280000000 1.0
C      1  0.5178060000000  0.5703960000000  0.5048470000000 1.0
C      1  0.5065960000000  0.5358100000000  0.6021550000000 1.0
C      1  0.5316960000000  0.5323260000000  0.5825240000000 1.0
C      1  0.4904310000000  0.4690100000000  0.5950050000000 1.0
C      1  0.4813380000000  0.5328410000000  0.5628970000000 1.0
C      1  0.5010060000000  0.5101140000000  0.4474230000000 1.0
C      1  0.4847390000000  0.4826400000000  0.4417700000000 1.0
C      1  0.4776950000000  0.4186250000000  0.4603280000000 1.0
C      1  0.4543930000000  0.5253490000000  0.5435590000000 1.0
C      1  0.4425180000000  0.5718520000000  0.4763470000000 1.0
C      1  0.4874790000000  0.5182900000000  0.4775580000000 1.0
C      1  0.4274910000000  0.4265400000000  0.4781450000000 1.0
C      1  0.5099130000000  0.4065310000000  0.5159450000000 1.0
C      1  0.5721740000000  0.4961080000000  0.4470970000000 1.0
C      1  0.5818940000000  0.4368190000000  0.5215180000000 1.0
C      1  0.5286530000000  0.5895960000000  0.4781260000000 1.0
C      1  0.5551450000000  0.4556160000000  0.4095470000000 1.0
C      1  0.4895940000000  0.5779550000000  0.4169850000000 1.0
C      1  0.4859820000000  0.4580840000000  0.5190890000000 1.0
C      1  0.5280780000000  0.4227480000000  0.4922030000000 1.0
C      1  0.4374530000000  0.4509550000000  0.4950370000000 1.0
C      1  0.4780260000000  0.5405730000000  0.5241270000000 1.0
C      1  0.4549070000000  0.5425320000000  0.4798030000000 1.0
C      1  0.5041990000000  0.5017180000000  0.5176470000000 1.0
C      1  0.6008650000000  0.4882450000000  0.5079640000000 1.0
C      1  0.5365280000000  0.5913500000000  0.5239910000000 1.0
C      1  0.5524730000000  0.5619880000000  0.5303390000000 1.0
C      1  0.4754430000000  0.6036460000000  0.4767110000000 1.0
C      1  0.4744100000000  0.5052960000000  0.5061600000000 1.0
END
