TITL C-2847944-5688-355 -0.000133055566223543 125000 -197.407060131646 0 0 36 (C1) n - 1
REM
REM in /home/bkarasulu/work/CARBON/AIRSS/Generating-Clusters/AIREBO/with-SteepDescent/Only-C1/SD-CG-opt/Try1-1.4A-POS3A/HFTN-CG
REM
REM
REM
REM
REM
REM ./C.cell (11c1c37f851c82e70ff6c80c92926a4b)
REM
REM compiler GCC version 9.2.1 20190827 (Red Hat 9.2.1-1)
REM options -cpp -mtune=generic -march=x86-64 -g -O0 -fpre-include=/usr/include/finclude/math-vector-fortran.h
REM seed 330173893 2083182635 -89335820 516372072 -443849830 -255626226 471108000 -1314530458 82930208 -1649382617 -578246461 686921624 -619330961 572175596 2019908423 577787228 1509175311 -1558520126 -1556752312 1017465002 1543727412 348847406 -616133505 -716245102 -1222104860 -1294119762 1000295977 934466484 1903675677 942823139 1789737559 -2136650065 238150958
REM
CELL 1.54180   50.00000   50.00000   50.00000   90.00000   90.00000   90.00000
LATT -1
SFAC C  
C      1  0.4699160000000  0.4651640000000  0.5106890000000 1.0
C      1  0.5561270000000  0.4747650000000  0.5181540000000 1.0
C      1  0.4821740000000  0.4887460000000  0.5530140000000 1.0
C      1  0.5484990000000  0.5215460000000  0.4775380000000 1.0
C      1  0.4653330000000  0.5074850000000  0.4646470000000 1.0
C      1  0.5406770000000  0.4951470000000  0.4725000000000 1.0
C      1  0.5292430000000  0.4927900000000  0.5239080000000 1.0
C      1  0.4393980000000  0.4971340000000  0.5285960000000 1.0
C      1  0.4307740000000  0.4993710000000  0.4976640000000 1.0
C      1  0.4915750000000  0.5171720000000  0.5408090000000 1.0
C      1  0.5042370000000  0.5418750000000  0.4843270000000 1.0
C      1  0.4835060000000  0.5101310000000  0.5085330000000 1.0
C      1  0.5114780000000  0.5000510000000  0.4323990000000 1.0
C      1  0.4804620000000  0.4531600000000  0.4659410000000 1.0
C      1  0.5100460000000  0.4524680000000  0.5121860000000 1.0
C      1  0.5065220000000  0.4633900000000  0.4661150000000 1.0
C      1  0.4934620000000  0.5498770000000  0.5317730000000 1.0
C      1  0.5188300000000  0.5364550000000  0.5439880000000 1.0
C      1  0.4437890000000  0.4857370000000  0.4738470000000 1.0
C      1  0.4969610000000  0.4821460000000  0.5223980000000 1.0
C      1  0.5768010000000  0.4976870000000  0.5247810000000 1.0
C      1  0.5235300000000  0.4553640000000  0.4872630000000 1.0
C      1  0.4859580000000  0.5546610000000  0.5057720000000 1.0
C      1  0.5668060000000  0.5203360000000  0.5306000000000 1.0
C      1  0.5611870000000  0.4506040000000  0.5310680000000 1.0
C      1  0.5327380000000  0.5349640000000  0.4955270000000 1.0
C      1  0.5364330000000  0.5237070000000  0.5234090000000 1.0
C      1  0.4257720000000  0.4777000000000  0.4538500000000 1.0
C      1  0.5119420000000  0.4937180000000  0.4598660000000 1.0
C      1  0.5455490000000  0.4730880000000  0.4888830000000 1.0
C      1  0.5059880000000  0.5583420000000  0.4612440000000 1.0
C      1  0.4920630000000  0.5116080000000  0.4770910000000 1.0
C      1  0.4518480000000  0.5215710000000  0.5099010000000 1.0
C      1  0.4593700000000  0.4783560000000  0.5354770000000 1.0
C      1  0.4591630000000  0.5504180000000  0.5017540000000 1.0
C      1  0.4618430000000  0.4632630000000  0.4844880000000 1.0
END
