TITL C-2847945-6269-172 0.00110988576439648 125000 -604.997777899268 0 0 110 (C1) n - 1
REM
REM in /home/bkarasulu/work/CARBON/AIRSS/Generating-Clusters/AIREBO/with-SteepDescent/Only-C1/SD-CG-opt/Try1-1.4A-POS3A/HFTN-CG
REM
REM
REM
REM
REM
REM ./C.cell (11c1c37f851c82e70ff6c80c92926a4b)
REM
REM compiler GCC version 9.2.1 20190827 (Red Hat 9.2.1-1)
REM options -cpp -mtune=generic -march=x86-64 -g -O0 -fpre-include=/usr/include/finclude/math-vector-fortran.h
REM seed -676575342 -525680354 1463627865 861251066 2128704757 -2058584268 -1773587022 -1853020129 1626805244 -933628240 2027099374 -1858323270 13056547 1357155666 -2048025110 -1885124710 -1094773224 763274052 338361751 244707662 499237919 643749955 -480862771 2042656503 1041154067 -1161941946 -1927112133 -889065256 217960530 -1817427631 -1976431686 -1200625340 -483416114
REM
CELL 1.54180   50.00000   50.00000   50.00000   90.00000   90.00000   90.00000
LATT -1
SFAC C  
C      1  0.5131410000000  0.4339540000000  0.4457200000000 1.0
C      1  0.4316720000000  0.4482360000000  0.5299110000000 1.0
C      1  0.4505260000000  0.5548040000000  0.5343570000000 1.0
C      1  0.5780950000000  0.4824850000000  0.4603270000000 1.0
C      1  0.5060150000000  0.5321210000000  0.4751130000000 1.0
C      1  0.5650530000000  0.5043970000000  0.5229500000000 1.0
C      1  0.5483490000000  0.4441980000000  0.5441880000000 1.0
C      1  0.5910610000000  0.5172920000000  0.5056650000000 1.0
C      1  0.4589160000000  0.5027670000000  0.5390380000000 1.0
C      1  0.5025750000000  0.4983190000000  0.4733720000000 1.0
C      1  0.4346360000000  0.5153680000000  0.4459880000000 1.0
C      1  0.5538540000000  0.4341490000000  0.5181490000000 1.0
C      1  0.5387030000000  0.4198080000000  0.5001160000000 1.0
C      1  0.4554630000000  0.4645120000000  0.5117080000000 1.0
C      1  0.5455610000000  0.4955740000000  0.5495520000000 1.0
C      1  0.5717430000000  0.4551140000000  0.5029310000000 1.0
C      1  0.5451970000000  0.5014390000000  0.4978910000000 1.0
C      1  0.5129920000000  0.5784160000000  0.4727420000000 1.0
C      1  0.4276380000000  0.5335070000000  0.5370730000000 1.0
C      1  0.4980260000000  0.4135790000000  0.4689210000000 1.0
C      1  0.4199410000000  0.4716190000000  0.4777450000000 1.0
C      1  0.4987380000000  0.5773630000000  0.5100340000000 1.0
C      1  0.5882300000000  0.4578130000000  0.4763510000000 1.0
C      1  0.4569300000000  0.5390430000000  0.4356180000000 1.0
C      1  0.5147280000000  0.5517250000000  0.5838860000000 1.0
C      1  0.5833050000000  0.4691920000000  0.5278720000000 1.0
C      1  0.5158880000000  0.4910300000000  0.4149410000000 1.0
C      1  0.4709530000000  0.4979690000000  0.5733850000000 1.0
C      1  0.5754610000000  0.5055420000000  0.4370490000000 1.0
C      1  0.3990270000000  0.4942200000000  0.5485160000000 1.0
C      1  0.5712610000000  0.5587060000000  0.5280040000000 1.0
C      1  0.4442020000000  0.5551020000000  0.4787570000000 1.0
C      1  0.5501370000000  0.5201530000000  0.5674840000000 1.0
C      1  0.5309750000000  0.4354670000000  0.4742050000000 1.0
C      1  0.4868230000000  0.4688720000000  0.4797590000000 1.0
C      1  0.4813520000000  0.4841150000000  0.5079210000000 1.0
C      1  0.5098550000000  0.5520300000000  0.4317030000000 1.0
C      1  0.4344180000000  0.4452800000000  0.4762110000000 1.0
C      1  0.5329250000000  0.5887390000000  0.4895390000000 1.0
C      1  0.5055840000000  0.4596300000000  0.5882100000000 1.0
C      1  0.4510570000000  0.5828900000000  0.4903170000000 1.0
C      1  0.4170870000000  0.5156080000000  0.5579040000000 1.0
C      1  0.4725350000000  0.4415060000000  0.4933290000000 1.0
C      1  0.5165060000000  0.4773440000000  0.5541820000000 1.0
C      1  0.4345620000000  0.4321210000000  0.5014390000000 1.0
C      1  0.5109370000000  0.4032860000000  0.4953560000000 1.0
C      1  0.5636400000000  0.4675590000000  0.5479900000000 1.0
C      1  0.5420520000000  0.4849700000000  0.4440680000000 1.0
C      1  0.5281200000000  0.5964520000000  0.5424070000000 1.0
C      1  0.4805550000000  0.4557860000000  0.4380090000000 1.0
C      1  0.4923140000000  0.4806690000000  0.5930700000000 1.0
C      1  0.5021590000000  0.4344550000000  0.5030760000000 1.0
C      1  0.5198090000000  0.5306730000000  0.4171250000000 1.0
C      1  0.4363400000000  0.5107040000000  0.5145440000000 1.0
C      1  0.4813120000000  0.5699090000000  0.4817860000000 1.0
C      1  0.5059630000000  0.5257750000000  0.5261680000000 1.0
C      1  0.4859900000000  0.5517260000000  0.5834070000000 1.0
C      1  0.5447590000000  0.5099500000000  0.4230770000000 1.0
C      1  0.4983390000000  0.5139910000000  0.4051630000000 1.0
C      1  0.4091710000000  0.4733750000000  0.5341370000000 1.0
C      1  0.4757010000000  0.5172260000000  0.5132370000000 1.0
C      1  0.4807840000000  0.5588760000000  0.4495080000000 1.0
C      1  0.5233420000000  0.5946090000000  0.5160890000000 1.0
C      1  0.4633780000000  0.4715150000000  0.4219580000000 1.0
C      1  0.5521960000000  0.4318610000000  0.4505340000000 1.0
C      1  0.4767340000000  0.4283620000000  0.5329950000000 1.0
C      1  0.5582270000000  0.4589070000000  0.4339630000000 1.0
C      1  0.5739300000000  0.5602760000000  0.5002650000000 1.0
C      1  0.5219060000000  0.4450550000000  0.5621870000000 1.0
C      1  0.5200490000000  0.4678280000000  0.4725560000000 1.0
C      1  0.5049230000000  0.5451490000000  0.5022780000000 1.0
C      1  0.5058030000000  0.4766370000000  0.5228270000000 1.0
C      1  0.4258960000000  0.4804340000000  0.5076280000000 1.0
C      1  0.5811280000000  0.4436600000000  0.4515350000000 1.0
C      1  0.4590230000000  0.4138510000000  0.5078110000000 1.0
C      1  0.5192980000000  0.5542940000000  0.4589300000000 1.0
C      1  0.5665420000000  0.5394630000000  0.5551010000000 1.0
C      1  0.4848680000000  0.5259300000000  0.4506080000000 1.0
C      1  0.4129660000000  0.4936350000000  0.4526290000000 1.0
C      1  0.4378340000000  0.5017970000000  0.5727840000000 1.0
C      1  0.4653940000000  0.5484230000000  0.5043910000000 1.0
C      1  0.4558730000000  0.5083710000000  0.4870730000000 1.0
C      1  0.5845670000000  0.5371760000000  0.4875130000000 1.0
C      1  0.4726110000000  0.5197990000000  0.4123770000000 1.0
C      1  0.5325560000000  0.5298890000000  0.5874280000000 1.0
C      1  0.5601780000000  0.5814420000000  0.4875880000000 1.0
C      1  0.4140570000000  0.5214920000000  0.4916100000000 1.0
C      1  0.4001460000000  0.4990840000000  0.4809120000000 1.0
C      1  0.4830290000000  0.4739720000000  0.5549980000000 1.0
C      1  0.5013120000000  0.5484470000000  0.5466190000000 1.0
C      1  0.4883650000000  0.4001840000000  0.5179310000000 1.0
C      1  0.5240090000000  0.5694200000000  0.5591980000000 1.0
C      1  0.4618370000000  0.4391320000000  0.4611350000000 1.0
C      1  0.5982290000000  0.4943470000000  0.5253040000000 1.0
C      1  0.5497080000000  0.5094650000000  0.4665190000000 1.0
C      1  0.5542970000000  0.5683230000000  0.5532010000000 1.0
C      1  0.5061140000000  0.4451330000000  0.5330580000000 1.0
C      1  0.4765680000000  0.5940580000000  0.5257470000000 1.0
C      1  0.4702440000000  0.5010910000000  0.4632180000000 1.0
C      1  0.4595110000000  0.4994910000000  0.4322970000000 1.0
C      1  0.5133710000000  0.4673300000000  0.4392090000000 1.0
C      1  0.4822340000000  0.4219300000000  0.4406540000000 1.0
C      1  0.4276980000000  0.5352500000000  0.4709240000000 1.0
C      1  0.5746190000000  0.5260280000000  0.4630500000000 1.0
C      1  0.4437660000000  0.4772510000000  0.5537690000000 1.0
C      1  0.4602120000000  0.4496260000000  0.5483800000000 1.0
C      1  0.5522560000000  0.4740010000000  0.4824290000000 1.0
C      1  0.4518470000000  0.5834310000000  0.5191820000000 1.0
C      1  0.5251660000000  0.5019480000000  0.5231020000000 1.0
C      1  0.4725390000000  0.5527000000000  0.5563030000000 1.0
END
