TITL C-2848495-5024-389 0.00121023783907358 125000 -686.159280831119 0 0 126 (C1) n - 1
REM
REM in /home/bkarasulu/work/CARBON/AIRSS/Generating-Clusters/AIREBO/with-SteepDescent/Only-C1/SD-CG-opt/Try1-1.4A-POS3A/HFTN-CG
REM
REM
REM
REM
REM
REM ./C.cell (11c1c37f851c82e70ff6c80c92926a4b)
REM
REM compiler GCC version 9.2.1 20190827 (Red Hat 9.2.1-1)
REM options -cpp -mtune=generic -march=x86-64 -g -O0 -fpre-include=/usr/include/finclude/math-vector-fortran.h
REM seed 1703634538 -219127989 1302641351 1751081707 1306866791 260402903 1019151163 592010773 -931986540 1413498390 -1820328405 -875238466 653686156 -1812626180 -1456147173 -1524895392 -439914047 -570449156 1752467975 1590997589 1143252515 854881214 -1009979185 -31019826 -2085803192 1412507796 -863610089 1645224131 -1685066359 26113159 662235327 1306796126 58267631
REM
CELL 1.54180   50.00000   50.00000   50.00000   90.00000   90.00000   90.00000
LATT -1
SFAC C  
C      1  0.4632420000000  0.4802020000000  0.5390530000000 1.0
C      1  0.5438140000000  0.5481880000000  0.5710730000000 1.0
C      1  0.5401420000000  0.5056910000000  0.4129660000000 1.0
C      1  0.4452140000000  0.4620600000000  0.5700680000000 1.0
C      1  0.4770600000000  0.4696930000000  0.5682960000000 1.0
C      1  0.4177510000000  0.4833660000000  0.4698080000000 1.0
C      1  0.4897410000000  0.5889870000000  0.4549810000000 1.0
C      1  0.5282700000000  0.5260890000000  0.4605580000000 1.0
C      1  0.5318830000000  0.4458050000000  0.5483460000000 1.0
C      1  0.4991820000000  0.4876900000000  0.5878460000000 1.0
C      1  0.4981030000000  0.4060330000000  0.5231310000000 1.0
C      1  0.5029680000000  0.5217110000000  0.5865340000000 1.0
C      1  0.4328440000000  0.4434340000000  0.5526380000000 1.0
C      1  0.5391370000000  0.5087100000000  0.5289730000000 1.0
C      1  0.5022150000000  0.5657930000000  0.4850770000000 1.0
C      1  0.4927680000000  0.4674950000000  0.4136780000000 1.0
C      1  0.5194710000000  0.4598000000000  0.4089800000000 1.0
C      1  0.4652360000000  0.5200690000000  0.5397680000000 1.0
C      1  0.5180940000000  0.4150660000000  0.5436960000000 1.0
C      1  0.4656400000000  0.4166020000000  0.4838840000000 1.0
C      1  0.4065130000000  0.4682160000000  0.5174020000000 1.0
C      1  0.4215640000000  0.4535900000000  0.4674610000000 1.0
C      1  0.5488760000000  0.3965250000000  0.5133720000000 1.0
C      1  0.5420470000000  0.4748670000000  0.4237130000000 1.0
C      1  0.5125360000000  0.3894100000000  0.4738200000000 1.0
C      1  0.5465550000000  0.4829120000000  0.5118320000000 1.0
C      1  0.5772840000000  0.4823520000000  0.4647050000000 1.0
C      1  0.5212100000000  0.4622950000000  0.4874790000000 1.0
C      1  0.5494660000000  0.4912280000000  0.5751900000000 1.0
C      1  0.5645880000000  0.5073610000000  0.4349310000000 1.0
C      1  0.4847740000000  0.3919770000000  0.4685920000000 1.0
C      1  0.4844020000000  0.4990790000000  0.4098950000000 1.0
C      1  0.4986840000000  0.5701570000000  0.4334710000000 1.0
C      1  0.4041620000000  0.5034770000000  0.5439920000000 1.0
C      1  0.5262290000000  0.4655010000000  0.4591890000000 1.0
C      1  0.4098680000000  0.5259010000000  0.5626370000000 1.0
C      1  0.4833890000000  0.5466340000000  0.5010900000000 1.0
C      1  0.4884940000000  0.4395520000000  0.4847290000000 1.0
C      1  0.5663630000000  0.4683120000000  0.4441840000000 1.0
C      1  0.5705090000000  0.5610370000000  0.4687850000000 1.0
C      1  0.4639650000000  0.5383220000000  0.4416390000000 1.0
C      1  0.5251010000000  0.4160400000000  0.4714910000000 1.0
C      1  0.5506530000000  0.5638010000000  0.4416390000000 1.0
C      1  0.4705940000000  0.4088960000000  0.5166870000000 1.0
C      1  0.4973810000000  0.4448760000000  0.5722620000000 1.0
C      1  0.4874870000000  0.5990270000000  0.5016250000000 1.0
C      1  0.4437160000000  0.5726590000000  0.5172790000000 1.0
C      1  0.5271270000000  0.5832250000000  0.5334450000000 1.0
C      1  0.5120980000000  0.4388590000000  0.5052160000000 1.0
C      1  0.3984100000000  0.5456790000000  0.5765460000000 1.0
C      1  0.4157870000000  0.4965870000000  0.5011010000000 1.0
C      1  0.4818750000000  0.4675350000000  0.4947970000000 1.0
C      1  0.5371480000000  0.4947280000000  0.4508760000000 1.0
C      1  0.4497650000000  0.5255660000000  0.4681030000000 1.0
C      1  0.5886830000000  0.5578580000000  0.4959820000000 1.0
C      1  0.4412210000000  0.4745730000000  0.4256920000000 1.0
C      1  0.5221020000000  0.4682290000000  0.5719620000000 1.0
C      1  0.4100980000000  0.5301280000000  0.4973910000000 1.0
C      1  0.5082420000000  0.5178260000000  0.4359440000000 1.0
C      1  0.4728670000000  0.5073910000000  0.5800290000000 1.0
C      1  0.5207300000000  0.5500210000000  0.4384430000000 1.0
C      1  0.4445370000000  0.4547090000000  0.4999890000000 1.0
C      1  0.4338280000000  0.4946750000000  0.5298880000000 1.0
C      1  0.5129390000000  0.5445510000000  0.5739470000000 1.0
C      1  0.4321030000000  0.5472430000000  0.5124440000000 1.0
C      1  0.5877620000000  0.5128720000000  0.5426200000000 1.0
C      1  0.5095660000000  0.5337720000000  0.3802900000000 1.0
C      1  0.4921820000000  0.5042140000000  0.5522200000000 1.0
C      1  0.4781810000000  0.5242260000000  0.4831350000000 1.0
C      1  0.5287330000000  0.5448470000000  0.4889120000000 1.0
C      1  0.4241710000000  0.5428270000000  0.4736220000000 1.0
C      1  0.4333430000000  0.4946820000000  0.4477710000000 1.0
C      1  0.4400570000000  0.5129920000000  0.5578530000000 1.0
C      1  0.4514410000000  0.5256570000000  0.5125050000000 1.0
C      1  0.5791660000000  0.5310570000000  0.5641370000000 1.0
C      1  0.4582670000000  0.4789670000000  0.4050890000000 1.0
C      1  0.5319700000000  0.5782410000000  0.5604550000000 1.0
C      1  0.4621120000000  0.5074360000000  0.4348340000000 1.0
C      1  0.5265060000000  0.4102860000000  0.5049100000000 1.0
C      1  0.4464290000000  0.5022140000000  0.4903100000000 1.0
C      1  0.5241660000000  0.4964420000000  0.5530770000000 1.0
C      1  0.5838440000000  0.5315970000000  0.4744410000000 1.0
C      1  0.4506500000000  0.4232280000000  0.5402050000000 1.0
C      1  0.5701290000000  0.5581710000000  0.5215100000000 1.0
C      1  0.5729980000000  0.4744510000000  0.5652300000000 1.0
C      1  0.4345820000000  0.4302920000000  0.4859810000000 1.0
C      1  0.4840140000000  0.4623730000000  0.4432320000000 1.0
C      1  0.4704480000000  0.5765520000000  0.5079470000000 1.0
C      1  0.4515220000000  0.4569870000000  0.4517230000000 1.0
C      1  0.4754760000000  0.5606880000000  0.4645820000000 1.0
C      1  0.4559330000000  0.4764200000000  0.4792820000000 1.0
C      1  0.5047760000000  0.4392100000000  0.4569630000000 1.0
C      1  0.5408180000000  0.5653350000000  0.5132370000000 1.0
C      1  0.4849970000000  0.6084870000000  0.4745690000000 1.0
C      1  0.5343930000000  0.5983900000000  0.4878780000000 1.0
C      1  0.4960190000000  0.4802520000000  0.5299420000000 1.0
C      1  0.4085230000000  0.4527230000000  0.5400270000000 1.0
C      1  0.5557980000000  0.4580410000000  0.5331040000000 1.0
C      1  0.5734930000000  0.4777010000000  0.4914370000000 1.0
C      1  0.4554690000000  0.4245770000000  0.4524180000000 1.0
C      1  0.5268330000000  0.5969590000000  0.5799500000000 1.0
C      1  0.5887730000000  0.5099060000000  0.4557580000000 1.0
C      1  0.5582200000000  0.5196240000000  0.5827000000000 1.0
C      1  0.4416310000000  0.5641400000000  0.4624610000000 1.0
C      1  0.6145050000000  0.5094130000000  0.4447210000000 1.0
C      1  0.5161650000000  0.5234840000000  0.5121890000000 1.0
C      1  0.4768300000000  0.5585270000000  0.4216190000000 1.0
C      1  0.4810570000000  0.4345930000000  0.5452880000000 1.0
C      1  0.5692600000000  0.4456310000000  0.5617660000000 1.0
C      1  0.4456570000000  0.4913830000000  0.5798640000000 1.0
C      1  0.4895270000000  0.4940080000000  0.4491230000000 1.0
C      1  0.4906150000000  0.4967790000000  0.4799280000000 1.0
C      1  0.5834650000000  0.4697210000000  0.5186650000000 1.0
C      1  0.4991280000000  0.5542510000000  0.5528040000000 1.0
C      1  0.5592040000000  0.5309070000000  0.4947060000000 1.0
C      1  0.5051330000000  0.4508890000000  0.5321830000000 1.0
C      1  0.5416760000000  0.5722420000000  0.4734550000000 1.0
C      1  0.4668580000000  0.4544500000000  0.5216180000000 1.0
C      1  0.5874180000000  0.4854220000000  0.5436460000000 1.0
C      1  0.5113640000000  0.5149200000000  0.4035690000000 1.0
C      1  0.5142580000000  0.4906420000000  0.5035790000000 1.0
C      1  0.5148770000000  0.5956520000000  0.5084050000000 1.0
C      1  0.4912910000000  0.5365130000000  0.5290350000000 1.0
C      1  0.5652420000000  0.5257150000000  0.5260800000000 1.0
C      1  0.4832750000000  0.4144060000000  0.4480920000000 1.0
C      1  0.5710650000000  0.5577420000000  0.5531090000000 1.0
END
