TITL C-2847946-5639-42 0.000480601177093037 125000 -365.677920270937 0 0 66 (C1) n - 1
REM
REM in /home/bkarasulu/work/CARBON/AIRSS/Generating-Clusters/AIREBO/with-SteepDescent/Only-C1/SD-CG-opt/Try1-1.4A-POS3A/HFTN-CG
REM
REM
REM
REM
REM
REM ./C.cell (11c1c37f851c82e70ff6c80c92926a4b)
REM
REM compiler GCC version 9.2.1 20190827 (Red Hat 9.2.1-1)
REM options -cpp -mtune=generic -march=x86-64 -g -O0 -fpre-include=/usr/include/finclude/math-vector-fortran.h
REM seed -1170710582 505746953 886649197 1036589282 -157445880 1085562077 1341061149 -2080141997 286051469 2135241170 226319317 1938559851 -59915751 1461626872 -791306025 1373794626 1134819062 1047526112 363704758 -863304444 -378867301 1514130312 -418517810 1993396598 126317781 -138569453 27541808 941372431 1396971547 -321366549 -1958587940 237940839 616173732
REM
CELL 1.54180   50.00000   50.00000   50.00000   90.00000   90.00000   90.00000
LATT -1
SFAC C  
C      1  0.5729560000000  0.5537970000000  0.4920700000000 1.0
C      1  0.5175940000000  0.5389340000000  0.4927200000000 1.0
C      1  0.5039830000000  0.5082520000000  0.4631910000000 1.0
C      1  0.5491170000000  0.4745020000000  0.4996730000000 1.0
C      1  0.5008970000000  0.5236400000000  0.5701710000000 1.0
C      1  0.4724280000000  0.4831130000000  0.5108020000000 1.0
C      1  0.5726740000000  0.5058340000000  0.4744930000000 1.0
C      1  0.4463610000000  0.4909880000000  0.5239020000000 1.0
C      1  0.4971600000000  0.5727950000000  0.4957050000000 1.0
C      1  0.5703530000000  0.5040360000000  0.5439520000000 1.0
C      1  0.5595740000000  0.4947410000000  0.5205190000000 1.0
C      1  0.4610550000000  0.4252630000000  0.5260020000000 1.0
C      1  0.5215440000000  0.4708800000000  0.5283650000000 1.0
C      1  0.5459380000000  0.4506410000000  0.4767960000000 1.0
C      1  0.4788270000000  0.5431960000000  0.5596820000000 1.0
C      1  0.5385050000000  0.5187500000000  0.5088560000000 1.0
C      1  0.5375360000000  0.5367030000000  0.5377140000000 1.0
C      1  0.4813040000000  0.4950860000000  0.4249020000000 1.0
C      1  0.5470410000000  0.4836900000000  0.4159520000000 1.0
C      1  0.4913350000000  0.5034340000000  0.5127740000000 1.0
C      1  0.4618880000000  0.5875260000000  0.4595970000000 1.0
C      1  0.4531800000000  0.4431890000000  0.5457940000000 1.0
C      1  0.5340640000000  0.4919500000000  0.4425600000000 1.0
C      1  0.4897490000000  0.5234260000000  0.4898360000000 1.0
C      1  0.5260470000000  0.4431740000000  0.5317800000000 1.0
C      1  0.4989120000000  0.4512060000000  0.4621940000000 1.0
C      1  0.4414000000000  0.5230720000000  0.5340070000000 1.0
C      1  0.4602780000000  0.5010070000000  0.5701780000000 1.0
C      1  0.4601920000000  0.5349790000000  0.4971080000000 1.0
C      1  0.4886970000000  0.4984650000000  0.5772180000000 1.0
C      1  0.4910190000000  0.5622690000000  0.5219390000000 1.0
C      1  0.5653750000000  0.5268920000000  0.4902860000000 1.0
C      1  0.4651310000000  0.5527230000000  0.5215480000000 1.0
C      1  0.4749990000000  0.4576600000000  0.5624840000000 1.0
C      1  0.4855390000000  0.4462060000000  0.4337340000000 1.0
C      1  0.5023590000000  0.4805700000000  0.4453740000000 1.0
C      1  0.4427020000000  0.4843030000000  0.4649090000000 1.0
C      1  0.5570230000000  0.5761570000000  0.4904610000000 1.0
C      1  0.5518460000000  0.4825590000000  0.4666690000000 1.0
C      1  0.4841600000000  0.4594460000000  0.4917060000000 1.0
C      1  0.5275200000000  0.5706960000000  0.4854390000000 1.0
C      1  0.5129320000000  0.4302690000000  0.5077450000000 1.0
C      1  0.5153070000000  0.4721720000000  0.4967780000000 1.0
C      1  0.5156740000000  0.4998440000000  0.5255240000000 1.0
C      1  0.4563800000000  0.4620170000000  0.4722710000000 1.0
C      1  0.4489550000000  0.4764720000000  0.5511970000000 1.0
C      1  0.4414570000000  0.5100500000000  0.4725230000000 1.0
C      1  0.5217080000000  0.4998720000000  0.4860970000000 1.0
C      1  0.4785000000000  0.4642700000000  0.4177520000000 1.0
C      1  0.4620300000000  0.5341740000000  0.4631780000000 1.0
C      1  0.5214970000000  0.4365480000000  0.4800790000000 1.0
C      1  0.4552770000000  0.5268810000000  0.5577400000000 1.0
C      1  0.5591560000000  0.5283330000000  0.5528540000000 1.0
C      1  0.4732180000000  0.5259720000000  0.4349440000000 1.0
C      1  0.4960980000000  0.5461620000000  0.4464800000000 1.0
C      1  0.4343150000000  0.5141910000000  0.5026670000000 1.0
C      1  0.5216480000000  0.5236600000000  0.4400910000000 1.0
C      1  0.4830370000000  0.4322590000000  0.5099140000000 1.0
C      1  0.5096250000000  0.5464860000000  0.5456420000000 1.0
C      1  0.5246730000000  0.5475780000000  0.4624730000000 1.0
C      1  0.5183610000000  0.4545820000000  0.5788690000000 1.0
C      1  0.4949070000000  0.4703860000000  0.5765660000000 1.0
C      1  0.4712770000000  0.5195310000000  0.4034410000000 1.0
C      1  0.4779100000000  0.5635890000000  0.4698530000000 1.0
C      1  0.5291570000000  0.4374430000000  0.5594660000000 1.0
C      1  0.4486390000000  0.4015090000000  0.5227950000000 1.0
END
