TITL C-2847958-8115-672 0.00116851888620821 125000 -681.498142003524 0 0 128 (C1) n - 1
REM
REM in /home/bkarasulu/work/CARBON/AIRSS/Generating-Clusters/AIREBO/with-SteepDescent/Only-C1/SD-CG-opt/Try1-1.4A-POS3A/HFTN-CG
REM
REM
REM
REM
REM
REM ./C.cell (11c1c37f851c82e70ff6c80c92926a4b)
REM
REM compiler GCC version 9.2.1 20190827 (Red Hat 9.2.1-1)
REM options -cpp -mtune=generic -march=x86-64 -g -O0 -fpre-include=/usr/include/finclude/math-vector-fortran.h
REM seed 836867919 -189516090 -944854127 -816190370 -855203763 1176888039 -1760289378 -1864214308 1092155933 -1724271141 1760062449 -1825876955 -1464774122 949160426 -1453740029 -1783507121 -1194049909 -1252055252 384086017 726367205 -1760593414 -222880421 1816903934 581871738 1186828162 2053885153 2042838163 -2033724753 -511039852 -1269093088 882728515 1446450402 -2112851739
REM
CELL 1.54180   50.00000   50.00000   50.00000   90.00000   90.00000   90.00000
LATT -1
SFAC C  
C      1  0.5012600000000  0.4882430000000  0.5418840000000 1.0
C      1  0.4582230000000  0.4269750000000  0.4719350000000 1.0
C      1  0.5110150000000  0.4594810000000  0.5914460000000 1.0
C      1  0.5346140000000  0.5461120000000  0.4571700000000 1.0
C      1  0.5625000000000  0.4532440000000  0.4512310000000 1.0
C      1  0.5286930000000  0.5459360000000  0.4872020000000 1.0
C      1  0.4939300000000  0.5433530000000  0.5350560000000 1.0
C      1  0.5155280000000  0.4219460000000  0.4533010000000 1.0
C      1  0.5272420000000  0.5138070000000  0.4890050000000 1.0
C      1  0.4354760000000  0.5712440000000  0.4774560000000 1.0
C      1  0.5678860000000  0.5577650000000  0.5278060000000 1.0
C      1  0.4361950000000  0.4285100000000  0.4909670000000 1.0
C      1  0.4407780000000  0.5376160000000  0.4727530000000 1.0
C      1  0.5874650000000  0.5009000000000  0.5113700000000 1.0
C      1  0.3974580000000  0.5398060000000  0.4797470000000 1.0
C      1  0.4478740000000  0.4781140000000  0.4324660000000 1.0
C      1  0.4502260000000  0.5206490000000  0.5006910000000 1.0
C      1  0.4790780000000  0.5483470000000  0.4356940000000 1.0
C      1  0.4392510000000  0.5026660000000  0.5804820000000 1.0
C      1  0.5439930000000  0.5270370000000  0.5806370000000 1.0
C      1  0.5465260000000  0.4281910000000  0.4620040000000 1.0
C      1  0.5507920000000  0.5308270000000  0.5241170000000 1.0
C      1  0.5547780000000  0.4128200000000  0.4917920000000 1.0
C      1  0.5386620000000  0.4245720000000  0.5499920000000 1.0
C      1  0.4942800000000  0.5739750000000  0.4456260000000 1.0
C      1  0.4656970000000  0.4575340000000  0.5732060000000 1.0
C      1  0.4904470000000  0.5027330000000  0.5706970000000 1.0
C      1  0.5039070000000  0.5184630000000  0.4455260000000 1.0
C      1  0.5936410000000  0.4482170000000  0.4423570000000 1.0
C      1  0.4705680000000  0.5571420000000  0.4904360000000 1.0
C      1  0.5166760000000  0.4460110000000  0.5544480000000 1.0
C      1  0.4528260000000  0.4826780000000  0.5139550000000 1.0
C      1  0.5641060000000  0.4542260000000  0.5141800000000 1.0
C      1  0.5226960000000  0.4587390000000  0.4716520000000 1.0
C      1  0.4309650000000  0.4943380000000  0.4187540000000 1.0
C      1  0.4815680000000  0.4267940000000  0.4505560000000 1.0
C      1  0.5165530000000  0.5439060000000  0.5706030000000 1.0
C      1  0.6107400000000  0.5160490000000  0.4962510000000 1.0
C      1  0.5241630000000  0.5374370000000  0.4168890000000 1.0
C      1  0.4735620000000  0.4723200000000  0.4249780000000 1.0
C      1  0.4452500000000  0.5846760000000  0.5071280000000 1.0
C      1  0.4861390000000  0.5364080000000  0.5771580000000 1.0
C      1  0.5223110000000  0.5740920000000  0.5740440000000 1.0
C      1  0.5872430000000  0.4650060000000  0.4710560000000 1.0
C      1  0.4701400000000  0.4841700000000  0.4780430000000 1.0
C      1  0.4872800000000  0.5808860000000  0.4709350000000 1.0
C      1  0.5650220000000  0.4353890000000  0.5398890000000 1.0
C      1  0.5412640000000  0.4811150000000  0.3999670000000 1.0
C      1  0.5249950000000  0.4119260000000  0.5041240000000 1.0
C      1  0.4904510000000  0.4567910000000  0.4823620000000 1.0
C      1  0.5356040000000  0.5121210000000  0.4560920000000 1.0
C      1  0.5474970000000  0.4812210000000  0.4784950000000 1.0
C      1  0.4908680000000  0.4392470000000  0.5732760000000 1.0
C      1  0.6032220000000  0.5149980000000  0.4706080000000 1.0
C      1  0.4632940000000  0.5137230000000  0.4638810000000 1.0
C      1  0.5134410000000  0.5704620000000  0.5286030000000 1.0
C      1  0.4866970000000  0.5381520000000  0.4672790000000 1.0
C      1  0.4718530000000  0.5299290000000  0.4081960000000 1.0
C      1  0.5027690000000  0.4899690000000  0.4572930000000 1.0
C      1  0.4950500000000  0.5208260000000  0.6060340000000 1.0
C      1  0.4597280000000  0.5025680000000  0.5567300000000 1.0
C      1  0.4269930000000  0.5007770000000  0.5022870000000 1.0
C      1  0.4437140000000  0.5508650000000  0.5103740000000 1.0
C      1  0.5692550000000  0.5438030000000  0.5755740000000 1.0
C      1  0.5175650000000  0.5591030000000  0.4358810000000 1.0
C      1  0.5000320000000  0.4940860000000  0.4909440000000 1.0
C      1  0.4418530000000  0.4716930000000  0.4638670000000 1.0
C      1  0.5772370000000  0.5581410000000  0.5566500000000 1.0
C      1  0.4349510000000  0.4424520000000  0.5230140000000 1.0
C      1  0.5152210000000  0.4396850000000  0.5213450000000 1.0
C      1  0.5216320000000  0.4517870000000  0.4381790000000 1.0
C      1  0.5605450000000  0.5147200000000  0.4958300000000 1.0
C      1  0.4210400000000  0.4642830000000  0.5450610000000 1.0
C      1  0.5184180000000  0.5086790000000  0.5890990000000 1.0
C      1  0.5184400000000  0.5876630000000  0.5529960000000 1.0
C      1  0.4987740000000  0.5155790000000  0.4141390000000 1.0
C      1  0.4761430000000  0.5713990000000  0.5423890000000 1.0
C      1  0.4901920000000  0.4596290000000  0.4484800000000 1.0
C      1  0.5287310000000  0.4034540000000  0.5347720000000 1.0
C      1  0.4331750000000  0.4621030000000  0.4953250000000 1.0
C      1  0.4860000000000  0.4413150000000  0.5100960000000 1.0
C      1  0.4845090000000  0.4758160000000  0.5875800000000 1.0
C      1  0.4143740000000  0.5196650000000  0.4286700000000 1.0
C      1  0.5400270000000  0.5671010000000  0.5113680000000 1.0
C      1  0.5033450000000  0.5583340000000  0.4991950000000 1.0
C      1  0.5182740000000  0.4689410000000  0.4107790000000 1.0
C      1  0.5450940000000  0.4439180000000  0.4914530000000 1.0
C      1  0.4124670000000  0.4547970000000  0.4611430000000 1.0
C      1  0.4068030000000  0.4867560000000  0.5337170000000 1.0
C      1  0.4704720000000  0.5889850000000  0.5204490000000 1.0
C      1  0.4139130000000  0.5231200000000  0.4577800000000 1.0
C      1  0.5132060000000  0.4729460000000  0.5144120000000 1.0
C      1  0.5629790000000  0.4826890000000  0.5732590000000 1.0
C      1  0.5237050000000  0.5280120000000  0.5414030000000 1.0
C      1  0.5430180000000  0.4791120000000  0.5102160000000 1.0
C      1  0.5746110000000  0.4154490000000  0.5141560000000 1.0
C      1  0.4527480000000  0.5277730000000  0.4360820000000 1.0
C      1  0.4671450000000  0.5578530000000  0.5666360000000 1.0
C      1  0.5411890000000  0.5029560000000  0.5567960000000 1.0
C      1  0.5725650000000  0.4631280000000  0.5521690000000 1.0
C      1  0.5514440000000  0.4842830000000  0.4454480000000 1.0
C      1  0.5643740000000  0.4908110000000  0.5341990000000 1.0
C      1  0.4022520000000  0.4780100000000  0.5034490000000 1.0
C      1  0.4948160000000  0.4845300000000  0.4100030000000 1.0
C      1  0.5056250000000  0.4087740000000  0.4809950000000 1.0
C      1  0.4395270000000  0.5533430000000  0.5652480000000 1.0
C      1  0.4385740000000  0.5246060000000  0.4052640000000 1.0
C      1  0.4131760000000  0.5128580000000  0.5402420000000 1.0
C      1  0.5775370000000  0.4961660000000  0.4729380000000 1.0
C      1  0.5683810000000  0.5634900000000  0.4941460000000 1.0
C      1  0.4197810000000  0.5637490000000  0.5807900000000 1.0
C      1  0.5648360000000  0.5378230000000  0.4469450000000 1.0
C      1  0.4131030000000  0.5557660000000  0.4949410000000 1.0
C      1  0.4211670000000  0.4970020000000  0.4718690000000 1.0
C      1  0.4811490000000  0.4982220000000  0.5183620000000 1.0
C      1  0.4810480000000  0.4187080000000  0.4895540000000 1.0
C      1  0.4349510000000  0.5373210000000  0.5403060000000 1.0
C      1  0.5532080000000  0.4985250000000  0.4185070000000 1.0
C      1  0.4539300000000  0.4708860000000  0.5457780000000 1.0
C      1  0.5504940000000  0.5264000000000  0.4218640000000 1.0
C      1  0.4912330000000  0.5895790000000  0.5011900000000 1.0
C      1  0.3940820000000  0.4623670000000  0.4772030000000 1.0
C      1  0.5868480000000  0.4703170000000  0.5019200000000 1.0
C      1  0.4657110000000  0.4426090000000  0.5308900000000 1.0
C      1  0.5849780000000  0.5095680000000  0.5536960000000 1.0
C      1  0.5689330000000  0.5411690000000  0.4770190000000 1.0
C      1  0.4653910000000  0.5248560000000  0.5316680000000 1.0
C      1  0.5211370000000  0.4772980000000  0.5644940000000 1.0
END
