TITL C-2848501-3133-134 0.000338012097002003 125000 -935.208111572128 0 0 178 (C1) n - 1
REM
REM in /home/bkarasulu/work/CARBON/AIRSS/Generating-Clusters/AIREBO/with-SteepDescent/Only-C1/SD-CG-opt/Try1-1.4A-POS3A/HFTN-CG
REM
REM
REM
REM
REM
REM ./C.cell (11c1c37f851c82e70ff6c80c92926a4b)
REM
REM compiler GCC version 9.2.1 20190827 (Red Hat 9.2.1-1)
REM options -cpp -mtune=generic -march=x86-64 -g -O0 -fpre-include=/usr/include/finclude/math-vector-fortran.h
REM seed -2059607938 1770437348 1623609390 -1654452513 1123918610 27544208 1198000632 -1381303128 -547523827 -66376749 293758008 1995892621 1817288830 374870574 -120147168 -630862747 -889525805 1368719270 1541127 -411031679 1991819484 -1055629973 431488167 -771569298 -548577704 -881843833 -1469706612 -1004125392 -854573844 155853236 1991746210 1511941783 1715546112
REM
CELL 1.54180   50.00000   50.00000   50.00000   90.00000   90.00000   90.00000
LATT -1
SFAC C  
C      1  0.5087410000000  0.5052020000000  0.4209380000000 1.0
C      1  0.5551980000000  0.5018180000000  0.5056690000000 1.0
C      1  0.5208310000000  0.4919480000000  0.6084080000000 1.0
C      1  0.5373820000000  0.6145780000000  0.5530360000000 1.0
C      1  0.5394500000000  0.5304860000000  0.5857050000000 1.0
C      1  0.5294770000000  0.4479980000000  0.4677690000000 1.0
C      1  0.4630940000000  0.5088390000000  0.5361700000000 1.0
C      1  0.4775150000000  0.3966130000000  0.5117390000000 1.0
C      1  0.5667430000000  0.4933530000000  0.4651830000000 1.0
C      1  0.4949710000000  0.4118070000000  0.4983330000000 1.0
C      1  0.5346500000000  0.6023210000000  0.4431500000000 1.0
C      1  0.4320550000000  0.4180150000000  0.4808060000000 1.0
C      1  0.5534790000000  0.5844390000000  0.5485320000000 1.0
C      1  0.5548640000000  0.5420870000000  0.5204280000000 1.0
C      1  0.4335770000000  0.5241620000000  0.5418560000000 1.0
C      1  0.5076590000000  0.4702760000000  0.5860710000000 1.0
C      1  0.5880240000000  0.5162740000000  0.5686700000000 1.0
C      1  0.4371960000000  0.5362370000000  0.4173760000000 1.0
C      1  0.5443520000000  0.4940230000000  0.3968860000000 1.0
C      1  0.5232950000000  0.5902100000000  0.5339440000000 1.0
C      1  0.5179240000000  0.5429520000000  0.4837170000000 1.0
C      1  0.4590820000000  0.5593550000000  0.5974040000000 1.0
C      1  0.5337030000000  0.5699150000000  0.4354180000000 1.0
C      1  0.4491070000000  0.4884590000000  0.5608350000000 1.0
C      1  0.4369710000000  0.5440000000000  0.5906810000000 1.0
C      1  0.4526660000000  0.5103960000000  0.4640980000000 1.0
C      1  0.5182340000000  0.4331350000000  0.5224240000000 1.0
C      1  0.4743420000000  0.5477430000000  0.6184090000000 1.0
C      1  0.5070040000000  0.5057970000000  0.5496600000000 1.0
C      1  0.3987220000000  0.5688280000000  0.4785010000000 1.0
C      1  0.4991000000000  0.4795670000000  0.4760010000000 1.0
C      1  0.5308290000000  0.5462900000000  0.4173010000000 1.0
C      1  0.4007900000000  0.5328690000000  0.5210870000000 1.0
C      1  0.6185520000000  0.4957740000000  0.4883690000000 1.0
C      1  0.4269280000000  0.4126810000000  0.5085400000000 1.0
C      1  0.5254110000000  0.4888290000000  0.4935060000000 1.0
C      1  0.5613760000000  0.5179320000000  0.4033160000000 1.0
C      1  0.5504610000000  0.4462530000000  0.5909890000000 1.0
C      1  0.4869440000000  0.4531510000000  0.5081870000000 1.0
C      1  0.5557400000000  0.4784410000000  0.5524220000000 1.0
C      1  0.5349250000000  0.3747540000000  0.5288450000000 1.0
C      1  0.4793180000000  0.4635250000000  0.4625550000000 1.0
C      1  0.5511720000000  0.4691150000000  0.4832780000000 1.0
C      1  0.4522260000000  0.5935260000000  0.4834610000000 1.0
C      1  0.4592120000000  0.4285850000000  0.4382970000000 1.0
C      1  0.4469210000000  0.4370060000000  0.5343090000000 1.0
C      1  0.5032570000000  0.5633130000000  0.5282340000000 1.0
C      1  0.5413940000000  0.4739820000000  0.5817100000000 1.0
C      1  0.5267720000000  0.5043800000000  0.5773210000000 1.0
C      1  0.5422540000000  0.4337990000000  0.5541120000000 1.0
C      1  0.4953580000000  0.4476770000000  0.4170630000000 1.0
C      1  0.6042670000000  0.5216430000000  0.4986000000000 1.0
C      1  0.4198290000000  0.4470060000000  0.5493530000000 1.0
C      1  0.5276770000000  0.4813060000000  0.5397030000000 1.0
C      1  0.5458900000000  0.5451690000000  0.5485290000000 1.0
C      1  0.4169510000000  0.5750740000000  0.4577920000000 1.0
C      1  0.5881410000000  0.4709130000000  0.5304830000000 1.0
C      1  0.4857690000000  0.5322560000000  0.5470650000000 1.0
C      1  0.5496540000000  0.4854110000000  0.4388870000000 1.0
C      1  0.5171180000000  0.5441830000000  0.5526910000000 1.0
C      1  0.4514170000000  0.4707570000000  0.5327670000000 1.0
C      1  0.4659990000000  0.5243080000000  0.5060220000000 1.0
C      1  0.5619190000000  0.4462350000000  0.4154840000000 1.0
C      1  0.4947180000000  0.5369190000000  0.5085500000000 1.0
C      1  0.5055190000000  0.4395510000000  0.4837050000000 1.0
C      1  0.5469660000000  0.5896640000000  0.5095390000000 1.0
C      1  0.4599230000000  0.5436340000000  0.4636530000000 1.0
C      1  0.5504880000000  0.5712190000000  0.4625500000000 1.0
C      1  0.4419090000000  0.5119660000000  0.5813800000000 1.0
C      1  0.5913240000000  0.5388140000000  0.4735490000000 1.0
C      1  0.5441210000000  0.5581260000000  0.5956940000000 1.0
C      1  0.5752680000000  0.5762000000000  0.5237620000000 1.0
C      1  0.4789070000000  0.4846040000000  0.5183110000000 1.0
C      1  0.5784240000000  0.5336540000000  0.4233320000000 1.0
C      1  0.4259000000000  0.4978660000000  0.4780050000000 1.0
C      1  0.5811960000000  0.5122060000000  0.5209340000000 1.0
C      1  0.4891830000000  0.5173620000000  0.3958750000000 1.0
C      1  0.5076060000000  0.5452480000000  0.4021910000000 1.0
C      1  0.3999220000000  0.5468630000000  0.5484870000000 1.0
C      1  0.4862090000000  0.5402460000000  0.4453470000000 1.0
C      1  0.5299740000000  0.3776950000000  0.5038690000000 1.0
C      1  0.3889280000000  0.4473860000000  0.5089380000000 1.0
C      1  0.5704940000000  0.5746320000000  0.4901330000000 1.0
C      1  0.4642650000000  0.4577250000000  0.4264600000000 1.0
C      1  0.5759750000000  0.4638710000000  0.4399430000000 1.0
C      1  0.5995500000000  0.4768570000000  0.4809580000000 1.0
C      1  0.4502820000000  0.5925520000000  0.5113110000000 1.0
C      1  0.4937560000000  0.5083320000000  0.4488680000000 1.0
C      1  0.5113430000000  0.4463830000000  0.5502130000000 1.0
C      1  0.4499940000000  0.4670400000000  0.4710090000000 1.0
C      1  0.5397500000000  0.5165630000000  0.4295250000000 1.0
C      1  0.5179490000000  0.4648810000000  0.5158060000000 1.0
C      1  0.5893820000000  0.4541760000000  0.4653200000000 1.0
C      1  0.4096220000000  0.4303440000000  0.5215280000000 1.0
C      1  0.4638610000000  0.4202140000000  0.4689260000000 1.0
C      1  0.4129060000000  0.5719050000000  0.5436400000000 1.0
C      1  0.5368280000000  0.4134120000000  0.5203810000000 1.0
C      1  0.5599310000000  0.5718710000000  0.5745810000000 1.0
C      1  0.5090680000000  0.5571290000000  0.4552230000000 1.0
C      1  0.4328110000000  0.5976930000000  0.4637300000000 1.0
C      1  0.4330360000000  0.4620970000000  0.5065770000000 1.0
C      1  0.4841010000000  0.4938090000000  0.3753920000000 1.0
C      1  0.4978180000000  0.5749170000000  0.4967210000000 1.0
C      1  0.4613220000000  0.5367550000000  0.4040720000000 1.0
C      1  0.4973790000000  0.4784170000000  0.4026620000000 1.0
C      1  0.5326390000000  0.5249080000000  0.5084960000000 1.0
C      1  0.4895240000000  0.4900080000000  0.6157130000000 1.0
C      1  0.4764210000000  0.5719940000000  0.5472280000000 1.0
C      1  0.5781170000000  0.4768990000000  0.5025150000000 1.0
C      1  0.4151210000000  0.5025680000000  0.5229900000000 1.0
C      1  0.4836830000000  0.4593380000000  0.6161400000000 1.0
C      1  0.4453960000000  0.5438340000000  0.4948580000000 1.0
C      1  0.5319480000000  0.4510990000000  0.4153370000000 1.0
C      1  0.5478660000000  0.4128960000000  0.4904460000000 1.0
C      1  0.5202770000000  0.5126220000000  0.4697410000000 1.0
C      1  0.4722200000000  0.5730530000000  0.4755830000000 1.0
C      1  0.4428670000000  0.4903580000000  0.4186020000000 1.0
C      1  0.5424800000000  0.3999920000000  0.5503820000000 1.0
C      1  0.5729590000000  0.5506250000000  0.4474780000000 1.0
C      1  0.4036860000000  0.5178400000000  0.4916070000000 1.0
C      1  0.4592310000000  0.4448640000000  0.4919610000000 1.0
C      1  0.5364450000000  0.4298390000000  0.4414870000000 1.0
C      1  0.4821710000000  0.5081620000000  0.4808450000000 1.0
C      1  0.4738570000000  0.5958740000000  0.5264140000000 1.0
C      1  0.3818120000000  0.4772650000000  0.5441720000000 1.0
C      1  0.4829890000000  0.5500420000000  0.4174930000000 1.0
C      1  0.5603780000000  0.4136460000000  0.4525510000000 1.0
C      1  0.4314730000000  0.4637090000000  0.4351510000000 1.0
C      1  0.4522220000000  0.4879380000000  0.4971270000000 1.0
C      1  0.4072860000000  0.4697740000000  0.5274260000000 1.0
C      1  0.4063670000000  0.5586940000000  0.5020360000000 1.0
C      1  0.5823370000000  0.4975550000000  0.5484770000000 1.0
C      1  0.4638950000000  0.4766910000000  0.3969440000000 1.0
C      1  0.5997670000000  0.5164160000000  0.4328700000000 1.0
C      1  0.5688750000000  0.5392400000000  0.5710910000000 1.0
C      1  0.5390520000000  0.4158730000000  0.5807350000000 1.0
C      1  0.4513010000000  0.4040910000000  0.5269790000000 1.0
C      1  0.5133750000000  0.6078000000000  0.4617670000000 1.0
C      1  0.4127430000000  0.4758590000000  0.4607940000000 1.0
C      1  0.4988920000000  0.6074740000000  0.5196520000000 1.0
C      1  0.4952720000000  0.5852560000000  0.4582150000000 1.0
C      1  0.5246650000000  0.4763280000000  0.4543330000000 1.0
C      1  0.5062540000000  0.6072190000000  0.4902680000000 1.0
C      1  0.5053330000000  0.4268100000000  0.4382320000000 1.0
C      1  0.4926940000000  0.4422740000000  0.5893390000000 1.0
C      1  0.4948330000000  0.4107420000000  0.4585010000000 1.0
C      1  0.4674910000000  0.4878560000000  0.4419330000000 1.0
C      1  0.5185590000000  0.3991040000000  0.4799600000000 1.0
C      1  0.5281800000000  0.4721350000000  0.3921000000000 1.0
C      1  0.4736850000000  0.4434270000000  0.5633050000000 1.0
C      1  0.4803780000000  0.5220960000000  0.6160120000000 1.0
C      1  0.5744560000000  0.4300810000000  0.4772260000000 1.0
C      1  0.4240300000000  0.5122010000000  0.4143820000000 1.0
C      1  0.3981180000000  0.5086590000000  0.4067060000000 1.0
C      1  0.4875930000000  0.4899690000000  0.5714940000000 1.0
C      1  0.4572500000000  0.5481900000000  0.5375490000000 1.0
C      1  0.4441190000000  0.4568040000000  0.5689270000000 1.0
C      1  0.5307640000000  0.5733890000000  0.4885110000000 1.0
C      1  0.4272010000000  0.4450420000000  0.4632540000000 1.0
C      1  0.5946740000000  0.5097910000000  0.4595230000000 1.0
C      1  0.4696550000000  0.5034400000000  0.5916060000000 1.0
C      1  0.5915400000000  0.4561860000000  0.4106010000000 1.0
C      1  0.5100850000000  0.4168550000000  0.5930270000000 1.0
C      1  0.4217570000000  0.5368000000000  0.4724200000000 1.0
C      1  0.4885940000000  0.4693930000000  0.5471690000000 1.0
C      1  0.4698520000000  0.5762380000000  0.5773300000000 1.0
C      1  0.5614840000000  0.5419950000000  0.4870020000000 1.0
C      1  0.4351620000000  0.5658580000000  0.5186580000000 1.0
C      1  0.5495840000000  0.5222260000000  0.4628560000000 1.0
C      1  0.5880390000000  0.5455120000000  0.5165760000000 1.0
C      1  0.5576500000000  0.4426660000000  0.5036530000000 1.0
C      1  0.4664490000000  0.4108650000000  0.5566560000000 1.0
C      1  0.5056410000000  0.5055050000000  0.5156620000000 1.0
C      1  0.4332050000000  0.5508680000000  0.4438990000000 1.0
C      1  0.4163490000000  0.5301690000000  0.5688730000000 1.0
C      1  0.5628680000000  0.4489660000000  0.5364830000000 1.0
C      1  0.5955340000000  0.4406680000000  0.5440480000000 1.0
C      1  0.4795410000000  0.4318070000000  0.5318740000000 1.0
END
