TITL C-2847950-6905-725 -0.00160670784033145 125000 -688.649010882922 0 0 129 (C1) n - 1
REM
REM in /home/bkarasulu/work/CARBON/AIRSS/Generating-Clusters/AIREBO/with-SteepDescent/Only-C1/SD-CG-opt/Try1-1.4A-POS3A/HFTN-CG
REM
REM
REM
REM
REM
REM ./C.cell (11c1c37f851c82e70ff6c80c92926a4b)
REM
REM compiler GCC version 9.2.1 20190827 (Red Hat 9.2.1-1)
REM options -cpp -mtune=generic -march=x86-64 -g -O0 -fpre-include=/usr/include/finclude/math-vector-fortran.h
REM seed -654184952 508126978 -1555086670 -706160081 1789310121 912995791 -1799589841 513930354 1864286316 -1823696459 -237701100 1638895720 -826639760 39768004 -117656559 -1347888951 -722820223 -485134510 1077338816 -717172352 1991451988 -1192586233 -2000339352 912823364 -758347487 1234798032 1526401536 -1936709991 -48071117 -1804884686 690483087 1616729147 -1393910292
REM
CELL 1.54180   50.00000   50.00000   50.00000   90.00000   90.00000   90.00000
LATT -1
SFAC C  
C      1  0.4452580000000  0.4669450000000  0.5757040000000 1.0
C      1  0.4280730000000  0.4544770000000  0.4680080000000 1.0
C      1  0.5286960000000  0.4422440000000  0.4258490000000 1.0
C      1  0.4677270000000  0.4137530000000  0.5299370000000 1.0
C      1  0.5911390000000  0.5222770000000  0.4785270000000 1.0
C      1  0.4452070000000  0.4273120000000  0.5097460000000 1.0
C      1  0.5016450000000  0.5260110000000  0.4977910000000 1.0
C      1  0.5152760000000  0.4364010000000  0.5266220000000 1.0
C      1  0.4048180000000  0.4693850000000  0.4852980000000 1.0
C      1  0.5617990000000  0.4822900000000  0.5759450000000 1.0
C      1  0.4869370000000  0.5475650000000  0.5844110000000 1.0
C      1  0.4534940000000  0.5205800000000  0.4211780000000 1.0
C      1  0.4014540000000  0.4888720000000  0.5640360000000 1.0
C      1  0.4268940000000  0.5409520000000  0.4599980000000 1.0
C      1  0.5501790000000  0.4349320000000  0.4403760000000 1.0
C      1  0.4226580000000  0.5612850000000  0.5117020000000 1.0
C      1  0.5092830000000  0.4954590000000  0.4877060000000 1.0
C      1  0.4076060000000  0.4810500000000  0.5096100000000 1.0
C      1  0.5744030000000  0.4457470000000  0.4340860000000 1.0
C      1  0.4412010000000  0.5012770000000  0.4447920000000 1.0
C      1  0.5383360000000  0.4953920000000  0.4098980000000 1.0
C      1  0.4684540000000  0.5280340000000  0.5752690000000 1.0
C      1  0.4373980000000  0.4251900000000  0.4803030000000 1.0
C      1  0.4990680000000  0.5612890000000  0.5580320000000 1.0
C      1  0.4908780000000  0.4983070000000  0.4592460000000 1.0
C      1  0.4981270000000  0.5622270000000  0.4344800000000 1.0
C      1  0.4738980000000  0.5107690000000  0.5027330000000 1.0
C      1  0.4266310000000  0.5179620000000  0.5990690000000 1.0
C      1  0.5271380000000  0.6015440000000  0.4944380000000 1.0
C      1  0.4337560000000  0.5736170000000  0.4819950000000 1.0
C      1  0.5610860000000  0.5147210000000  0.5710590000000 1.0
C      1  0.4602550000000  0.5320250000000  0.5247450000000 1.0
C      1  0.5662780000000  0.4415160000000  0.5160610000000 1.0
C      1  0.5584450000000  0.5882340000000  0.4926940000000 1.0
C      1  0.4450530000000  0.5146670000000  0.5791980000000 1.0
C      1  0.5785900000000  0.4760780000000  0.4401970000000 1.0
C      1  0.5835510000000  0.4414930000000  0.5428320000000 1.0
C      1  0.4721290000000  0.5472350000000  0.4811980000000 1.0
C      1  0.5383680000000  0.4942330000000  0.6252000000000 1.0
C      1  0.4790400000000  0.5197590000000  0.5474260000000 1.0
C      1  0.5381910000000  0.4563180000000  0.5244380000000 1.0
C      1  0.5220150000000  0.4938500000000  0.4463320000000 1.0
C      1  0.4464910000000  0.4866500000000  0.4155300000000 1.0
C      1  0.5282910000000  0.5619060000000  0.5444740000000 1.0
C      1  0.5300290000000  0.4725320000000  0.5744110000000 1.0
C      1  0.4501850000000  0.5266980000000  0.4742680000000 1.0
C      1  0.5313960000000  0.5248650000000  0.5827770000000 1.0
C      1  0.5674970000000  0.5199170000000  0.4342690000000 1.0
C      1  0.5264310000000  0.4077920000000  0.5271150000000 1.0
C      1  0.5774850000000  0.4655120000000  0.5556050000000 1.0
C      1  0.4849900000000  0.5155880000000  0.3780640000000 1.0
C      1  0.4112480000000  0.4628200000000  0.5551050000000 1.0
C      1  0.4290420000000  0.4703250000000  0.4398880000000 1.0
C      1  0.5041780000000  0.4472630000000  0.4777100000000 1.0
C      1  0.5084710000000  0.5399830000000  0.5996920000000 1.0
C      1  0.5675700000000  0.5048230000000  0.5224960000000 1.0
C      1  0.4674250000000  0.4898420000000  0.5361810000000 1.0
C      1  0.5047480000000  0.5783570000000  0.4825520000000 1.0
C      1  0.5806080000000  0.4557480000000  0.4923420000000 1.0
C      1  0.5222030000000  0.5112360000000  0.5345260000000 1.0
C      1  0.5051880000000  0.5571310000000  0.5058330000000 1.0
C      1  0.5302680000000  0.5402220000000  0.5213700000000 1.0
C      1  0.4805810000000  0.4583760000000  0.4600850000000 1.0
C      1  0.4279970000000  0.5790100000000  0.5359250000000 1.0
C      1  0.4650730000000  0.3928680000000  0.5074480000000 1.0
C      1  0.4637710000000  0.4496390000000  0.5134040000000 1.0
C      1  0.5356650000000  0.4965280000000  0.5958550000000 1.0
C      1  0.5105840000000  0.4170350000000  0.4687610000000 1.0
C      1  0.4723880000000  0.5595710000000  0.5128840000000 1.0
C      1  0.5162360000000  0.4489950000000  0.5846170000000 1.0
C      1  0.4530420000000  0.5850390000000  0.5013440000000 1.0
C      1  0.5259430000000  0.4856950000000  0.5156990000000 1.0
C      1  0.5589540000000  0.4786310000000  0.5362690000000 1.0
C      1  0.6002190000000  0.4782540000000  0.4926180000000 1.0
C      1  0.5473220000000  0.5505830000000  0.4853230000000 1.0
C      1  0.4401260000000  0.5087300000000  0.4993450000000 1.0
C      1  0.4494160000000  0.5657580000000  0.4541920000000 1.0
C      1  0.4624710000000  0.4521690000000  0.5858850000000 1.0
C      1  0.4786220000000  0.5748150000000  0.5428320000000 1.0
C      1  0.4014510000000  0.5384050000000  0.4981810000000 1.0
C      1  0.5588670000000  0.4223650000000  0.4914370000000 1.0
C      1  0.4910770000000  0.5305440000000  0.4597540000000 1.0
C      1  0.5199250000000  0.5442320000000  0.4278860000000 1.0
C      1  0.5969730000000  0.4940180000000  0.5142130000000 1.0
C      1  0.5324740000000  0.3942480000000  0.4727740000000 1.0
C      1  0.5747940000000  0.5237180000000  0.5477770000000 1.0
C      1  0.4889670000000  0.4679450000000  0.5482670000000 1.0
C      1  0.4823480000000  0.4052510000000  0.4640010000000 1.0
C      1  0.4153560000000  0.5018440000000  0.5358480000000 1.0
C      1  0.4842010000000  0.5132320000000  0.4081580000000 1.0
C      1  0.4546360000000  0.4687040000000  0.4795140000000 1.0
C      1  0.5178650000000  0.5399690000000  0.4720610000000 1.0
C      1  0.5170680000000  0.4805480000000  0.5482330000000 1.0
C      1  0.5044780000000  0.4500610000000  0.4092640000000 1.0
C      1  0.5557450000000  0.5438570000000  0.4208940000000 1.0
C      1  0.4473840000000  0.4778020000000  0.5114750000000 1.0
C      1  0.5132970000000  0.5152160000000  0.4213580000000 1.0
C      1  0.5459110000000  0.5799350000000  0.5511550000000 1.0
C      1  0.4600230000000  0.4039270000000  0.4809730000000 1.0
C      1  0.5470900000000  0.5198290000000  0.4998680000000 1.0
C      1  0.4866170000000  0.4345060000000  0.5425290000000 1.0
C      1  0.4026940000000  0.5369950000000  0.4711300000000 1.0
C      1  0.4226210000000  0.4631530000000  0.5296060000000 1.0
C      1  0.5430850000000  0.5470440000000  0.4505180000000 1.0
C      1  0.5671150000000  0.4767640000000  0.4707030000000 1.0
C      1  0.4830010000000  0.5696110000000  0.4583210000000 1.0
C      1  0.4942770000000  0.4501490000000  0.5065400000000 1.0
C      1  0.4608540000000  0.4963320000000  0.4678010000000 1.0
C      1  0.5352210000000  0.5791280000000  0.4710740000000 1.0
C      1  0.5076900000000  0.4646190000000  0.4404900000000 1.0
C      1  0.5757190000000  0.5642880000000  0.4954820000000 1.0
C      1  0.4464460000000  0.5478060000000  0.4259260000000 1.0
C      1  0.4774890000000  0.4897630000000  0.4291740000000 1.0
C      1  0.5405080000000  0.4332120000000  0.4691550000000 1.0
C      1  0.5631320000000  0.4952210000000  0.4215640000000 1.0
C      1  0.5978790000000  0.4926300000000  0.4632400000000 1.0
C      1  0.5406630000000  0.4977500000000  0.4747800000000 1.0
C      1  0.4869900000000  0.4817670000000  0.5095440000000 1.0
C      1  0.4884960000000  0.4422640000000  0.5745170000000 1.0
C      1  0.5927500000000  0.5423740000000  0.4989120000000 1.0
C      1  0.4476010000000  0.5812770000000  0.5513000000000 1.0
C      1  0.4684980000000  0.5983190000000  0.5218600000000 1.0
C      1  0.4405370000000  0.4926880000000  0.5568260000000 1.0
C      1  0.5943710000000  0.5341090000000  0.5265190000000 1.0
C      1  0.5307730000000  0.4652370000000  0.4730840000000 1.0
C      1  0.4263130000000  0.5288070000000  0.5211220000000 1.0
C      1  0.5100760000000  0.5290770000000  0.5577540000000 1.0
C      1  0.4699890000000  0.4585920000000  0.4301670000000 1.0
C      1  0.5660770000000  0.5166880000000  0.4624170000000 1.0
END
