TITL C-2847953-8112-724 0.00100916675852992 125000 -1018.34282771726 0 0 185 (C1) n - 1
REM
REM in /home/bkarasulu/work/CARBON/AIRSS/Generating-Clusters/AIREBO/with-SteepDescent/Only-C1/SD-CG-opt/Try1-1.4A-POS3A/HFTN-CG
REM
REM
REM
REM
REM
REM ./C.cell (11c1c37f851c82e70ff6c80c92926a4b)
REM
REM compiler GCC version 9.2.1 20190827 (Red Hat 9.2.1-1)
REM options -cpp -mtune=generic -march=x86-64 -g -O0 -fpre-include=/usr/include/finclude/math-vector-fortran.h
REM seed 724242261 1620296637 624494030 -1907651597 1847297670 119089653 -235599049 1335460479 554220414 -983116206 -942344008 -830726933 89087087 1918643816 -676929664 814199568 1489985892 -661549538 -132877785 -275971205 453692781 -227443281 121628724 1923007307 1859849232 610733795 -450900671 -552661630 -1091480401 -1567088931 -398439917 1494773733 986471322
REM
CELL 1.54180   50.00000   50.00000   50.00000   90.00000   90.00000   90.00000
LATT -1
SFAC C  
C      1  0.4532660000000  0.6068690000000  0.5421180000000 1.0
C      1  0.5006240000000  0.4500360000000  0.4694960000000 1.0
C      1  0.4858960000000  0.5653700000000  0.5210890000000 1.0
C      1  0.5858830000000  0.5722410000000  0.5047900000000 1.0
C      1  0.5335300000000  0.4630170000000  0.5403340000000 1.0
C      1  0.4175790000000  0.5803550000000  0.5291760000000 1.0
C      1  0.3942310000000  0.4825160000000  0.5354710000000 1.0
C      1  0.5358200000000  0.5023130000000  0.5832870000000 1.0
C      1  0.4838990000000  0.5659180000000  0.4553290000000 1.0
C      1  0.4433090000000  0.5444760000000  0.5683870000000 1.0
C      1  0.4425300000000  0.4760370000000  0.4331150000000 1.0
C      1  0.6028930000000  0.5175320000000  0.5082820000000 1.0
C      1  0.5311320000000  0.5409310000000  0.5216190000000 1.0
C      1  0.4984170000000  0.5049000000000  0.5105220000000 1.0
C      1  0.4100500000000  0.5624470000000  0.4686140000000 1.0
C      1  0.4629500000000  0.4203850000000  0.4397010000000 1.0
C      1  0.4091030000000  0.4524000000000  0.4557780000000 1.0
C      1  0.5966650000000  0.4407290000000  0.4805810000000 1.0
C      1  0.5891220000000  0.4637890000000  0.5274070000000 1.0
C      1  0.5563270000000  0.4573000000000  0.4544530000000 1.0
C      1  0.4847190000000  0.6102530000000  0.5521270000000 1.0
C      1  0.5738130000000  0.5230430000000  0.5430910000000 1.0
C      1  0.4458700000000  0.5209440000000  0.4599480000000 1.0
C      1  0.5565860000000  0.5013950000000  0.4011900000000 1.0
C      1  0.5059390000000  0.5041480000000  0.4551190000000 1.0
C      1  0.5201940000000  0.5405560000000  0.5747240000000 1.0
C      1  0.3919840000000  0.4543670000000  0.5370400000000 1.0
C      1  0.4939580000000  0.3823860000000  0.4984250000000 1.0
C      1  0.5827290000000  0.5497790000000  0.5487680000000 1.0
C      1  0.5767100000000  0.4210050000000  0.4981610000000 1.0
C      1  0.5725230000000  0.5156830000000  0.4974690000000 1.0
C      1  0.4520420000000  0.5665050000000  0.4127190000000 1.0
C      1  0.4809770000000  0.5022780000000  0.3785290000000 1.0
C      1  0.6009530000000  0.4898340000000  0.5281750000000 1.0
C      1  0.5202260000000  0.4766660000000  0.4702130000000 1.0
C      1  0.5282130000000  0.5001520000000  0.5175530000000 1.0
C      1  0.4634290000000  0.4354000000000  0.4703930000000 1.0
C      1  0.4371630000000  0.5208030000000  0.5925450000000 1.0
C      1  0.5683140000000  0.4915120000000  0.4786140000000 1.0
C      1  0.5465480000000  0.4628830000000  0.4049290000000 1.0
C      1  0.5434050000000  0.5262090000000  0.4174570000000 1.0
C      1  0.5511690000000  0.5832420000000  0.5617120000000 1.0
C      1  0.4234330000000  0.4921830000000  0.5803610000000 1.0
C      1  0.4306360000000  0.3982280000000  0.5054640000000 1.0
C      1  0.4134190000000  0.4903820000000  0.4876030000000 1.0
C      1  0.4180140000000  0.4970940000000  0.5482080000000 1.0
C      1  0.4696510000000  0.4193320000000  0.5731110000000 1.0
C      1  0.5640880000000  0.5803720000000  0.4799790000000 1.0
C      1  0.4711560000000  0.4309840000000  0.5032280000000 1.0
C      1  0.5117260000000  0.4440300000000  0.4378950000000 1.0
C      1  0.5579200000000  0.4250410000000  0.4512010000000 1.0
C      1  0.4730800000000  0.4666500000000  0.4610750000000 1.0
C      1  0.4392720000000  0.4879590000000  0.4649400000000 1.0
C      1  0.4573320000000  0.4939500000000  0.5979430000000 1.0
C      1  0.5927800000000  0.5767020000000  0.4660610000000 1.0
C      1  0.5460740000000  0.5555950000000  0.4947680000000 1.0
C      1  0.5149400000000  0.5990590000000  0.5107880000000 1.0
C      1  0.5910680000000  0.5033360000000  0.5511840000000 1.0
C      1  0.5092730000000  0.4368310000000  0.5790230000000 1.0
C      1  0.5301480000000  0.5014450000000  0.4867460000000 1.0
C      1  0.4663770000000  0.4358520000000  0.4148970000000 1.0
C      1  0.5759720000000  0.5300240000000  0.4514550000000 1.0
C      1  0.5550510000000  0.5187320000000  0.5210250000000 1.0
C      1  0.5599850000000  0.5708730000000  0.4301600000000 1.0
C      1  0.5315430000000  0.4954920000000  0.5502510000000 1.0
C      1  0.4765550000000  0.5910430000000  0.4778310000000 1.0
C      1  0.4523190000000  0.5697100000000  0.4433070000000 1.0
C      1  0.5959090000000  0.5481990000000  0.5213630000000 1.0
C      1  0.5250030000000  0.4960970000000  0.3988970000000 1.0
C      1  0.4127310000000  0.5242440000000  0.4818490000000 1.0
C      1  0.5186200000000  0.5045210000000  0.6127820000000 1.0
C      1  0.5662890000000  0.5441600000000  0.4265270000000 1.0
C      1  0.5804620000000  0.4925460000000  0.4234480000000 1.0
C      1  0.4660860000000  0.5267430000000  0.4865790000000 1.0
C      1  0.5378140000000  0.4193570000000  0.5711250000000 1.0
C      1  0.4853120000000  0.5155360000000  0.5383010000000 1.0
C      1  0.4437400000000  0.4331730000000  0.5564040000000 1.0
C      1  0.4274660000000  0.6052230000000  0.5363720000000 1.0
C      1  0.4893910000000  0.5867450000000  0.5757170000000 1.0
C      1  0.5144860000000  0.5466550000000  0.4858670000000 1.0
C      1  0.5313430000000  0.4162700000000  0.4370480000000 1.0
C      1  0.5133610000000  0.5828950000000  0.4542200000000 1.0
C      1  0.5357410000000  0.5010310000000  0.4390080000000 1.0
C      1  0.5654760000000  0.4258090000000  0.5520710000000 1.0
C      1  0.5046250000000  0.3738150000000  0.4743380000000 1.0
C      1  0.4653880000000  0.5651280000000  0.4967970000000 1.0
C      1  0.5825600000000  0.4935420000000  0.5758760000000 1.0
C      1  0.4714730000000  0.4343080000000  0.5367100000000 1.0
C      1  0.4113600000000  0.4433130000000  0.5540700000000 1.0
C      1  0.3962200000000  0.5206180000000  0.5072500000000 1.0
C      1  0.5861250000000  0.4435580000000  0.4511500000000 1.0
C      1  0.5193350000000  0.5702930000000  0.5219750000000 1.0
C      1  0.5199190000000  0.4355100000000  0.5471480000000 1.0
C      1  0.5144590000000  0.3985420000000  0.4590390000000 1.0
C      1  0.5506720000000  0.4043020000000  0.5367110000000 1.0
C      1  0.4011890000000  0.4991680000000  0.4347040000000 1.0
C      1  0.3885100000000  0.4932220000000  0.5105750000000 1.0
C      1  0.4244470000000  0.4477580000000  0.5018050000000 1.0
C      1  0.5225580000000  0.4231110000000  0.5004340000000 1.0
C      1  0.4712430000000  0.5240930000000  0.5966100000000 1.0
C      1  0.5050030000000  0.4756030000000  0.6101710000000 1.0
C      1  0.5177120000000  0.4178100000000  0.4084050000000 1.0
C      1  0.5445070000000  0.5867460000000  0.5345650000000 1.0
C      1  0.5436250000000  0.5740190000000  0.4564830000000 1.0
C      1  0.5050060000000  0.6030500000000  0.4791880000000 1.0
C      1  0.5527790000000  0.4765480000000  0.4320460000000 1.0
C      1  0.4905260000000  0.4180070000000  0.4594560000000 1.0
C      1  0.5168110000000  0.5259550000000  0.5457870000000 1.0
C      1  0.4421150000000  0.4994720000000  0.5034290000000 1.0
C      1  0.4587340000000  0.5022410000000  0.5650220000000 1.0
C      1  0.6131900000000  0.5207470000000  0.4760000000000 1.0
C      1  0.4012870000000  0.4588480000000  0.4836410000000 1.0
C      1  0.4830680000000  0.5342400000000  0.4311470000000 1.0
C      1  0.4299500000000  0.4346200000000  0.4565050000000 1.0
C      1  0.5510260000000  0.5392790000000  0.5819370000000 1.0
C      1  0.5102340000000  0.5701570000000  0.5803000000000 1.0
C      1  0.5442930000000  0.4648450000000  0.5725470000000 1.0
C      1  0.4706460000000  0.5789750000000  0.5416700000000 1.0
C      1  0.4620260000000  0.4788230000000  0.4884990000000 1.0
C      1  0.4928230000000  0.4571580000000  0.5018490000000 1.0
C      1  0.4943740000000  0.4133180000000  0.5505410000000 1.0
C      1  0.3990310000000  0.5247960000000  0.4546820000000 1.0
C      1  0.6062340000000  0.5528550000000  0.4814120000000 1.0
C      1  0.5184250000000  0.4642060000000  0.4157670000000 1.0
C      1  0.5258860000000  0.4542280000000  0.5093880000000 1.0
C      1  0.4957050000000  0.4847730000000  0.4119490000000 1.0
C      1  0.4448650000000  0.5807280000000  0.4746010000000 1.0
C      1  0.4744020000000  0.4701150000000  0.6056060000000 1.0
C      1  0.3856170000000  0.4448590000000  0.5103880000000 1.0
C      1  0.4521430000000  0.5364950000000  0.4211570000000 1.0
C      1  0.4351060000000  0.4647000000000  0.5640900000000 1.0
C      1  0.5810940000000  0.4496320000000  0.5515630000000 1.0
C      1  0.4992990000000  0.5702200000000  0.4253010000000 1.0
C      1  0.4551590000000  0.4609710000000  0.4094970000000 1.0
C      1  0.5957560000000  0.4742730000000  0.4746600000000 1.0
C      1  0.5310800000000  0.5442650000000  0.4595920000000 1.0
C      1  0.4936350000000  0.4336090000000  0.4109480000000 1.0
C      1  0.5013200000000  0.5425130000000  0.4055710000000 1.0
C      1  0.4215750000000  0.5739710000000  0.4984730000000 1.0
C      1  0.5489900000000  0.5160660000000  0.4651530000000 1.0
C      1  0.5991670000000  0.4729410000000  0.4414800000000 1.0
C      1  0.4212250000000  0.5260530000000  0.4290530000000 1.0
C      1  0.5016480000000  0.5214170000000  0.5902070000000 1.0
C      1  0.4735690000000  0.5309130000000  0.5634760000000 1.0
C      1  0.4081990000000  0.5274750000000  0.5600360000000 1.0
C      1  0.5481200000000  0.4657750000000  0.4863450000000 1.0
C      1  0.4486680000000  0.4839540000000  0.5395580000000 1.0
C      1  0.5656660000000  0.5599900000000  0.5689290000000 1.0
C      1  0.4577460000000  0.5213130000000  0.5191120000000 1.0
C      1  0.4759950000000  0.4809410000000  0.5194530000000 1.0
C      1  0.4917030000000  0.5339670000000  0.4640430000000 1.0
C      1  0.5089980000000  0.6301560000000  0.4994470000000 1.0
C      1  0.5643050000000  0.5123020000000  0.5875890000000 1.0
C      1  0.6182490000000  0.4908560000000  0.4828640000000 1.0
C      1  0.4378740000000  0.5451720000000  0.4912010000000 1.0
C      1  0.5410830000000  0.4112570000000  0.4751980000000 1.0
C      1  0.5510610000000  0.4063720000000  0.5071320000000 1.0
C      1  0.5755790000000  0.4540940000000  0.5026900000000 1.0
C      1  0.4168240000000  0.5600230000000  0.5537650000000 1.0
C      1  0.5024910000000  0.6219650000000  0.5318350000000 1.0
C      1  0.4383520000000  0.5358730000000  0.5358560000000 1.0
C      1  0.4951120000000  0.4092220000000  0.5030540000000 1.0
C      1  0.5957480000000  0.5060800000000  0.4506450000000 1.0
C      1  0.4715820000000  0.4474020000000  0.5890500000000 1.0
C      1  0.5175470000000  0.5360580000000  0.4336940000000 1.0
C      1  0.5046680000000  0.4893550000000  0.5790750000000 1.0
C      1  0.4337210000000  0.4693900000000  0.5148970000000 1.0
C      1  0.4924460000000  0.5370920000000  0.5053990000000 1.0
C      1  0.4123180000000  0.4742930000000  0.4388780000000 1.0
C      1  0.5653960000000  0.5917450000000  0.5182190000000 1.0
C      1  0.4612550000000  0.5723320000000  0.5732390000000 1.0
C      1  0.5743370000000  0.5419580000000  0.4816340000000 1.0
C      1  0.4863090000000  0.4528010000000  0.5596110000000 1.0
C      1  0.4824670000000  0.4892360000000  0.4399960000000 1.0
C      1  0.5251560000000  0.4583000000000  0.5932710000000 1.0
C      1  0.4304620000000  0.5491170000000  0.4522710000000 1.0
C      1  0.5724460000000  0.4671370000000  0.5730040000000 1.0
C      1  0.5238350000000  0.3962280000000  0.5504880000000 1.0
C      1  0.4906320000000  0.4841730000000  0.5503060000000 1.0
C      1  0.4712060000000  0.4781660000000  0.3939120000000 1.0
C      1  0.5027380000000  0.5163350000000  0.3884120000000 1.0
C      1  0.4080400000000  0.5305880000000  0.5287570000000 1.0
C      1  0.4444470000000  0.4075790000000  0.4656080000000 1.0
C      1  0.4561030000000  0.5054340000000  0.4337350000000 1.0
C      1  0.4386350000000  0.4244490000000  0.5048630000000 1.0
END
