TITL C-2848502-4955-111 0.00058371021790014 125000 -605.11698668845 0 0 111 (C1) n - 1
REM
REM in /home/bkarasulu/work/CARBON/AIRSS/Generating-Clusters/AIREBO/with-SteepDescent/Only-C1/SD-CG-opt/Try1-1.4A-POS3A/HFTN-CG
REM
REM
REM
REM
REM
REM ./C.cell (11c1c37f851c82e70ff6c80c92926a4b)
REM
REM compiler GCC version 9.2.1 20190827 (Red Hat 9.2.1-1)
REM options -cpp -mtune=generic -march=x86-64 -g -O0 -fpre-include=/usr/include/finclude/math-vector-fortran.h
REM seed 1544691211 -618491587 1890383354 1800543754 1310100920 2043619137 671892181 33419749 -1435822399 1589888159 1652797270 -1495647866 -2138960800 -1067260340 696431610 -237615067 -22211881 383271269 1946227100 1009479994 -1196810165 524325094 1722633366 -1775599690 -361436325 978193457 2129626028 398008488 -814649059 -727910899 -1166825888 239485382 1773392452
REM
CELL 1.54180   50.00000   50.00000   50.00000   90.00000   90.00000   90.00000
LATT -1
SFAC C  
C      1  0.5424120000000  0.4568560000000  0.5106040000000 1.0
C      1  0.4874460000000  0.5566080000000  0.4994950000000 1.0
C      1  0.5445140000000  0.4224310000000  0.4565310000000 1.0
C      1  0.5095540000000  0.5139830000000  0.5508730000000 1.0
C      1  0.5236130000000  0.4359050000000  0.5390070000000 1.0
C      1  0.4720250000000  0.5330230000000  0.5185280000000 1.0
C      1  0.4686900000000  0.5045200000000  0.5907310000000 1.0
C      1  0.5548710000000  0.4409860000000  0.5366170000000 1.0
C      1  0.4823650000000  0.5391740000000  0.4082090000000 1.0
C      1  0.4603090000000  0.5036010000000  0.4303090000000 1.0
C      1  0.5169800000000  0.4990620000000  0.5805200000000 1.0
C      1  0.4566920000000  0.4769540000000  0.5143410000000 1.0
C      1  0.5446440000000  0.5087630000000  0.5902220000000 1.0
C      1  0.5408910000000  0.4439240000000  0.4825200000000 1.0
C      1  0.4367880000000  0.5747300000000  0.4969910000000 1.0
C      1  0.4987940000000  0.5317350000000  0.4438810000000 1.0
C      1  0.5679090000000  0.4782720000000  0.5181490000000 1.0
C      1  0.4587500000000  0.5818310000000  0.5108260000000 1.0
C      1  0.4463880000000  0.4861910000000  0.5417320000000 1.0
C      1  0.5055460000000  0.4847960000000  0.5338560000000 1.0
C      1  0.4781120000000  0.5116990000000  0.4106880000000 1.0
C      1  0.5425140000000  0.4763620000000  0.4723500000000 1.0
C      1  0.5175690000000  0.5659840000000  0.4912100000000 1.0
C      1  0.4603260000000  0.4280700000000  0.5046600000000 1.0
C      1  0.5092760000000  0.4781880000000  0.4349210000000 1.0
C      1  0.4473490000000  0.4468820000000  0.5252920000000 1.0
C      1  0.5819300000000  0.4326910000000  0.5233190000000 1.0
C      1  0.5117740000000  0.4640810000000  0.4645730000000 1.0
C      1  0.4258970000000  0.4737510000000  0.5647820000000 1.0
C      1  0.5817920000000  0.4827950000000  0.5487680000000 1.0
C      1  0.5324090000000  0.5290280000000  0.4893410000000 1.0
C      1  0.4909300000000  0.4337350000000  0.4995680000000 1.0
C      1  0.4608110000000  0.5215300000000  0.5679130000000 1.0
C      1  0.5502000000000  0.4931310000000  0.4437710000000 1.0
C      1  0.5435660000000  0.5515650000000  0.5203650000000 1.0
C      1  0.4853850000000  0.4834770000000  0.5091470000000 1.0
C      1  0.4482920000000  0.5382530000000  0.4628050000000 1.0
C      1  0.4626440000000  0.4820520000000  0.5713240000000 1.0
C      1  0.5903170000000  0.4535410000000  0.5067470000000 1.0
C      1  0.5058990000000  0.4954820000000  0.4084770000000 1.0
C      1  0.5645350000000  0.5370510000000  0.4546870000000 1.0
C      1  0.4070460000000  0.4770660000000  0.5148590000000 1.0
C      1  0.4804220000000  0.4562970000000  0.5693200000000 1.0
C      1  0.5728440000000  0.5352390000000  0.5145930000000 1.0
C      1  0.4606710000000  0.5557990000000  0.4156230000000 1.0
C      1  0.4273280000000  0.4916830000000  0.4618460000000 1.0
C      1  0.5322010000000  0.5088670000000  0.4254140000000 1.0
C      1  0.4386940000000  0.4894460000000  0.4913170000000 1.0
C      1  0.5062430000000  0.4678400000000  0.5886850000000 1.0
C      1  0.4598920000000  0.4385150000000  0.4748300000000 1.0
C      1  0.4698210000000  0.4291370000000  0.4436900000000 1.0
C      1  0.5273830000000  0.5511430000000  0.4636840000000 1.0
C      1  0.4224720000000  0.5036440000000  0.5249960000000 1.0
C      1  0.5229340000000  0.4220700000000  0.4350940000000 1.0
C      1  0.5191590000000  0.4981660000000  0.4840510000000 1.0
C      1  0.4805030000000  0.5780590000000  0.4532760000000 1.0
C      1  0.4767920000000  0.5578720000000  0.5718090000000 1.0
C      1  0.5369940000000  0.5397270000000  0.4360950000000 1.0
C      1  0.5260370000000  0.5494550000000  0.5592060000000 1.0
C      1  0.4913500000000  0.4617420000000  0.4861520000000 1.0
C      1  0.4391480000000  0.5125960000000  0.4468840000000 1.0
C      1  0.4164250000000  0.5058830000000  0.5588580000000 1.0
C      1  0.4922900000000  0.5869740000000  0.5130110000000 1.0
C      1  0.5288440000000  0.4855770000000  0.5138880000000 1.0
C      1  0.4750490000000  0.5203270000000  0.4737660000000 1.0
C      1  0.5184000000000  0.5286990000000  0.5210070000000 1.0
C      1  0.5349550000000  0.4647510000000  0.5714800000000 1.0
C      1  0.5153910000000  0.4214600000000  0.4837400000000 1.0
C      1  0.4948930000000  0.5150570000000  0.5008710000000 1.0
C      1  0.4859980000000  0.5506370000000  0.4687200000000 1.0
C      1  0.4948230000000  0.4117580000000  0.4408840000000 1.0
C      1  0.4456170000000  0.5194780000000  0.5057450000000 1.0
C      1  0.4940580000000  0.5139170000000  0.5977590000000 1.0
C      1  0.4172280000000  0.4541640000000  0.5166980000000 1.0
C      1  0.4651490000000  0.5625110000000  0.5340280000000 1.0
C      1  0.5246200000000  0.4504920000000  0.4361530000000 1.0
C      1  0.4895690000000  0.5770640000000  0.5526850000000 1.0
C      1  0.6125460000000  0.4536700000000  0.4583610000000 1.0
C      1  0.5960570000000  0.4602440000000  0.4784270000000 1.0
C      1  0.5025800000000  0.5363040000000  0.5756630000000 1.0
C      1  0.5491490000000  0.5302860000000  0.5462910000000 1.0
C      1  0.5733710000000  0.4823400000000  0.4848380000000 1.0
C      1  0.5088030000000  0.4202270000000  0.5226510000000 1.0
C      1  0.5493810000000  0.5049080000000  0.5283140000000 1.0
C      1  0.4460040000000  0.5577890000000  0.5618780000000 1.0
C      1  0.4738550000000  0.4582050000000  0.4269090000000 1.0
C      1  0.4868190000000  0.4676950000000  0.4037770000000 1.0
C      1  0.4611680000000  0.4713060000000  0.4750020000000 1.0
C      1  0.4420830000000  0.4490050000000  0.4478440000000 1.0
C      1  0.5104050000000  0.5455040000000  0.4172110000000 1.0
C      1  0.5101090000000  0.5789210000000  0.4543250000000 1.0
C      1  0.5251520000000  0.5802010000000  0.5199640000000 1.0
C      1  0.4321900000000  0.5292560000000  0.5662300000000 1.0
C      1  0.4304610000000  0.5447510000000  0.4886770000000 1.0
C      1  0.5578830000000  0.5251100000000  0.5763140000000 1.0
C      1  0.5847280000000  0.5085090000000  0.4982730000000 1.0
C      1  0.5593810000000  0.4627840000000  0.5579510000000 1.0
C      1  0.5727870000000  0.5108070000000  0.4491430000000 1.0
C      1  0.5076310000000  0.4022490000000  0.4662060000000 1.0
C      1  0.5606240000000  0.5448300000000  0.4848320000000 1.0
C      1  0.4782380000000  0.5226910000000  0.5471380000000 1.0
C      1  0.5484780000000  0.5745930000000  0.4880630000000 1.0
C      1  0.4492840000000  0.4495860000000  0.5572010000000 1.0
C      1  0.5165060000000  0.5733860000000  0.5484080000000 1.0
C      1  0.4075760000000  0.5298610000000  0.5092590000000 1.0
C      1  0.4574450000000  0.5615560000000  0.4431380000000 1.0
C      1  0.5083570000000  0.4603140000000  0.5507450000000 1.0
C      1  0.5885280000000  0.5097870000000  0.5312930000000 1.0
C      1  0.4976300000000  0.5007760000000  0.4575090000000 1.0
C      1  0.4716520000000  0.4810620000000  0.4478760000000 1.0
C      1  0.4211830000000  0.4656730000000  0.4509230000000 1.0
END
