TITL C-2848500-1637-227 0.00137421959516599 125000 -109.422387910104 0 0 22 (C1) n - 1
REM
REM in /home/bkarasulu/work/CARBON/AIRSS/Generating-Clusters/AIREBO/with-SteepDescent/Only-C1/SD-CG-opt/Try1-1.4A-POS3A/HFTN-CG
REM
REM
REM
REM
REM
REM ./C.cell (11c1c37f851c82e70ff6c80c92926a4b)
REM
REM compiler GCC version 9.2.1 20190827 (Red Hat 9.2.1-1)
REM options -cpp -mtune=generic -march=x86-64 -g -O0 -fpre-include=/usr/include/finclude/math-vector-fortran.h
REM seed 695780680 -875668426 -1740523077 226562261 1357293753 1851572113 618633914 -1268340294 -1130585361 -1356562835 -594359098 -345493540 -311150728 234420723 -1505944546 1736234918 21714196 1635309065 1302038858 1094038440 836958277 1833205004 -723501279 987748124 -1615323766 754242777 611485478 2077863858 -1414033030 -1763550884 839226835 987889761 -2047762207
REM
CELL 1.54180   50.00000   50.00000   50.00000   90.00000   90.00000   90.00000
LATT -1
SFAC C  
C      1  0.5206710000000  0.5143780000000  0.5178130000000 1.0
C      1  0.4611650000000  0.5257240000000  0.4527840000000 1.0
C      1  0.5394430000000  0.4793050000000  0.5209690000000 1.0
C      1  0.4478800000000  0.5210840000000  0.4825240000000 1.0
C      1  0.5482540000000  0.4472530000000  0.4554430000000 1.0
C      1  0.4769520000000  0.4592520000000  0.4781500000000 1.0
C      1  0.5375290000000  0.4623610000000  0.4729920000000 1.0
C      1  0.4699150000000  0.5222230000000  0.5072780000000 1.0
C      1  0.5224520000000  0.5129040000000  0.4837370000000 1.0
C      1  0.5635340000000  0.4674750000000  0.5254690000000 1.0
C      1  0.5245850000000  0.4805280000000  0.4938890000000 1.0
C      1  0.4679290000000  0.5486680000000  0.4774250000000 1.0
C      1  0.4975610000000  0.4839040000000  0.5480820000000 1.0
C      1  0.5231470000000  0.4952710000000  0.5406380000000 1.0
C      1  0.4779290000000  0.5552690000000  0.5075470000000 1.0
C      1  0.4764800000000  0.5016980000000  0.5548930000000 1.0
C      1  0.5161470000000  0.5297230000000  0.4594910000000 1.0
C      1  0.4940100000000  0.5053350000000  0.5004240000000 1.0
C      1  0.4605980000000  0.5138030000000  0.5359570000000 1.0
C      1  0.4929160000000  0.4729230000000  0.4996900000000 1.0
C      1  0.4898400000000  0.4634450000000  0.5294110000000 1.0
C      1  0.4910630000000  0.5374760000000  0.4553940000000 1.0
END
