TITL C-2848495-5024-613 -0.00205963506850676 125000 -91.9208575415049 0 0 18 (C1) n - 1
REM
REM in /home/bkarasulu/work/CARBON/AIRSS/Generating-Clusters/AIREBO/with-SteepDescent/Only-C1/SD-CG-opt/Try1-1.4A-POS3A/HFTN-CG
REM
REM
REM
REM
REM
REM ./C.cell (11c1c37f851c82e70ff6c80c92926a4b)
REM
REM compiler GCC version 9.2.1 20190827 (Red Hat 9.2.1-1)
REM options -cpp -mtune=generic -march=x86-64 -g -O0 -fpre-include=/usr/include/finclude/math-vector-fortran.h
REM seed -1804091019 439896487 1453998681 1377002360 -1931469679 1648264098 12823644 -811720625 -1939884838 -1867488352 -505948233 185660026 929334986 -192093333 -820835735 965054893 -545918560 2031019339 80266512 1608972131 -1830433851 -1973682951 -85592363 1613140917 2144075864 -429952002 105638921 2040457153 1803667853 -1362983802 -581243610 -1075385654 1732820014
REM
CELL 1.54180   50.00000   50.00000   50.00000   90.00000   90.00000   90.00000
LATT -1
SFAC C  
C      1  0.5420100000000  0.4974610000000  0.5095700000000 1.0
C      1  0.4469250000000  0.4818220000000  0.5024880000000 1.0
C      1  0.4928560000000  0.5568770000000  0.5144930000000 1.0
C      1  0.4835560000000  0.5091290000000  0.4895900000000 1.0
C      1  0.4895850000000  0.5268830000000  0.5614900000000 1.0
C      1  0.5202300000000  0.4507270000000  0.5019120000000 1.0
C      1  0.4758760000000  0.5177040000000  0.4641600000000 1.0
C      1  0.5425390000000  0.4706650000000  0.5083770000000 1.0
C      1  0.5027160000000  0.5256280000000  0.5052100000000 1.0
C      1  0.4905120000000  0.4653330000000  0.5078030000000 1.0
C      1  0.5456240000000  0.5390030000000  0.4846920000000 1.0
C      1  0.5316660000000  0.5212890000000  0.5002420000000 1.0
C      1  0.4498450000000  0.5161210000000  0.4570120000000 1.0
C      1  0.5251690000000  0.4321130000000  0.4820150000000 1.0
C      1  0.4944580000000  0.5273040000000  0.4470350000000 1.0
C      1  0.4737060000000  0.4849520000000  0.5001380000000 1.0
C      1  0.4992990000000  0.4425040000000  0.5274710000000 1.0
C      1  0.4934290000000  0.5344830000000  0.5363040000000 1.0
END
