TITL C-2847955-7945-229 -0.00180239344869881 125000 -479.692646985371 0 0 86 (C1) n - 1
REM
REM in /home/bkarasulu/work/CARBON/AIRSS/Generating-Clusters/AIREBO/with-SteepDescent/Only-C1/SD-CG-opt/Try1-1.4A-POS3A/HFTN-CG
REM
REM
REM
REM
REM
REM ./C.cell (11c1c37f851c82e70ff6c80c92926a4b)
REM
REM compiler GCC version 9.2.1 20190827 (Red Hat 9.2.1-1)
REM options -cpp -mtune=generic -march=x86-64 -g -O0 -fpre-include=/usr/include/finclude/math-vector-fortran.h
REM seed 1858889587 593213558 -1416666269 1623710839 284892438 749858333 418360567 1426025212 -1363078064 -1160900736 -45580290 -107221698 963044488 1740673398 -931910714 980955706 -1782217730 -1571506114 289015650 -1904823807 -1639465129 805541457 1304185110 -1169939782 1424355824 1971545483 -912262029 -766147928 392973872 1463580118 -1757582830 912075118 -1471601695
REM
CELL 1.54180   50.00000   50.00000   50.00000   90.00000   90.00000   90.00000
LATT -1
SFAC C  
C      1  0.5461970000000  0.4794740000000  0.5138910000000 1.0
C      1  0.4439330000000  0.5234950000000  0.5212330000000 1.0
C      1  0.4960440000000  0.4831970000000  0.5423400000000 1.0
C      1  0.5775180000000  0.5117930000000  0.4504160000000 1.0
C      1  0.5220850000000  0.4293980000000  0.4742630000000 1.0
C      1  0.5755040000000  0.5485330000000  0.4788000000000 1.0
C      1  0.5471100000000  0.4531600000000  0.5565400000000 1.0
C      1  0.4667940000000  0.5394100000000  0.4269140000000 1.0
C      1  0.4378140000000  0.5499830000000  0.5008090000000 1.0
C      1  0.5011830000000  0.4647780000000  0.5628020000000 1.0
C      1  0.5989760000000  0.5549470000000  0.5465950000000 1.0
C      1  0.5007490000000  0.4635610000000  0.4713020000000 1.0
C      1  0.4938250000000  0.4287060000000  0.4895720000000 1.0
C      1  0.5675550000000  0.5400360000000  0.4528530000000 1.0
C      1  0.4771250000000  0.4347990000000  0.5935140000000 1.0
C      1  0.4835730000000  0.5261490000000  0.4801590000000 1.0
C      1  0.4980310000000  0.5933270000000  0.4764020000000 1.0
C      1  0.4403890000000  0.4280110000000  0.5052020000000 1.0
C      1  0.4785110000000  0.4725990000000  0.5207350000000 1.0
C      1  0.5334090000000  0.4945790000000  0.5768880000000 1.0
C      1  0.5827360000000  0.5252000000000  0.5025370000000 1.0
C      1  0.5157300000000  0.5695460000000  0.5205950000000 1.0
C      1  0.5277140000000  0.4670180000000  0.5720380000000 1.0
C      1  0.5497830000000  0.4332670000000  0.4847430000000 1.0
C      1  0.5530140000000  0.5045730000000  0.5578590000000 1.0
C      1  0.5016700000000  0.5255620000000  0.5090480000000 1.0
C      1  0.4633170000000  0.4297040000000  0.4810020000000 1.0
C      1  0.4933980000000  0.4749850000000  0.4411010000000 1.0
C      1  0.4514430000000  0.4499740000000  0.5500200000000 1.0
C      1  0.5111560000000  0.4804930000000  0.4162800000000 1.0
C      1  0.5374490000000  0.5542220000000  0.5080390000000 1.0
C      1  0.5413340000000  0.5432950000000  0.4426460000000 1.0
C      1  0.5137160000000  0.5247680000000  0.4341770000000 1.0
C      1  0.4461890000000  0.5393190000000  0.4527360000000 1.0
C      1  0.4501010000000  0.4569330000000  0.4652450000000 1.0
C      1  0.4801170000000  0.4437410000000  0.5672670000000 1.0
C      1  0.4671780000000  0.5637340000000  0.4964090000000 1.0
C      1  0.4158820000000  0.4166040000000  0.4986820000000 1.0
C      1  0.4067320000000  0.5133890000000  0.4796020000000 1.0
C      1  0.4777970000000  0.5150500000000  0.5802040000000 1.0
C      1  0.5078840000000  0.5631790000000  0.5530040000000 1.0
C      1  0.5719470000000  0.4998880000000  0.5050720000000 1.0
C      1  0.4632170000000  0.5321710000000  0.5546990000000 1.0
C      1  0.5133670000000  0.5000500000000  0.4791810000000 1.0
C      1  0.4944660000000  0.5491880000000  0.4309960000000 1.0
C      1  0.5281760000000  0.5284310000000  0.4879100000000 1.0
C      1  0.4491680000000  0.4746400000000  0.5307500000000 1.0
C      1  0.4919130000000  0.5065740000000  0.4536210000000 1.0
C      1  0.5215900000000  0.5498830000000  0.4640120000000 1.0
C      1  0.5091810000000  0.5115820000000  0.5675910000000 1.0
C      1  0.4253640000000  0.5395080000000  0.4741000000000 1.0
C      1  0.5514000000000  0.5090050000000  0.4720310000000 1.0
C      1  0.4638050000000  0.5032700000000  0.4835520000000 1.0
C      1  0.4499680000000  0.4237070000000  0.5334060000000 1.0
C      1  0.4757260000000  0.4762420000000  0.4887750000000 1.0
C      1  0.4726160000000  0.5388060000000  0.5164870000000 1.0
C      1  0.5455800000000  0.4903620000000  0.4441340000000 1.0
C      1  0.4901420000000  0.5836470000000  0.5026380000000 1.0
C      1  0.5685600000000  0.4810170000000  0.4809320000000 1.0
C      1  0.5462500000000  0.4621290000000  0.4474560000000 1.0
C      1  0.4367690000000  0.5109270000000  0.4932450000000 1.0
C      1  0.4508850000000  0.5005420000000  0.5748390000000 1.0
C      1  0.5628770000000  0.4555200000000  0.4700810000000 1.0
C      1  0.4699730000000  0.5613420000000  0.5406970000000 1.0
C      1  0.4474150000000  0.4604310000000  0.4990190000000 1.0
C      1  0.4728370000000  0.5523340000000  0.4669920000000 1.0
C      1  0.5214310000000  0.4483100000000  0.4505250000000 1.0
C      1  0.4942630000000  0.5413390000000  0.5657600000000 1.0
C      1  0.4452110000000  0.5026860000000  0.5442970000000 1.0
C      1  0.5207010000000  0.4751450000000  0.4963170000000 1.0
C      1  0.4901760000000  0.5864600000000  0.5359280000000 1.0
C      1  0.3841530000000  0.5021260000000  0.4760500000000 1.0
C      1  0.5527930000000  0.4535320000000  0.5289910000000 1.0
C      1  0.4973820000000  0.4237470000000  0.5224160000000 1.0
C      1  0.5643580000000  0.5603180000000  0.5049150000000 1.0
C      1  0.5574580000000  0.4315560000000  0.5119450000000 1.0
C      1  0.4452470000000  0.4819560000000  0.4421060000000 1.0
C      1  0.4600180000000  0.5098230000000  0.4422390000000 1.0
C      1  0.5289460000000  0.4999650000000  0.4243920000000 1.0
C      1  0.5012770000000  0.4539840000000  0.5099080000000 1.0
C      1  0.5857000000000  0.5489360000000  0.5246990000000 1.0
C      1  0.4674680000000  0.4598990000000  0.4372080000000 1.0
C      1  0.4977450000000  0.5691080000000  0.4565860000000 1.0
C      1  0.5419210000000  0.5038410000000  0.5326800000000 1.0
C      1  0.4785110000000  0.4220060000000  0.5426500000000 1.0
C      1  0.5113830000000  0.5095750000000  0.5337100000000 1.0
END
