TITL C-2847948-6138-688 -0.00184628823128482 125000 -480.375046515337 0 0 93 (C1) n - 1
REM
REM in /home/bkarasulu/work/CARBON/AIRSS/Generating-Clusters/AIREBO/with-SteepDescent/Only-C1/SD-CG-opt/Try1-1.4A-POS3A/HFTN-CG
REM
REM
REM
REM
REM
REM ./C.cell (11c1c37f851c82e70ff6c80c92926a4b)
REM
REM compiler GCC version 9.2.1 20190827 (Red Hat 9.2.1-1)
REM options -cpp -mtune=generic -march=x86-64 -g -O0 -fpre-include=/usr/include/finclude/math-vector-fortran.h
REM seed -2050637559 -1959067927 909170436 -1294621833 382066679 -685630678 -1694100474 1068405329 2020511233 697094608 -650742850 1897131647 -1417298276 -938464057 -1487942182 -913845981 -1337232373 1340530634 1181746661 1486241871 1190910415 1577590393 -408525181 911896944 -54156393 -2000549638 697369008 -1866163896 -781640032 849941056 1054408282 -693673444 789954612
REM
CELL 1.54180   50.00000   50.00000   50.00000   90.00000   90.00000   90.00000
LATT -1
SFAC C  
C      1  0.4187120000000  0.5209910000000  0.5514800000000 1.0
C      1  0.5339690000000  0.5786980000000  0.4925510000000 1.0
C      1  0.5742970000000  0.4887210000000  0.4680060000000 1.0
C      1  0.5458840000000  0.4621580000000  0.5657960000000 1.0
C      1  0.5353340000000  0.5312990000000  0.4885670000000 1.0
C      1  0.4182720000000  0.4956230000000  0.5056100000000 1.0
C      1  0.4786190000000  0.5586690000000  0.5436040000000 1.0
C      1  0.5159090000000  0.4383110000000  0.5356940000000 1.0
C      1  0.5222030000000  0.4334500000000  0.4878990000000 1.0
C      1  0.4277420000000  0.5546440000000  0.4787460000000 1.0
C      1  0.4439090000000  0.5116810000000  0.5195990000000 1.0
C      1  0.5840250000000  0.4981150000000  0.5489600000000 1.0
C      1  0.5494910000000  0.4458730000000  0.4502290000000 1.0
C      1  0.4787540000000  0.5267680000000  0.5377050000000 1.0
C      1  0.5361380000000  0.5289460000000  0.4343240000000 1.0
C      1  0.5770160000000  0.4639390000000  0.4911250000000 1.0
C      1  0.3899160000000  0.5097930000000  0.5126870000000 1.0
C      1  0.5803490000000  0.5199720000000  0.4711060000000 1.0
C      1  0.4850630000000  0.5471040000000  0.4971330000000 1.0
C      1  0.5035410000000  0.5549810000000  0.5245800000000 1.0
C      1  0.5383260000000  0.4642690000000  0.4189730000000 1.0
C      1  0.5580040000000  0.5364470000000  0.4669400000000 1.0
C      1  0.4756200000000  0.5026720000000  0.4855120000000 1.0
C      1  0.4498770000000  0.4624080000000  0.4391340000000 1.0
C      1  0.5233050000000  0.5730130000000  0.4614260000000 1.0
C      1  0.4231100000000  0.5358330000000  0.4586720000000 1.0
C      1  0.4386290000000  0.4394300000000  0.5577830000000 1.0
C      1  0.4318500000000  0.4746100000000  0.5284330000000 1.0
C      1  0.4747780000000  0.5146880000000  0.5779590000000 1.0
C      1  0.4902730000000  0.5162370000000  0.5104170000000 1.0
C      1  0.5521580000000  0.5491040000000  0.5373470000000 1.0
C      1  0.4463500000000  0.5758790000000  0.4765700000000 1.0
C      1  0.5103090000000  0.4722230000000  0.4741100000000 1.0
C      1  0.5458840000000  0.4539010000000  0.5013270000000 1.0
C      1  0.5216710000000  0.4974480000000  0.5888440000000 1.0
C      1  0.4626410000000  0.4744610000000  0.4972400000000 1.0
C      1  0.4638600000000  0.5768000000000  0.5538390000000 1.0
C      1  0.5328670000000  0.5558200000000  0.5121790000000 1.0
C      1  0.5300010000000  0.4979740000000  0.4844090000000 1.0
C      1  0.5363500000000  0.5142830000000  0.5262950000000 1.0
C      1  0.4374290000000  0.4884110000000  0.4791370000000 1.0
C      1  0.4961390000000  0.5056610000000  0.4380200000000 1.0
C      1  0.5458390000000  0.5557700000000  0.4470400000000 1.0
C      1  0.5224320000000  0.4378910000000  0.4574700000000 1.0
C      1  0.4286090000000  0.4883330000000  0.5566770000000 1.0
C      1  0.4517390000000  0.5129450000000  0.5526640000000 1.0
C      1  0.4289390000000  0.4611180000000  0.5722660000000 1.0
C      1  0.5147660000000  0.4929840000000  0.5144000000000 1.0
C      1  0.5788680000000  0.4811860000000  0.5201370000000 1.0
C      1  0.4864920000000  0.4754500000000  0.5214820000000 1.0
C      1  0.4780410000000  0.4922580000000  0.4196890000000 1.0
C      1  0.5053780000000  0.5308030000000  0.4305390000000 1.0
C      1  0.5012930000000  0.5103030000000  0.5571250000000 1.0
C      1  0.4917020000000  0.5710870000000  0.4534350000000 1.0
C      1  0.5707430000000  0.5094510000000  0.5671140000000 1.0
C      1  0.4491650000000  0.4454950000000  0.5310870000000 1.0
C      1  0.4483070000000  0.5129960000000  0.4581880000000 1.0
C      1  0.5135990000000  0.4218530000000  0.5165640000000 1.0
C      1  0.4571950000000  0.4185430000000  0.4855140000000 1.0
C      1  0.4084130000000  0.5286110000000  0.5259300000000 1.0
C      1  0.4858350000000  0.5499270000000  0.4356000000000 1.0
C      1  0.4684070000000  0.4453290000000  0.4798090000000 1.0
C      1  0.4535740000000  0.4898140000000  0.4336800000000 1.0
C      1  0.4709250000000  0.4498380000000  0.4509880000000 1.0
C      1  0.4742710000000  0.5715830000000  0.4761490000000 1.0
C      1  0.4851540000000  0.4807490000000  0.5523450000000 1.0
C      1  0.5906110000000  0.5254110000000  0.4964390000000 1.0
C      1  0.5226250000000  0.4936440000000  0.4005050000000 1.0
C      1  0.5607850000000  0.4989360000000  0.4988260000000 1.0
C      1  0.5648400000000  0.5282310000000  0.5153460000000 1.0
C      1  0.5555750000000  0.5464330000000  0.5671560000000 1.0
C      1  0.4600300000000  0.5378330000000  0.4381220000000 1.0
C      1  0.4715840000000  0.4386650000000  0.5170260000000 1.0
C      1  0.4309190000000  0.5389720000000  0.5053130000000 1.0
C      1  0.5000800000000  0.4563540000000  0.4459650000000 1.0
C      1  0.4961100000000  0.4527200000000  0.4980920000000 1.0
C      1  0.4576090000000  0.5293540000000  0.4865380000000 1.0
C      1  0.4319800000000  0.4597340000000  0.4979700000000 1.0
C      1  0.5403210000000  0.5194450000000  0.5761870000000 1.0
C      1  0.5623870000000  0.4387760000000  0.4757310000000 1.0
C      1  0.5446040000000  0.4415200000000  0.5832430000000 1.0
C      1  0.5323640000000  0.5166690000000  0.4046730000000 1.0
C      1  0.5309480000000  0.4668840000000  0.5290470000000 1.0
C      1  0.5404580000000  0.5034600000000  0.4527830000000 1.0
C      1  0.4751480000000  0.4601480000000  0.5779060000000 1.0
C      1  0.5116540000000  0.5483280000000  0.4793090000000 1.0
C      1  0.4959480000000  0.4818860000000  0.5845750000000 1.0
C      1  0.5050410000000  0.4715510000000  0.4193110000000 1.0
C      1  0.5551410000000  0.4771840000000  0.4443110000000 1.0
C      1  0.5231220000000  0.5344580000000  0.5473240000000 1.0
C      1  0.5627010000000  0.4653850000000  0.5411200000000 1.0
C      1  0.5244500000000  0.4853730000000  0.5571790000000 1.0
C      1  0.4947030000000  0.4970210000000  0.4641430000000 1.0
END
