TITL C-2848500-1637-631 0.00026908797895614 125000 -906.284130394003 0 0 172 (C1) n - 1
REM
REM in /home/bkarasulu/work/CARBON/AIRSS/Generating-Clusters/AIREBO/with-SteepDescent/Only-C1/SD-CG-opt/Try1-1.4A-POS3A/HFTN-CG
REM
REM
REM
REM
REM
REM ./C.cell (11c1c37f851c82e70ff6c80c92926a4b)
REM
REM compiler GCC version 9.2.1 20190827 (Red Hat 9.2.1-1)
REM options -cpp -mtune=generic -march=x86-64 -g -O0 -fpre-include=/usr/include/finclude/math-vector-fortran.h
REM seed 1341449689 1020152118 1211028283 -887422152 -872120760 567508021 126526992 1110924046 247032538 -1946054275 1033663029 -1657213344 675315379 -524263899 1925186748 -276772028 1677431533 -577115815 311796591 -469348012 1617877080 -1024975681 -1738922871 -2141927208 -1163614566 -1603271122 -274115655 2061215152 978231899 -983855245 999011250 1225829256 -621510344
REM
CELL 1.54180   50.00000   50.00000   50.00000   90.00000   90.00000   90.00000
LATT -1
SFAC C  
C      1  0.3925200000000  0.5245280000000  0.4834680000000 1.0
C      1  0.4654640000000  0.4954730000000  0.5255280000000 1.0
C      1  0.5315970000000  0.4084720000000  0.5062840000000 1.0
C      1  0.4758680000000  0.4152620000000  0.4937430000000 1.0
C      1  0.5020680000000  0.4384690000000  0.4125380000000 1.0
C      1  0.4523580000000  0.5290070000000  0.5996920000000 1.0
C      1  0.4607680000000  0.4870120000000  0.4921780000000 1.0
C      1  0.5002450000000  0.5081620000000  0.4608490000000 1.0
C      1  0.4749650000000  0.4101310000000  0.4420850000000 1.0
C      1  0.4492590000000  0.5346480000000  0.4660780000000 1.0
C      1  0.3913980000000  0.5555710000000  0.4921230000000 1.0
C      1  0.5545270000000  0.4661270000000  0.5845600000000 1.0
C      1  0.4887590000000  0.4777680000000  0.5382720000000 1.0
C      1  0.5467250000000  0.5478480000000  0.5281780000000 1.0
C      1  0.5287090000000  0.4483400000000  0.4124720000000 1.0
C      1  0.4361040000000  0.4841570000000  0.4323650000000 1.0
C      1  0.5130690000000  0.5231570000000  0.4263450000000 1.0
C      1  0.5530640000000  0.5379360000000  0.4594960000000 1.0
C      1  0.5438010000000  0.4198450000000  0.5580840000000 1.0
C      1  0.5737030000000  0.5431760000000  0.4329220000000 1.0
C      1  0.4594680000000  0.5884210000000  0.4439000000000 1.0
C      1  0.3976580000000  0.5070910000000  0.5277070000000 1.0
C      1  0.4362570000000  0.5871810000000  0.5020980000000 1.0
C      1  0.5619690000000  0.4973510000000  0.4326600000000 1.0
C      1  0.5326460000000  0.4654600000000  0.4696200000000 1.0
C      1  0.4644950000000  0.5339760000000  0.4382970000000 1.0
C      1  0.4137070000000  0.5182440000000  0.5508190000000 1.0
C      1  0.4923690000000  0.5973270000000  0.5035260000000 1.0
C      1  0.4074950000000  0.4529830000000  0.5351240000000 1.0
C      1  0.5575370000000  0.4588400000000  0.5312680000000 1.0
C      1  0.4004940000000  0.4458720000000  0.4798110000000 1.0
C      1  0.4794170000000  0.5189170000000  0.5837050000000 1.0
C      1  0.4375370000000  0.4576580000000  0.4252440000000 1.0
C      1  0.3908820000000  0.4620260000000  0.5034860000000 1.0
C      1  0.4818490000000  0.4601090000000  0.4212270000000 1.0
C      1  0.5650110000000  0.5699880000000  0.5464020000000 1.0
C      1  0.5864980000000  0.4354350000000  0.5166810000000 1.0
C      1  0.5423410000000  0.4968300000000  0.5931260000000 1.0
C      1  0.4961530000000  0.5170230000000  0.5383880000000 1.0
C      1  0.5460350000000  0.5575300000000  0.4254110000000 1.0
C      1  0.5705660000000  0.5093320000000  0.4911480000000 1.0
C      1  0.5724480000000  0.5589020000000  0.5088680000000 1.0
C      1  0.4195620000000  0.4924700000000  0.4578320000000 1.0
C      1  0.4766570000000  0.3967790000000  0.4667840000000 1.0
C      1  0.5973460000000  0.4515790000000  0.4973130000000 1.0
C      1  0.4826680000000  0.3948710000000  0.5186330000000 1.0
C      1  0.4986120000000  0.4575600000000  0.5171950000000 1.0
C      1  0.5663440000000  0.4783970000000  0.5046130000000 1.0
C      1  0.4169320000000  0.5153110000000  0.5019130000000 1.0
C      1  0.5712490000000  0.5104180000000  0.4592630000000 1.0
C      1  0.5762540000000  0.5174790000000  0.4150080000000 1.0
C      1  0.4169510000000  0.4559890000000  0.5677140000000 1.0
C      1  0.4920270000000  0.5548850000000  0.5619280000000 1.0
C      1  0.4943390000000  0.4774860000000  0.6021940000000 1.0
C      1  0.4638370000000  0.5548100000000  0.5139040000000 1.0
C      1  0.5511730000000  0.4717260000000  0.4130840000000 1.0
C      1  0.4960090000000  0.5446070000000  0.4453630000000 1.0
C      1  0.4392930000000  0.4718550000000  0.5500110000000 1.0
C      1  0.5399300000000  0.5808260000000  0.4415800000000 1.0
C      1  0.5223180000000  0.5190660000000  0.4923510000000 1.0
C      1  0.5142490000000  0.5922520000000  0.4577380000000 1.0
C      1  0.4139710000000  0.4066490000000  0.5068200000000 1.0
C      1  0.5460690000000  0.6020580000000  0.5008270000000 1.0
C      1  0.5921460000000  0.5517820000000  0.5352830000000 1.0
C      1  0.4503760000000  0.4580450000000  0.5020230000000 1.0
C      1  0.5066090000000  0.4920830000000  0.3916690000000 1.0
C      1  0.4881980000000  0.5906230000000  0.5336910000000 1.0
C      1  0.5334150000000  0.5845240000000  0.5655580000000 1.0
C      1  0.5206890000000  0.5507910000000  0.5064940000000 1.0
C      1  0.5239560000000  0.4209930000000  0.5369710000000 1.0
C      1  0.4191380000000  0.4257730000000  0.5246580000000 1.0
C      1  0.6108390000000  0.4713080000000  0.4752890000000 1.0
C      1  0.4571870000000  0.4387980000000  0.4808790000000 1.0
C      1  0.4411110000000  0.5663490000000  0.5533210000000 1.0
C      1  0.4945810000000  0.5061830000000  0.5000130000000 1.0
C      1  0.5179030000000  0.4808690000000  0.5816250000000 1.0
C      1  0.5010950000000  0.5465280000000  0.4057460000000 1.0
C      1  0.4363080000000  0.5023140000000  0.5549350000000 1.0
C      1  0.4733420000000  0.4873000000000  0.4605620000000 1.0
C      1  0.4716940000000  0.3993920000000  0.5458150000000 1.0
C      1  0.4690100000000  0.5444270000000  0.4062490000000 1.0
C      1  0.4224970000000  0.5455610000000  0.4386170000000 1.0
C      1  0.5288680000000  0.5129300000000  0.5382140000000 1.0
C      1  0.5910990000000  0.5492860000000  0.4609310000000 1.0
C      1  0.4283160000000  0.4888330000000  0.4883070000000 1.0
C      1  0.5779260000000  0.4869940000000  0.5757720000000 1.0
C      1  0.5648380000000  0.4664270000000  0.4459770000000 1.0
C      1  0.5333370000000  0.5345330000000  0.4036290000000 1.0
C      1  0.5870740000000  0.4484770000000  0.5447940000000 1.0
C      1  0.5797280000000  0.5368450000000  0.5629460000000 1.0
C      1  0.4464190000000  0.5190310000000  0.5115710000000 1.0
C      1  0.5461400000000  0.5283910000000  0.5824770000000 1.0
C      1  0.5978420000000  0.5280090000000  0.4831930000000 1.0
C      1  0.6019550000000  0.4989950000000  0.4687770000000 1.0
C      1  0.5974090000000  0.5260340000000  0.5152600000000 1.0
C      1  0.5084540000000  0.3859740000000  0.5169900000000 1.0
C      1  0.4613090000000  0.5595050000000  0.4825480000000 1.0
C      1  0.4082820000000  0.4635210000000  0.4521130000000 1.0
C      1  0.5457250000000  0.4070380000000  0.4666390000000 1.0
C      1  0.5455780000000  0.4538640000000  0.4935160000000 1.0
C      1  0.5224170000000  0.5434690000000  0.5517360000000 1.0
C      1  0.4792020000000  0.4546080000000  0.5545270000000 1.0
C      1  0.4927390000000  0.4744290000000  0.4930840000000 1.0
C      1  0.4629420000000  0.5006870000000  0.4310390000000 1.0
C      1  0.5351450000000  0.3837980000000  0.4824800000000 1.0
C      1  0.5621390000000  0.4225120000000  0.5116810000000 1.0
C      1  0.4479610000000  0.4643500000000  0.5806220000000 1.0
C      1  0.5086230000000  0.6019890000000  0.5574730000000 1.0
C      1  0.4815570000000  0.4871620000000  0.4059830000000 1.0
C      1  0.5144640000000  0.5708740000000  0.5332190000000 1.0
C      1  0.5589310000000  0.4441670000000  0.5611570000000 1.0
C      1  0.5512870000000  0.5856880000000  0.4711870000000 1.0
C      1  0.5281240000000  0.4954270000000  0.4354940000000 1.0
C      1  0.4105200000000  0.4143140000000  0.4811430000000 1.0
C      1  0.4894620000000  0.5595100000000  0.4722660000000 1.0
C      1  0.5831880000000  0.4975060000000  0.5271590000000 1.0
C      1  0.5305560000000  0.4953490000000  0.4694110000000 1.0
C      1  0.5778150000000  0.4676800000000  0.4744200000000 1.0
C      1  0.4496840000000  0.5629630000000  0.4284290000000 1.0
C      1  0.5229250000000  0.4204510000000  0.4501280000000 1.0
C      1  0.4141390000000  0.5669190000000  0.5018450000000 1.0
C      1  0.4675130000000  0.5486320000000  0.5471380000000 1.0
C      1  0.4586540000000  0.5150100000000  0.4004930000000 1.0
C      1  0.5019560000000  0.4539620000000  0.4682140000000 1.0
C      1  0.5338640000000  0.4995220000000  0.4022200000000 1.0
C      1  0.5578910000000  0.4259730000000  0.4818260000000 1.0
C      1  0.5660060000000  0.5219550000000  0.5385030000000 1.0
C      1  0.5768530000000  0.5139190000000  0.5844170000000 1.0
C      1  0.4142840000000  0.4791470000000  0.5177660000000 1.0
C      1  0.4181980000000  0.5241500000000  0.4611360000000 1.0
C      1  0.5021440000000  0.4339000000000  0.5797210000000 1.0
C      1  0.5747900000000  0.5888230000000  0.5054600000000 1.0
C      1  0.5539450000000  0.5595500000000  0.5761360000000 1.0
C      1  0.4552790000000  0.4227910000000  0.5565980000000 1.0
C      1  0.4871760000000  0.5944570000000  0.4389600000000 1.0
C      1  0.5438470000000  0.5033200000000  0.5113040000000 1.0
C      1  0.5274200000000  0.4481860000000  0.5196170000000 1.0
C      1  0.4910920000000  0.5362930000000  0.5141830000000 1.0
C      1  0.4195010000000  0.5453110000000  0.5477630000000 1.0
C      1  0.5662430000000  0.5604790000000  0.4786160000000 1.0
C      1  0.3831160000000  0.4951680000000  0.4993660000000 1.0
C      1  0.4568030000000  0.5844240000000  0.5290720000000 1.0
C      1  0.5108110000000  0.4913250000000  0.5548370000000 1.0
C      1  0.4713990000000  0.4541300000000  0.4532850000000 1.0
C      1  0.5408670000000  0.5888120000000  0.5316120000000 1.0
C      1  0.4463610000000  0.4440970000000  0.5316450000000 1.0
C      1  0.4683130000000  0.4381300000000  0.5817040000000 1.0
C      1  0.4657780000000  0.5159500000000  0.5526920000000 1.0
C      1  0.5125110000000  0.5250830000000  0.5786090000000 1.0
C      1  0.4768760000000  0.4343180000000  0.5202500000000 1.0
C      1  0.5254000000000  0.4486940000000  0.5820970000000 1.0
C      1  0.5188760000000  0.5412280000000  0.6078580000000 1.0
C      1  0.4514920000000  0.4308540000000  0.4384880000000 1.0
C      1  0.4289180000000  0.4378400000000  0.4629360000000 1.0
C      1  0.4699280000000  0.4873870000000  0.5924470000000 1.0
C      1  0.5897970000000  0.4796090000000  0.5509210000000 1.0
C      1  0.5153750000000  0.5654610000000  0.5842660000000 1.0
C      1  0.5141380000000  0.4255200000000  0.4825890000000 1.0
C      1  0.5067040000000  0.4708220000000  0.4390680000000 1.0
C      1  0.5050050000000  0.3935460000000  0.4772830000000 1.0
C      1  0.4522930000000  0.5881530000000  0.4735940000000 1.0
C      1  0.5391620000000  0.4478090000000  0.4427790000000 1.0
C      1  0.5242780000000  0.6135460000000  0.4801840000000 1.0
C      1  0.5004640000000  0.5714590000000  0.4265510000000 1.0
C      1  0.4662930000000  0.5202220000000  0.4874150000000 1.0
C      1  0.4860330000000  0.5505300000000  0.5943940000000 1.0
C      1  0.5094710000000  0.5769260000000  0.4875090000000 1.0
C      1  0.4996920000000  0.4172240000000  0.4310110000000 1.0
C      1  0.5228240000000  0.5337520000000  0.4632360000000 1.0
C      1  0.4311410000000  0.5482390000000  0.5192000000000 1.0
C      1  0.4712280000000  0.6087280000000  0.4897190000000 1.0
C      1  0.4941950000000  0.4248000000000  0.5479290000000 1.0
END
