TITL C-2847945-6269-40 0.00092970631517931 125000 -971.826730040354 0 0 177 (C1) n - 1
REM
REM in /home/bkarasulu/work/CARBON/AIRSS/Generating-Clusters/AIREBO/with-SteepDescent/Only-C1/SD-CG-opt/Try1-1.4A-POS3A/HFTN-CG
REM
REM
REM
REM
REM
REM ./C.cell (11c1c37f851c82e70ff6c80c92926a4b)
REM
REM compiler GCC version 9.2.1 20190827 (Red Hat 9.2.1-1)
REM options -cpp -mtune=generic -march=x86-64 -g -O0 -fpre-include=/usr/include/finclude/math-vector-fortran.h
REM seed 469516497 -354055748 531537356 -648364394 437642545 -784709371 -1311568331 2121764119 790211802 214962840 -369707709 1109376007 -489833970 -1415930776 -1501119466 2147196116 58744208 9489508 1279089815 -1692493337 -1103854483 2115246877 -474123952 1636771456 720157678 674053665 1929868451 921317968 -1695984542 1706806227 -1967324377 1265284056 86905032
REM
CELL 1.54180   50.00000   50.00000   50.00000   90.00000   90.00000   90.00000
LATT -1
SFAC C  
C      1  0.4662920000000  0.5385030000000  0.6228550000000 1.0
C      1  0.5207300000000  0.5493310000000  0.5223440000000 1.0
C      1  0.4676990000000  0.5112140000000  0.4705550000000 1.0
C      1  0.5005070000000  0.3841790000000  0.5043540000000 1.0
C      1  0.5176580000000  0.4059920000000  0.5196780000000 1.0
C      1  0.3951960000000  0.5072860000000  0.4461020000000 1.0
C      1  0.5193950000000  0.5091170000000  0.4706320000000 1.0
C      1  0.4433650000000  0.5345680000000  0.4749630000000 1.0
C      1  0.4618990000000  0.4716900000000  0.4615920000000 1.0
C      1  0.5343640000000  0.4712580000000  0.5112390000000 1.0
C      1  0.4653650000000  0.4443040000000  0.5356120000000 1.0
C      1  0.5319420000000  0.5144760000000  0.3893580000000 1.0
C      1  0.5049760000000  0.6031620000000  0.4815750000000 1.0
C      1  0.5971340000000  0.4670190000000  0.5248830000000 1.0
C      1  0.4071110000000  0.4186560000000  0.4562740000000 1.0
C      1  0.5767970000000  0.4248090000000  0.5685880000000 1.0
C      1  0.5888680000000  0.5519820000000  0.4686820000000 1.0
C      1  0.4921380000000  0.4382510000000  0.5496190000000 1.0
C      1  0.5155990000000  0.4561070000000  0.5976190000000 1.0
C      1  0.4852230000000  0.4284670000000  0.4856390000000 1.0
C      1  0.4303310000000  0.4494620000000  0.5646950000000 1.0
C      1  0.4033590000000  0.5356690000000  0.5347120000000 1.0
C      1  0.5257680000000  0.4476790000000  0.5342000000000 1.0
C      1  0.5549570000000  0.5500110000000  0.4078220000000 1.0
C      1  0.4280370000000  0.4844540000000  0.4195110000000 1.0
C      1  0.4627990000000  0.6164410000000  0.5122290000000 1.0
C      1  0.4560180000000  0.4443700000000  0.5857180000000 1.0
C      1  0.5563530000000  0.5000570000000  0.3995900000000 1.0
C      1  0.5835160000000  0.4752120000000  0.4377390000000 1.0
C      1  0.3922950000000  0.4577400000000  0.5009000000000 1.0
C      1  0.5948580000000  0.5220470000000  0.5669550000000 1.0
C      1  0.4933550000000  0.6113130000000  0.5131500000000 1.0
C      1  0.5273190000000  0.5754860000000  0.5430770000000 1.0
C      1  0.5434760000000  0.5070880000000  0.4302620000000 1.0
C      1  0.5122490000000  0.5061560000000  0.6223940000000 1.0
C      1  0.4876190000000  0.4469470000000  0.5804650000000 1.0
C      1  0.5864930000000  0.5741620000000  0.4892440000000 1.0
C      1  0.5895950000000  0.5057180000000  0.5308310000000 1.0
C      1  0.5057700000000  0.6017950000000  0.5434510000000 1.0
C      1  0.4159800000000  0.4562380000000  0.5167680000000 1.0
C      1  0.5672640000000  0.4882220000000  0.5659050000000 1.0
C      1  0.4946250000000  0.4824420000000  0.3513900000000 1.0
C      1  0.5444040000000  0.4610390000000  0.5838760000000 1.0
C      1  0.4234900000000  0.4816220000000  0.5717380000000 1.0
C      1  0.4618600000000  0.5772530000000  0.5710970000000 1.0
C      1  0.5339610000000  0.5924470000000  0.4383990000000 1.0
C      1  0.5125030000000  0.5855300000000  0.5075530000000 1.0
C      1  0.5762690000000  0.4560430000000  0.5722100000000 1.0
C      1  0.3922510000000  0.4681300000000  0.4740690000000 1.0
C      1  0.5966860000000  0.5028770000000  0.4516340000000 1.0
C      1  0.5303650000000  0.5415940000000  0.3969420000000 1.0
C      1  0.4733950000000  0.5144900000000  0.5124260000000 1.0
C      1  0.5422480000000  0.5304060000000  0.4666470000000 1.0
C      1  0.4248120000000  0.5748120000000  0.5135920000000 1.0
C      1  0.5024490000000  0.4001370000000  0.4609930000000 1.0
C      1  0.5229710000000  0.5399880000000  0.5887370000000 1.0
C      1  0.6016390000000  0.4904640000000  0.5035800000000 1.0
C      1  0.5679570000000  0.4136200000000  0.5451500000000 1.0
C      1  0.5394670000000  0.4268360000000  0.4396780000000 1.0
C      1  0.4634610000000  0.5643700000000  0.4060050000000 1.0
C      1  0.5237210000000  0.5297870000000  0.6138510000000 1.0
C      1  0.4811000000000  0.5867980000000  0.4202010000000 1.0
C      1  0.5684640000000  0.5180590000000  0.4635900000000 1.0
C      1  0.5430680000000  0.5812540000000  0.5134980000000 1.0
C      1  0.4698800000000  0.4921280000000  0.4356020000000 1.0
C      1  0.5244100000000  0.5222460000000  0.5016070000000 1.0
C      1  0.4751280000000  0.4738760000000  0.5385320000000 1.0
C      1  0.5763300000000  0.4938970000000  0.4847900000000 1.0
C      1  0.5081270000000  0.5747250000000  0.4631920000000 1.0
C      1  0.5073630000000  0.5747980000000  0.4298800000000 1.0
C      1  0.4122690000000  0.4522670000000  0.4565300000000 1.0
C      1  0.4192630000000  0.5004930000000  0.4943540000000 1.0
C      1  0.4267670000000  0.4582040000000  0.4281810000000 1.0
C      1  0.4898020000000  0.4786280000000  0.4797530000000 1.0
C      1  0.4230820000000  0.5332580000000  0.4125050000000 1.0
C      1  0.5296860000000  0.3790010000000  0.4931580000000 1.0
C      1  0.4181930000000  0.5351620000000  0.5623240000000 1.0
C      1  0.5459460000000  0.5876590000000  0.4620380000000 1.0
C      1  0.4839380000000  0.4154990000000  0.4478370000000 1.0
C      1  0.5258260000000  0.4391880000000  0.4638820000000 1.0
C      1  0.4461600000000  0.5479160000000  0.5633020000000 1.0
C      1  0.3782850000000  0.5158170000000  0.5247950000000 1.0
C      1  0.3967790000000  0.5456410000000  0.4899310000000 1.0
C      1  0.4379880000000  0.4764440000000  0.5035650000000 1.0
C      1  0.4136980000000  0.5123500000000  0.5779060000000 1.0
C      1  0.4859730000000  0.4793180000000  0.5852080000000 1.0
C      1  0.4447280000000  0.4182790000000  0.5301160000000 1.0
C      1  0.4852120000000  0.4467780000000  0.4566310000000 1.0
C      1  0.4960550000000  0.5531260000000  0.5531430000000 1.0
C      1  0.5650270000000  0.4699390000000  0.4666460000000 1.0
C      1  0.5449430000000  0.4331290000000  0.5100430000000 1.0
C      1  0.5866960000000  0.4447900000000  0.4740390000000 1.0
C      1  0.5536590000000  0.5530930000000  0.5010440000000 1.0
C      1  0.5411050000000  0.4969020000000  0.5470060000000 1.0
C      1  0.5617130000000  0.4859400000000  0.5993740000000 1.0
C      1  0.4868750000000  0.5059400000000  0.5400450000000 1.0
C      1  0.4549650000000  0.5741570000000  0.4364610000000 1.0
C      1  0.5372120000000  0.4099440000000  0.5430540000000 1.0
C      1  0.6038990000000  0.4644520000000  0.4592690000000 1.0
C      1  0.4843800000000  0.4553700000000  0.5023520000000 1.0
C      1  0.4418260000000  0.4686940000000  0.5970210000000 1.0
C      1  0.5841980000000  0.5382850000000  0.5390150000000 1.0
C      1  0.3903340000000  0.5152000000000  0.4942620000000 1.0
C      1  0.4161740000000  0.5501780000000  0.4713040000000 1.0
C      1  0.4366310000000  0.4209820000000  0.4591540000000 1.0
C      1  0.5805340000000  0.5355950000000  0.4972830000000 1.0
C      1  0.6146510000000  0.4879940000000  0.4751660000000 1.0
C      1  0.4257730000000  0.4400610000000  0.5386550000000 1.0
C      1  0.5486060000000  0.4157910000000  0.4185650000000 1.0
C      1  0.5165230000000  0.6257730000000  0.5589320000000 1.0
C      1  0.5509170000000  0.5397940000000  0.5322170000000 1.0
C      1  0.4771930000000  0.5644460000000  0.4639480000000 1.0
C      1  0.4655460000000  0.5220730000000  0.5616190000000 1.0
C      1  0.4564300000000  0.4215110000000  0.4386520000000 1.0
C      1  0.5640080000000  0.5326960000000  0.4266730000000 1.0
C      1  0.4877010000000  0.5813090000000  0.5601600000000 1.0
C      1  0.4673290000000  0.5546780000000  0.5386910000000 1.0
C      1  0.4577530000000  0.5420410000000  0.4472730000000 1.0
C      1  0.5174380000000  0.5038500000000  0.5265550000000 1.0
C      1  0.4360540000000  0.4992930000000  0.5474780000000 1.0
C      1  0.5811590000000  0.4233540000000  0.5229650000000 1.0
C      1  0.6000120000000  0.4701390000000  0.5523530000000 1.0
C      1  0.5203650000000  0.4310370000000  0.5633530000000 1.0
C      1  0.4021800000000  0.5589170000000  0.5145870000000 1.0
C      1  0.4667520000000  0.4783620000000  0.3901960000000 1.0
C      1  0.5431210000000  0.4546060000000  0.4850790000000 1.0
C      1  0.4705520000000  0.4657250000000  0.4163560000000 1.0
C      1  0.5056910000000  0.4960490000000  0.5665850000000 1.0
C      1  0.5383080000000  0.4866060000000  0.4537580000000 1.0
C      1  0.5024560000000  0.4760670000000  0.5185370000000 1.0
C      1  0.5167450000000  0.4163190000000  0.4872660000000 1.0
C      1  0.4899170000000  0.4871660000000  0.3774390000000 1.0
C      1  0.4385880000000  0.4956690000000  0.4677860000000 1.0
C      1  0.4410020000000  0.4489910000000  0.4747020000000 1.0
C      1  0.5953970000000  0.5605020000000  0.5162050000000 1.0
C      1  0.4676330000000  0.5724160000000  0.4909630000000 1.0
C      1  0.4462240000000  0.5275470000000  0.5061590000000 1.0
C      1  0.5701970000000  0.5156930000000  0.5851070000000 1.0
C      1  0.3869570000000  0.4954830000000  0.4697070000000 1.0
C      1  0.5061280000000  0.5466410000000  0.4162040000000 1.0
C      1  0.4450200000000  0.4951670000000  0.3982700000000 1.0
C      1  0.4520510000000  0.4454540000000  0.4238010000000 1.0
C      1  0.5476670000000  0.4035680000000  0.4933940000000 1.0
C      1  0.4477450000000  0.5950220000000  0.5049090000000 1.0
C      1  0.4261840000000  0.5044840000000  0.4422410000000 1.0
C      1  0.5070580000000  0.4993710000000  0.3941470000000 1.0
C      1  0.4944840000000  0.5089610000000  0.4517990000000 1.0
C      1  0.5117950000000  0.4679020000000  0.4586500000000 1.0
C      1  0.5556490000000  0.5133360000000  0.5011600000000 1.0
C      1  0.5725920000000  0.5585450000000  0.5637440000000 1.0
C      1  0.4251410000000  0.5140460000000  0.5247560000000 1.0
C      1  0.3986200000000  0.5268180000000  0.4238120000000 1.0
C      1  0.5396610000000  0.5587640000000  0.5670660000000 1.0
C      1  0.5243740000000  0.3987310000000  0.5726480000000 1.0
C      1  0.4504490000000  0.5563400000000  0.5133860000000 1.0
C      1  0.5263960000000  0.4703660000000  0.5595290000000 1.0
C      1  0.4797560000000  0.5338870000000  0.6016440000000 1.0
C      1  0.4900180000000  0.5615070000000  0.5143020000000 1.0
C      1  0.5904490000000  0.5338850000000  0.4435610000000 1.0
C      1  0.4748640000000  0.5376050000000  0.4088580000000 1.0
C      1  0.4531670000000  0.3992120000000  0.5119200000000 1.0
C      1  0.5047700000000  0.4815860000000  0.6122360000000 1.0
C      1  0.4925620000000  0.5325460000000  0.4991000000000 1.0
C      1  0.4970170000000  0.5283200000000  0.5728820000000 1.0
C      1  0.5117790000000  0.5151960000000  0.4238830000000 1.0
C      1  0.5622610000000  0.4873900000000  0.5221320000000 1.0
C      1  0.5363360000000  0.5594130000000  0.4746060000000 1.0
C      1  0.4528000000000  0.4473080000000  0.5041610000000 1.0
C      1  0.4771510000000  0.3994990000000  0.4972360000000 1.0
C      1  0.4651260000000  0.4899400000000  0.4969550000000 1.0
C      1  0.4623380000000  0.4888110000000  0.5663320000000 1.0
C      1  0.5703260000000  0.4548090000000  0.5165200000000 1.0
C      1  0.5866480000000  0.4261100000000  0.4939530000000 1.0
C      1  0.5488930000000  0.5264320000000  0.5620030000000 1.0
C      1  0.5619060000000  0.5897120000000  0.4879550000000 1.0
C      1  0.6083920000000  0.4972730000000  0.5578860000000 1.0
C      1  0.4513540000000  0.5181630000000  0.4238980000000 1.0
END
