TITL C-2847958-8115-31 -0.00112320712686951 125000 -822.134487918602 0 0 155 (C1) n - 1
REM
REM in /home/bkarasulu/work/CARBON/AIRSS/Generating-Clusters/AIREBO/with-SteepDescent/Only-C1/SD-CG-opt/Try1-1.4A-POS3A/HFTN-CG
REM
REM
REM
REM
REM
REM ./C.cell (11c1c37f851c82e70ff6c80c92926a4b)
REM
REM compiler GCC version 9.2.1 20190827 (Red Hat 9.2.1-1)
REM options -cpp -mtune=generic -march=x86-64 -g -O0 -fpre-include=/usr/include/finclude/math-vector-fortran.h
REM seed -1234701418 -1786034998 1929925522 1505189583 -1331946731 866678040 -1014186319 1485271882 1600864382 -1554042322 921156846 -1509760759 242021985 -1181224836 2102615711 -1558315061 -502779221 1796783987 1927934357 -1715857988 -191854581 -385869983 -1920106082 -779167193 -1132466336 -1959558512 1378865903 216318465 609337970 -99900750 -567761958 -1755435450 1427020246
REM
CELL 1.54180   50.00000   50.00000   50.00000   90.00000   90.00000   90.00000
LATT -1
SFAC C  
C      1  0.4669310000000  0.4582280000000  0.4541190000000 1.0
C      1  0.4647270000000  0.5486930000000  0.5243000000000 1.0
C      1  0.4218700000000  0.5497120000000  0.5574080000000 1.0
C      1  0.5376980000000  0.4117750000000  0.5111710000000 1.0
C      1  0.4398000000000  0.4756980000000  0.5079050000000 1.0
C      1  0.4524970000000  0.5849550000000  0.5347580000000 1.0
C      1  0.4907220000000  0.4347870000000  0.5677160000000 1.0
C      1  0.3977030000000  0.4920130000000  0.5305180000000 1.0
C      1  0.4589020000000  0.5096630000000  0.5419850000000 1.0
C      1  0.5141970000000  0.5781550000000  0.4973450000000 1.0
C      1  0.3990280000000  0.5491570000000  0.4830680000000 1.0
C      1  0.4917250000000  0.5165260000000  0.6004340000000 1.0
C      1  0.5493690000000  0.4307330000000  0.5556690000000 1.0
C      1  0.5124180000000  0.4090830000000  0.5320930000000 1.0
C      1  0.6621810000000  0.4952640000000  0.4736310000000 1.0
C      1  0.5206140000000  0.5792690000000  0.4574800000000 1.0
C      1  0.5200320000000  0.4711790000000  0.3969250000000 1.0
C      1  0.5052570000000  0.4135260000000  0.4444250000000 1.0
C      1  0.4756010000000  0.5567520000000  0.4782820000000 1.0
C      1  0.4784240000000  0.4845810000000  0.5368190000000 1.0
C      1  0.5010200000000  0.5170600000000  0.5678940000000 1.0
C      1  0.5530780000000  0.4619320000000  0.4725800000000 1.0
C      1  0.5316450000000  0.4867310000000  0.4485560000000 1.0
C      1  0.4632700000000  0.5304410000000  0.4070800000000 1.0
C      1  0.4655760000000  0.4862990000000  0.3825690000000 1.0
C      1  0.5149260000000  0.4588530000000  0.4496620000000 1.0
C      1  0.5062110000000  0.4317140000000  0.4192410000000 1.0
C      1  0.5490940000000  0.5704760000000  0.5393420000000 1.0
C      1  0.5355140000000  0.5333420000000  0.4359630000000 1.0
C      1  0.5789850000000  0.5440480000000  0.5709670000000 1.0
C      1  0.4901420000000  0.4819150000000  0.4452830000000 1.0
C      1  0.5764080000000  0.5403350000000  0.4601060000000 1.0
C      1  0.5129150000000  0.5361670000000  0.5154810000000 1.0
C      1  0.4425580000000  0.5491620000000  0.4756760000000 1.0
C      1  0.6088130000000  0.5281840000000  0.5143160000000 1.0
C      1  0.5295770000000  0.5390170000000  0.5889640000000 1.0
C      1  0.5352800000000  0.5776000000000  0.4091650000000 1.0
C      1  0.4770990000000  0.5021500000000  0.4693010000000 1.0
C      1  0.4498970000000  0.5060320000000  0.4007560000000 1.0
C      1  0.6427570000000  0.4979490000000  0.4910200000000 1.0
C      1  0.4796010000000  0.6041440000000  0.5332410000000 1.0
C      1  0.4250370000000  0.5540550000000  0.5044160000000 1.0
C      1  0.4198780000000  0.4376430000000  0.5276220000000 1.0
C      1  0.4420450000000  0.5192020000000  0.4892690000000 1.0
C      1  0.5360040000000  0.5040990000000  0.4280080000000 1.0
C      1  0.5117620000000  0.5189420000000  0.3918990000000 1.0
C      1  0.4381780000000  0.5275910000000  0.5218430000000 1.0
C      1  0.5618010000000  0.4878560000000  0.5115190000000 1.0
C      1  0.4897960000000  0.4873140000000  0.6016500000000 1.0
C      1  0.4440210000000  0.4852820000000  0.4271060000000 1.0
C      1  0.5572330000000  0.4229030000000  0.4578150000000 1.0
C      1  0.5592310000000  0.4546200000000  0.5360680000000 1.0
C      1  0.4188370000000  0.4467970000000  0.4754490000000 1.0
C      1  0.4980660000000  0.5142870000000  0.5378270000000 1.0
C      1  0.4232620000000  0.4500900000000  0.5026700000000 1.0
C      1  0.5039630000000  0.4395580000000  0.5084760000000 1.0
C      1  0.5690000000000  0.5572080000000  0.5075800000000 1.0
C      1  0.5037610000000  0.5975520000000  0.5330440000000 1.0
C      1  0.5793950000000  0.4571850000000  0.4305690000000 1.0
C      1  0.4757350000000  0.5429790000000  0.5996650000000 1.0
C      1  0.3994250000000  0.4205950000000  0.5341170000000 1.0
C      1  0.5760960000000  0.4930330000000  0.5680170000000 1.0
C      1  0.6068130000000  0.4798480000000  0.5206190000000 1.0
C      1  0.3772320000000  0.4903420000000  0.5119690000000 1.0
C      1  0.5825400000000  0.5109840000000  0.5012580000000 1.0
C      1  0.5128660000000  0.4318690000000  0.4703370000000 1.0
C      1  0.5277360000000  0.4489230000000  0.4130200000000 1.0
C      1  0.5170740000000  0.5665760000000  0.5285830000000 1.0
C      1  0.5417030000000  0.5282630000000  0.5432960000000 1.0
C      1  0.4044690000000  0.5230420000000  0.4362550000000 1.0
C      1  0.4915480000000  0.5262030000000  0.4107810000000 1.0
C      1  0.4486370000000  0.5519980000000  0.4192340000000 1.0
C      1  0.4744330000000  0.5310330000000  0.4560450000000 1.0
C      1  0.5179520000000  0.4760490000000  0.5618820000000 1.0
C      1  0.4590500000000  0.4597590000000  0.5268470000000 1.0
C      1  0.5471560000000  0.5794000000000  0.5056930000000 1.0
C      1  0.5094820000000  0.4723030000000  0.5303670000000 1.0
C      1  0.4566310000000  0.5787650000000  0.4190420000000 1.0
C      1  0.5986350000000  0.5539470000000  0.5222060000000 1.0
C      1  0.5168510000000  0.4698820000000  0.4861830000000 1.0
C      1  0.5317560000000  0.5529630000000  0.5630110000000 1.0
C      1  0.4564940000000  0.4784820000000  0.4793660000000 1.0
C      1  0.4704440000000  0.5912910000000  0.4390310000000 1.0
C      1  0.4991250000000  0.5148670000000  0.4391530000000 1.0
C      1  0.4739350000000  0.4785330000000  0.4162110000000 1.0
C      1  0.4094380000000  0.5198190000000  0.4855560000000 1.0
C      1  0.5819250000000  0.4540150000000  0.4598740000000 1.0
C      1  0.4768060000000  0.4382380000000  0.4318410000000 1.0
C      1  0.5338240000000  0.5213520000000  0.4930820000000 1.0
C      1  0.4278600000000  0.5660860000000  0.5360980000000 1.0
C      1  0.4345350000000  0.5283740000000  0.5701620000000 1.0
C      1  0.4421310000000  0.4445370000000  0.5502950000000 1.0
C      1  0.5194250000000  0.4167940000000  0.5644670000000 1.0
C      1  0.3993560000000  0.5011610000000  0.4593170000000 1.0
C      1  0.4470790000000  0.5136320000000  0.4457000000000 1.0
C      1  0.4305440000000  0.5433110000000  0.4443900000000 1.0
C      1  0.4375520000000  0.3832270000000  0.4961570000000 1.0
C      1  0.4747640000000  0.4069990000000  0.4400710000000 1.0
C      1  0.4657910000000  0.5763650000000  0.5045680000000 1.0
C      1  0.5094570000000  0.5546510000000  0.4759160000000 1.0
C      1  0.4685050000000  0.5268500000000  0.5697130000000 1.0
C      1  0.5783820000000  0.5619630000000  0.5460670000000 1.0
C      1  0.4731100000000  0.4112000000000  0.5377460000000 1.0
C      1  0.4629230000000  0.4521860000000  0.5766970000000 1.0
C      1  0.4845610000000  0.5368390000000  0.5043480000000 1.0
C      1  0.5640190000000  0.5459780000000  0.4393000000000 1.0
C      1  0.4600370000000  0.4205000000000  0.5645020000000 1.0
C      1  0.4117970000000  0.5845340000000  0.5011530000000 1.0
C      1  0.4892740000000  0.5928860000000  0.4961140000000 1.0
C      1  0.5806400000000  0.4305690000000  0.5107060000000 1.0
C      1  0.4292960000000  0.4923560000000  0.4631150000000 1.0
C      1  0.5683270000000  0.5285650000000  0.5265580000000 1.0
C      1  0.3833640000000  0.4995550000000  0.4878730000000 1.0
C      1  0.4343200000000  0.4623860000000  0.4504330000000 1.0
C      1  0.4865740000000  0.4724390000000  0.4940320000000 1.0
C      1  0.5838300000000  0.4932050000000  0.5370000000000 1.0
C      1  0.5195500000000  0.4753520000000  0.5945010000000 1.0
C      1  0.5276010000000  0.4479570000000  0.5753360000000 1.0
C      1  0.5447460000000  0.5915580000000  0.4759960000000 1.0
C      1  0.4651480000000  0.4785700000000  0.5902090000000 1.0
C      1  0.5029090000000  0.4981260000000  0.5092230000000 1.0
C      1  0.5442440000000  0.4825450000000  0.5469500000000 1.0
C      1  0.5180950000000  0.5286590000000  0.4638160000000 1.0
C      1  0.5341690000000  0.5030540000000  0.5217600000000 1.0
C      1  0.4229500000000  0.4971900000000  0.5220460000000 1.0
C      1  0.5283120000000  0.5068740000000  0.5850670000000 1.0
C      1  0.5026590000000  0.5674760000000  0.5593710000000 1.0
C      1  0.4487470000000  0.5006510000000  0.5838000000000 1.0
C      1  0.5905100000000  0.5241510000000  0.5494040000000 1.0
C      1  0.4670640000000  0.5843140000000  0.5654750000000 1.0
C      1  0.4867010000000  0.5816980000000  0.4578640000000 1.0
C      1  0.4717930000000  0.5089050000000  0.5006950000000 1.0
C      1  0.5371400000000  0.4644140000000  0.5121470000000 1.0
C      1  0.5774950000000  0.4298810000000  0.4819000000000 1.0
C      1  0.5645290000000  0.5338870000000  0.4873320000000 1.0
C      1  0.5393700000000  0.4378610000000  0.4909880000000 1.0
C      1  0.5608370000000  0.4687040000000  0.5732190000000 1.0
C      1  0.5289070000000  0.4980190000000  0.4017940000000 1.0
C      1  0.5119720000000  0.4048970000000  0.4910330000000 1.0
C      1  0.4038640000000  0.5599340000000  0.4573650000000 1.0
C      1  0.4652920000000  0.4303510000000  0.5108960000000 1.0
C      1  0.4926910000000  0.4712650000000  0.3905060000000 1.0
C      1  0.4563910000000  0.3981010000000  0.5048030000000 1.0
C      1  0.4731400000000  0.5537300000000  0.5519180000000 1.0
C      1  0.4839130000000  0.5675850000000  0.5877570000000 1.0
C      1  0.5577390000000  0.5174440000000  0.5712700000000 1.0
C      1  0.5623510000000  0.4158420000000  0.5278320000000 1.0
C      1  0.5299360000000  0.5652960000000  0.4315450000000 1.0
C      1  0.6206220000000  0.5005580000000  0.5071990000000 1.0
C      1  0.4840090000000  0.4410000000000  0.4858380000000 1.0
C      1  0.5468190000000  0.4506400000000  0.4411140000000 1.0
C      1  0.5894900000000  0.4562350000000  0.5229060000000 1.0
C      1  0.5010460000000  0.4405080000000  0.5384030000000 1.0
C      1  0.5400930000000  0.4917820000000  0.4783790000000 1.0
C      1  0.4885640000000  0.3970020000000  0.5112660000000 1.0
END
