TITL C-2848497-6229-236 0.00289263619292542 125000 -971.292881407408 0 0 176 (C1) n - 1
REM
REM in /home/bkarasulu/work/CARBON/AIRSS/Generating-Clusters/AIREBO/with-SteepDescent/Only-C1/SD-CG-opt/Try1-1.4A-POS3A/HFTN-CG
REM
REM
REM
REM
REM
REM ./C.cell (11c1c37f851c82e70ff6c80c92926a4b)
REM
REM compiler GCC version 9.2.1 20190827 (Red Hat 9.2.1-1)
REM options -cpp -mtune=generic -march=x86-64 -g -O0 -fpre-include=/usr/include/finclude/math-vector-fortran.h
REM seed -59954395 -269851838 -2098812332 -817077114 201880706 -1150822981 1964676287 -2022682429 -1079347691 -199709825 -1727156022 -2070448550 -2140902732 2126376005 1073359327 128774108 -1877404801 -1630090719 1743088695 319836999 -525108069 -2009181225 -1621145273 969131746 215139340 -781475005 2070394047 -355308425 641627969 -457549417 -1506811280 724300660 -152576608
REM
CELL 1.54180   50.00000   50.00000   50.00000   90.00000   90.00000   90.00000
LATT -1
SFAC C  
C      1  0.4955870000000  0.5523480000000  0.4527890000000 1.0
C      1  0.5341880000000  0.5385080000000  0.5364130000000 1.0
C      1  0.4026950000000  0.5321770000000  0.4950900000000 1.0
C      1  0.6208620000000  0.4473910000000  0.4667050000000 1.0
C      1  0.4945870000000  0.5505650000000  0.5679130000000 1.0
C      1  0.5464520000000  0.4196230000000  0.4837160000000 1.0
C      1  0.4776570000000  0.4549580000000  0.5047500000000 1.0
C      1  0.4535070000000  0.5748690000000  0.5386890000000 1.0
C      1  0.4922390000000  0.5030000000000  0.6093850000000 1.0
C      1  0.4718430000000  0.5931990000000  0.4494820000000 1.0
C      1  0.5510580000000  0.4676580000000  0.4531410000000 1.0
C      1  0.5718640000000  0.5396400000000  0.5927340000000 1.0
C      1  0.5845150000000  0.4772330000000  0.5611630000000 1.0
C      1  0.5008720000000  0.4242910000000  0.5979380000000 1.0
C      1  0.4623660000000  0.4322500000000  0.4933610000000 1.0
C      1  0.5823350000000  0.4395750000000  0.5319110000000 1.0
C      1  0.4735230000000  0.5439560000000  0.4983210000000 1.0
C      1  0.5215350000000  0.5203890000000  0.6081680000000 1.0
C      1  0.4582840000000  0.4863380000000  0.3935560000000 1.0
C      1  0.5592210000000  0.4686420000000  0.4855750000000 1.0
C      1  0.4360930000000  0.5665280000000  0.4648530000000 1.0
C      1  0.4075500000000  0.5083180000000  0.5183010000000 1.0
C      1  0.4818250000000  0.4875100000000  0.4819590000000 1.0
C      1  0.4628010000000  0.4207870000000  0.4642140000000 1.0
C      1  0.4369830000000  0.5147450000000  0.5058500000000 1.0
C      1  0.3852830000000  0.5301590000000  0.4684870000000 1.0
C      1  0.5646160000000  0.5774490000000  0.4939170000000 1.0
C      1  0.4838230000000  0.5993520000000  0.5241660000000 1.0
C      1  0.5172670000000  0.3929370000000  0.5549010000000 1.0
C      1  0.5633740000000  0.4966500000000  0.5142840000000 1.0
C      1  0.4872320000000  0.5073310000000  0.5700710000000 1.0
C      1  0.4922970000000  0.4731830000000  0.5970800000000 1.0
C      1  0.4644780000000  0.5375280000000  0.3948010000000 1.0
C      1  0.4449030000000  0.4851970000000  0.6006530000000 1.0
C      1  0.4863510000000  0.5359980000000  0.5979000000000 1.0
C      1  0.4981590000000  0.4415190000000  0.5498560000000 1.0
C      1  0.5085240000000  0.4747250000000  0.3917550000000 1.0
C      1  0.5583360000000  0.5378890000000  0.5123490000000 1.0
C      1  0.5932690000000  0.5696770000000  0.4825120000000 1.0
C      1  0.4878970000000  0.5682750000000  0.5123900000000 1.0
C      1  0.5066940000000  0.6053240000000  0.5384970000000 1.0
C      1  0.4928680000000  0.4839540000000  0.5139240000000 1.0
C      1  0.4734600000000  0.5477710000000  0.4316090000000 1.0
C      1  0.5224280000000  0.5321150000000  0.4314120000000 1.0
C      1  0.4024940000000  0.5563420000000  0.5157900000000 1.0
C      1  0.4815940000000  0.4871510000000  0.4326530000000 1.0
C      1  0.3800620000000  0.5473080000000  0.4229790000000 1.0
C      1  0.4294640000000  0.4545620000000  0.4901740000000 1.0
C      1  0.4247550000000  0.5432640000000  0.4453360000000 1.0
C      1  0.5314660000000  0.5456920000000  0.4942410000000 1.0
C      1  0.5494950000000  0.4951910000000  0.4030870000000 1.0
C      1  0.4541010000000  0.4832450000000  0.4467200000000 1.0
C      1  0.4302340000000  0.5285200000000  0.4754850000000 1.0
C      1  0.4907670000000  0.5197680000000  0.4301840000000 1.0
C      1  0.5417070000000  0.4457440000000  0.5626890000000 1.0
C      1  0.5504970000000  0.5848050000000  0.5215750000000 1.0
C      1  0.5943250000000  0.4972420000000  0.5064180000000 1.0
C      1  0.4061620000000  0.5229140000000  0.5454270000000 1.0
C      1  0.4890370000000  0.5599050000000  0.4039280000000 1.0
C      1  0.5934190000000  0.5306750000000  0.4378850000000 1.0
C      1  0.4687520000000  0.4243150000000  0.5523740000000 1.0
C      1  0.5228090000000  0.5017710000000  0.4183070000000 1.0
C      1  0.4158580000000  0.4354680000000  0.5400210000000 1.0
C      1  0.5456120000000  0.5723790000000  0.4681790000000 1.0
C      1  0.6070850000000  0.5032190000000  0.4795070000000 1.0
C      1  0.5225300000000  0.5624230000000  0.5575890000000 1.0
C      1  0.4131000000000  0.4069830000000  0.5531530000000 1.0
C      1  0.5102770000000  0.4311160000000  0.5087440000000 1.0
C      1  0.5959060000000  0.4319460000000  0.4649610000000 1.0
C      1  0.5689570000000  0.5194590000000  0.5388770000000 1.0
C      1  0.5708730000000  0.4129220000000  0.4621450000000 1.0
C      1  0.4916990000000  0.5221800000000  0.5264100000000 1.0
C      1  0.4596670000000  0.4398450000000  0.5814330000000 1.0
C      1  0.4985600000000  0.5881420000000  0.4888890000000 1.0
C      1  0.4502080000000  0.4669210000000  0.5216920000000 1.0
C      1  0.4768150000000  0.5500890000000  0.5389010000000 1.0
C      1  0.5057580000000  0.5890810000000  0.5623120000000 1.0
C      1  0.4745080000000  0.4872110000000  0.5490240000000 1.0
C      1  0.4681820000000  0.4440660000000  0.4455510000000 1.0
C      1  0.4655320000000  0.5032640000000  0.5204210000000 1.0
C      1  0.5134080000000  0.4592620000000  0.5250920000000 1.0
C      1  0.4858660000000  0.4031430000000  0.4736520000000 1.0
C      1  0.5266020000000  0.6159470000000  0.4941540000000 1.0
C      1  0.5068970000000  0.4089450000000  0.4565050000000 1.0
C      1  0.5742790000000  0.5700970000000  0.4560320000000 1.0
C      1  0.5010770000000  0.5055630000000  0.3922980000000 1.0
C      1  0.5829000000000  0.4073460000000  0.4934560000000 1.0
C      1  0.5110350000000  0.4211580000000  0.5697730000000 1.0
C      1  0.5333970000000  0.5429680000000  0.4614000000000 1.0
C      1  0.4483210000000  0.5046500000000  0.4688480000000 1.0
C      1  0.4743860000000  0.5879350000000  0.4164190000000 1.0
C      1  0.4349840000000  0.4252510000000  0.5065440000000 1.0
C      1  0.5219710000000  0.3960760000000  0.5232620000000 1.0
C      1  0.4185090000000  0.4445170000000  0.4557910000000 1.0
C      1  0.5323260000000  0.5129290000000  0.4951470000000 1.0
C      1  0.5295910000000  0.6087380000000  0.5211550000000 1.0
C      1  0.5560670000000  0.4566410000000  0.6170570000000 1.0
C      1  0.5059980000000  0.4559880000000  0.4859390000000 1.0
C      1  0.5336330000000  0.4450060000000  0.4195820000000 1.0
C      1  0.4632080000000  0.5114290000000  0.5937940000000 1.0
C      1  0.4799920000000  0.5866970000000  0.5763340000000 1.0
C      1  0.5522100000000  0.5662780000000  0.5450670000000 1.0
C      1  0.4823050000000  0.4451110000000  0.5987420000000 1.0
C      1  0.3831840000000  0.4710410000000  0.4939250000000 1.0
C      1  0.5446040000000  0.4696750000000  0.5162720000000 1.0
C      1  0.5169700000000  0.5057190000000  0.5781350000000 1.0
C      1  0.5751680000000  0.5533400000000  0.4337400000000 1.0
C      1  0.4629560000000  0.4389280000000  0.4123940000000 1.0
C      1  0.3931370000000  0.4788150000000  0.5524480000000 1.0
C      1  0.5436990000000  0.5262500000000  0.5830600000000 1.0
C      1  0.5062430000000  0.5231800000000  0.4666450000000 1.0
C      1  0.4314460000000  0.4207930000000  0.4724120000000 1.0
C      1  0.5528910000000  0.4275090000000  0.4414720000000 1.0
C      1  0.4740060000000  0.5173520000000  0.4574840000000 1.0
C      1  0.4469960000000  0.5390460000000  0.5812640000000 1.0
C      1  0.4442100000000  0.5393130000000  0.4220690000000 1.0
C      1  0.6179100000000  0.4720690000000  0.4870060000000 1.0
C      1  0.5184730000000  0.5052880000000  0.5206560000000 1.0
C      1  0.3938840000000  0.5469830000000  0.5404190000000 1.0
C      1  0.5653360000000  0.5184220000000  0.4024420000000 1.0
C      1  0.5426520000000  0.4123670000000  0.5667740000000 1.0
C      1  0.4498140000000  0.4793940000000  0.4900590000000 1.0
C      1  0.5543970000000  0.5461020000000  0.4122790000000 1.0
C      1  0.4420160000000  0.4869310000000  0.5479510000000 1.0
C      1  0.5955150000000  0.5227100000000  0.4646440000000 1.0
C      1  0.4489870000000  0.5659490000000  0.4898120000000 1.0
C      1  0.5293920000000  0.4765510000000  0.5702020000000 1.0
C      1  0.5633750000000  0.5099870000000  0.4845510000000 1.0
C      1  0.3946760000000  0.5392080000000  0.4445760000000 1.0
C      1  0.5383450000000  0.5057100000000  0.5443510000000 1.0
C      1  0.4909200000000  0.5182570000000  0.4936800000000 1.0
C      1  0.5246630000000  0.4147140000000  0.4334470000000 1.0
C      1  0.5522840000000  0.4430570000000  0.5332440000000 1.0
C      1  0.4968700000000  0.4691250000000  0.5636260000000 1.0
C      1  0.4421460000000  0.4160390000000  0.5374910000000 1.0
C      1  0.5255030000000  0.5737140000000  0.5026110000000 1.0
C      1  0.5157440000000  0.5739410000000  0.4419350000000 1.0
C      1  0.4726890000000  0.5115750000000  0.3850710000000 1.0
C      1  0.5968600000000  0.4620980000000  0.5406140000000 1.0
C      1  0.5652490000000  0.5411250000000  0.5613340000000 1.0
C      1  0.5772320000000  0.5407510000000  0.4843130000000 1.0
C      1  0.4190210000000  0.4597510000000  0.5287940000000 1.0
C      1  0.5234350000000  0.5944090000000  0.4680100000000 1.0
C      1  0.6098980000000  0.4758120000000  0.5200030000000 1.0
C      1  0.5245810000000  0.4983090000000  0.4524300000000 1.0
C      1  0.4499480000000  0.5399690000000  0.5200220000000 1.0
C      1  0.4404870000000  0.4592320000000  0.5915930000000 1.0
C      1  0.4444580000000  0.4614010000000  0.4031530000000 1.0
C      1  0.3960390000000  0.4806320000000  0.5200340000000 1.0
C      1  0.4912780000000  0.4663340000000  0.4570740000000 1.0
C      1  0.5229690000000  0.4314100000000  0.4696730000000 1.0
C      1  0.5151490000000  0.5510830000000  0.5950030000000 1.0
C      1  0.5447820000000  0.4576220000000  0.5944130000000 1.0
C      1  0.4003780000000  0.4598280000000  0.4768510000000 1.0
C      1  0.4914370000000  0.4062630000000  0.5021390000000 1.0
C      1  0.4825730000000  0.4731170000000  0.4062000000000 1.0
C      1  0.5280060000000  0.4817960000000  0.4821680000000 1.0
C      1  0.4913960000000  0.4046370000000  0.5361880000000 1.0
C      1  0.4302370000000  0.5662470000000  0.5172960000000 1.0
C      1  0.5402210000000  0.4202070000000  0.5141170000000 1.0
C      1  0.5603490000000  0.4881390000000  0.5622190000000 1.0
C      1  0.5228330000000  0.4552680000000  0.4489740000000 1.0
C      1  0.5921230000000  0.5158630000000  0.4133750000000 1.0
C      1  0.4590490000000  0.5687780000000  0.5694370000000 1.0
C      1  0.4705820000000  0.5967180000000  0.4763700000000 1.0
C      1  0.4383950000000  0.4579050000000  0.4367020000000 1.0
C      1  0.4988050000000  0.5992940000000  0.4336710000000 1.0
C      1  0.5344660000000  0.4679650000000  0.4005120000000 1.0
C      1  0.5879230000000  0.4560730000000  0.4875050000000 1.0
C      1  0.4148720000000  0.4819710000000  0.5652930000000 1.0
C      1  0.4574210000000  0.5936400000000  0.5075720000000 1.0
C      1  0.5890480000000  0.4306170000000  0.5064140000000 1.0
C      1  0.5224350000000  0.5579100000000  0.4126320000000 1.0
C      1  0.4319820000000  0.5174620000000  0.5591180000000 1.0
C      1  0.5560130000000  0.4979570000000  0.4586300000000 1.0
C      1  0.4640350000000  0.5250140000000  0.5563630000000 1.0
END
