TITL C-2848494-1720-649 -0.000161054822961003 125000 -177.630615371402 0 0 33 (C1) n - 1
REM
REM in /home/bkarasulu/work/CARBON/AIRSS/Generating-Clusters/AIREBO/with-SteepDescent/Only-C1/SD-CG-opt/Try1-1.4A-POS3A/HFTN-CG
REM
REM
REM
REM
REM
REM ./C.cell (11c1c37f851c82e70ff6c80c92926a4b)
REM
REM compiler GCC version 9.2.1 20190827 (Red Hat 9.2.1-1)
REM options -cpp -mtune=generic -march=x86-64 -g -O0 -fpre-include=/usr/include/finclude/math-vector-fortran.h
REM seed -1064261170 -946948894 -1105739044 184103039 -1565119085 -1214691179 1473555929 -1786816908 431314389 845399409 -948756716 -1488496756 883630553 493254138 -325715742 1758738112 -779840689 -1366690370 -2008417713 1795315082 -54133854 -1433017787 45545985 -351640745 -354957757 578698096 -371298782 678515905 -357266759 -1690105249 -122533483 1125197118 858202102
REM
CELL 1.54180   50.00000   50.00000   50.00000   90.00000   90.00000   90.00000
LATT -1
SFAC C  
C      1  0.4451890000000  0.5685690000000  0.4794490000000 1.0
C      1  0.4828290000000  0.5106500000000  0.5056880000000 1.0
C      1  0.5999470000000  0.5112130000000  0.5188320000000 1.0
C      1  0.4820020000000  0.5818250000000  0.5315340000000 1.0
C      1  0.4141090000000  0.5314670000000  0.5175650000000 1.0
C      1  0.4341770000000  0.3628250000000  0.5185500000000 1.0
C      1  0.4324600000000  0.4890650000000  0.5011430000000 1.0
C      1  0.5321080000000  0.5336460000000  0.5073550000000 1.0
C      1  0.4795530000000  0.6027870000000  0.4662320000000 1.0
C      1  0.5120210000000  0.5507450000000  0.5082070000000 1.0
C      1  0.4607270000000  0.5281450000000  0.5027240000000 1.0
C      1  0.5759490000000  0.5016530000000  0.5087690000000 1.0
C      1  0.4965490000000  0.5928050000000  0.4854350000000 1.0
C      1  0.5541610000000  0.4271700000000  0.4776440000000 1.0
C      1  0.6218260000000  0.5194650000000  0.5306750000000 1.0
C      1  0.5716670000000  0.4497170000000  0.4927820000000 1.0
C      1  0.4826930000000  0.4835910000000  0.5011460000000 1.0
C      1  0.4851240000000  0.4531460000000  0.4943820000000 1.0
C      1  0.5847760000000  0.4210310000000  0.4859630000000 1.0
C      1  0.4350950000000  0.5166190000000  0.5073910000000 1.0
C      1  0.3950340000000  0.5448540000000  0.5295650000000 1.0
C      1  0.4415820000000  0.3873490000000  0.5130030000000 1.0
C      1  0.4638850000000  0.5545200000000  0.4950950000000 1.0
C      1  0.4596500000000  0.4364020000000  0.5025960000000 1.0
C      1  0.4538010000000  0.4688290000000  0.5047090000000 1.0
C      1  0.4504980000000  0.5913780000000  0.4650390000000 1.0
C      1  0.4880740000000  0.5703100000000  0.5062310000000 1.0
C      1  0.5539680000000  0.5184430000000  0.5068420000000 1.0
C      1  0.5741630000000  0.4756130000000  0.4993940000000 1.0
C      1  0.4580990000000  0.6165520000000  0.4456840000000 1.0
C      1  0.4510610000000  0.4119290000000  0.5090460000000 1.0
C      1  0.6234170000000  0.3851820000000  0.4914510000000 1.0
C      1  0.6038070000000  0.4025040000000  0.4898780000000 1.0
END
