TITL C-2847949-8115-659 9.12715136006974e-05 125000 -678.897494779752 0 0 131 (C1) n - 1
REM
REM in /home/bkarasulu/work/CARBON/AIRSS/Generating-Clusters/AIREBO/with-SteepDescent/Only-C1/SD-CG-opt/Try1-1.4A-POS3A/HFTN-CG
REM
REM
REM
REM
REM
REM ./C.cell (11c1c37f851c82e70ff6c80c92926a4b)
REM
REM compiler GCC version 9.2.1 20190827 (Red Hat 9.2.1-1)
REM options -cpp -mtune=generic -march=x86-64 -g -O0 -fpre-include=/usr/include/finclude/math-vector-fortran.h
REM seed 1999725219 775201027 -306886467 415006418 883200138 518165431 -1063195524 839470945 1124257048 -1164964270 -1272495935 -862755309 -1258490781 1222950648 -1063907919 207545327 -39125205 14380688 -1363261299 1569939659 42358859 -35477162 -1311587306 -2033042547 1612177665 1580433011 -789604802 -1528235376 -1577030800 536780425 -24902981 1978650990 -930105164
REM
CELL 1.54180   50.00000   50.00000   50.00000   90.00000   90.00000   90.00000
LATT -1
SFAC C  
C      1  0.4011830000000  0.4724120000000  0.5005590000000 1.0
C      1  0.4953540000000  0.4914520000000  0.4102700000000 1.0
C      1  0.4875820000000  0.4657810000000  0.5475890000000 1.0
C      1  0.5337950000000  0.4949750000000  0.4664910000000 1.0
C      1  0.4063740000000  0.5586270000000  0.5391330000000 1.0
C      1  0.5408620000000  0.4228780000000  0.5367280000000 1.0
C      1  0.5526570000000  0.4621500000000  0.4118890000000 1.0
C      1  0.4295420000000  0.5571360000000  0.4981830000000 1.0
C      1  0.4778180000000  0.4125910000000  0.4715580000000 1.0
C      1  0.5761460000000  0.5825180000000  0.4999420000000 1.0
C      1  0.5877950000000  0.4754070000000  0.4924830000000 1.0
C      1  0.4418190000000  0.5158980000000  0.5932340000000 1.0
C      1  0.5089310000000  0.4149010000000  0.4673140000000 1.0
C      1  0.5269900000000  0.4983560000000  0.4333360000000 1.0
C      1  0.4520820000000  0.4753480000000  0.4335690000000 1.0
C      1  0.4624850000000  0.4777260000000  0.4853420000000 1.0
C      1  0.4218890000000  0.5215810000000  0.4302590000000 1.0
C      1  0.5099140000000  0.4571090000000  0.5056080000000 1.0
C      1  0.4596470000000  0.5108040000000  0.4779190000000 1.0
C      1  0.5541750000000  0.5697880000000  0.4552530000000 1.0
C      1  0.5528590000000  0.5112720000000  0.4209900000000 1.0
C      1  0.4146300000000  0.4888640000000  0.4373230000000 1.0
C      1  0.5196400000000  0.5016010000000  0.5767030000000 1.0
C      1  0.5682270000000  0.4628300000000  0.5273580000000 1.0
C      1  0.4816060000000  0.5261020000000  0.4976900000000 1.0
C      1  0.5650500000000  0.5677620000000  0.5271560000000 1.0
C      1  0.4909470000000  0.4345520000000  0.5344970000000 1.0
C      1  0.5741920000000  0.5684060000000  0.4761230000000 1.0
C      1  0.4951610000000  0.5310700000000  0.5873960000000 1.0
C      1  0.5157490000000  0.5361110000000  0.5415750000000 1.0
C      1  0.5696430000000  0.5175170000000  0.4390750000000 1.0
C      1  0.4954930000000  0.4815660000000  0.4925680000000 1.0
C      1  0.5847030000000  0.4442230000000  0.4915760000000 1.0
C      1  0.5577940000000  0.4546010000000  0.5571110000000 1.0
C      1  0.4932450000000  0.5606100000000  0.5778350000000 1.0
C      1  0.4063200000000  0.4883250000000  0.5245390000000 1.0
C      1  0.4477180000000  0.5397740000000  0.4433000000000 1.0
C      1  0.5018210000000  0.5130640000000  0.4508510000000 1.0
C      1  0.4902600000000  0.5125350000000  0.5611410000000 1.0
C      1  0.5290630000000  0.4927290000000  0.5349160000000 1.0
C      1  0.5085520000000  0.5654090000000  0.5258900000000 1.0
C      1  0.5111840000000  0.4140540000000  0.5387310000000 1.0
C      1  0.4227920000000  0.5045190000000  0.4918960000000 1.0
C      1  0.5103420000000  0.4495240000000  0.5805840000000 1.0
C      1  0.4782350000000  0.5711420000000  0.5116010000000 1.0
C      1  0.4802260000000  0.5914020000000  0.4664190000000 1.0
C      1  0.5946460000000  0.5095700000000  0.4936820000000 1.0
C      1  0.4437680000000  0.5796310000000  0.5110600000000 1.0
C      1  0.5275640000000  0.4464300000000  0.5552360000000 1.0
C      1  0.5156350000000  0.4659070000000  0.5343050000000 1.0
C      1  0.5613820000000  0.5321820000000  0.5657840000000 1.0
C      1  0.5600770000000  0.5388340000000  0.5099850000000 1.0
C      1  0.5655650000000  0.4307380000000  0.5170070000000 1.0
C      1  0.4113610000000  0.4822940000000  0.4696410000000 1.0
C      1  0.5481280000000  0.4300860000000  0.4892160000000 1.0
C      1  0.5086440000000  0.5926210000000  0.4526990000000 1.0
C      1  0.4319340000000  0.5154030000000  0.4610060000000 1.0
C      1  0.4410990000000  0.4285860000000  0.4536110000000 1.0
C      1  0.5430380000000  0.5466550000000  0.5806370000000 1.0
C      1  0.5840640000000  0.5188990000000  0.5240570000000 1.0
C      1  0.5570390000000  0.4784890000000  0.5012510000000 1.0
C      1  0.4327820000000  0.4406000000000  0.4813160000000 1.0
C      1  0.4264120000000  0.4965610000000  0.5465810000000 1.0
C      1  0.5167560000000  0.4729540000000  0.5948020000000 1.0
C      1  0.5206580000000  0.5914250000000  0.5078500000000 1.0
C      1  0.4646880000000  0.5630010000000  0.5595230000000 1.0
C      1  0.4068670000000  0.4450060000000  0.4971200000000 1.0
C      1  0.5032750000000  0.5421720000000  0.4332080000000 1.0
C      1  0.5635920000000  0.4804300000000  0.4589520000000 1.0
C      1  0.5235380000000  0.5618980000000  0.5623850000000 1.0
C      1  0.5601770000000  0.4552240000000  0.4427610000000 1.0
C      1  0.4308520000000  0.5645200000000  0.5491850000000 1.0
C      1  0.4452920000000  0.4889770000000  0.5124490000000 1.0
C      1  0.4000150000000  0.5220540000000  0.5042170000000 1.0
C      1  0.4855550000000  0.5564460000000  0.4844490000000 1.0
C      1  0.4398980000000  0.4676620000000  0.4619920000000 1.0
C      1  0.4069680000000  0.5478930000000  0.5125350000000 1.0
C      1  0.5779660000000  0.5427750000000  0.5453150000000 1.0
C      1  0.5737980000000  0.4935510000000  0.5381930000000 1.0
C      1  0.4568380000000  0.5075320000000  0.5572110000000 1.0
C      1  0.4864220000000  0.5279500000000  0.5313060000000 1.0
C      1  0.5051300000000  0.4492410000000  0.4194380000000 1.0
C      1  0.5187590000000  0.4230450000000  0.4367490000000 1.0
C      1  0.5298990000000  0.5501310000000  0.5053460000000 1.0
C      1  0.5367930000000  0.5808560000000  0.5368850000000 1.0
C      1  0.5802160000000  0.5383480000000  0.4825950000000 1.0
C      1  0.4447670000000  0.4354580000000  0.5369210000000 1.0
C      1  0.5410990000000  0.4143560000000  0.4615720000000 1.0
C      1  0.5053180000000  0.3881460000000  0.5434800000000 1.0
C      1  0.5921910000000  0.4923280000000  0.4647770000000 1.0
C      1  0.5238400000000  0.4745720000000  0.4096010000000 1.0
C      1  0.4526920000000  0.5364520000000  0.5753980000000 1.0
C      1  0.4382690000000  0.4969170000000  0.4142400000000 1.0
C      1  0.5137800000000  0.5428570000000  0.4808930000000 1.0
C      1  0.5521280000000  0.5074560000000  0.4995780000000 1.0
C      1  0.4802090000000  0.4758810000000  0.5792070000000 1.0
C      1  0.5241010000000  0.5176140000000  0.5134450000000 1.0
C      1  0.5290920000000  0.4535710000000  0.4430400000000 1.0
C      1  0.5547530000000  0.5217640000000  0.4673350000000 1.0
C      1  0.5495170000000  0.5019870000000  0.5604530000000 1.0
C      1  0.4638030000000  0.5630740000000  0.4612800000000 1.0
C      1  0.5134840000000  0.4677020000000  0.4672600000000 1.0
C      1  0.4805800000000  0.4648780000000  0.4591670000000 1.0
C      1  0.4554020000000  0.5206820000000  0.5194680000000 1.0
C      1  0.5084380000000  0.5099400000000  0.4840770000000 1.0
C      1  0.4944250000000  0.4331310000000  0.4922750000000 1.0
C      1  0.4835790000000  0.5852640000000  0.5420870000000 1.0
C      1  0.4637510000000  0.4389490000000  0.4450010000000 1.0
C      1  0.4793600000000  0.4426380000000  0.5788270000000 1.0
C      1  0.4539460000000  0.4505590000000  0.5629000000000 1.0
C      1  0.5342070000000  0.5445100000000  0.4596010000000 1.0
C      1  0.4715800000000  0.5332980000000  0.4246530000000 1.0
C      1  0.5619240000000  0.4751820000000  0.5758640000000 1.0
C      1  0.4715790000000  0.4875490000000  0.5339810000000 1.0
C      1  0.4634700000000  0.4445210000000  0.4934110000000 1.0
C      1  0.4944820000000  0.4992230000000  0.5994680000000 1.0
C      1  0.4551600000000  0.5527440000000  0.5285200000000 1.0
C      1  0.4674390000000  0.5102530000000  0.4088770000000 1.0
C      1  0.4522840000000  0.4895030000000  0.5856840000000 1.0
C      1  0.5227520000000  0.5688400000000  0.4413490000000 1.0
C      1  0.5269730000000  0.5286170000000  0.5960090000000 1.0
C      1  0.5694160000000  0.4597860000000  0.3920610000000 1.0
C      1  0.5049630000000  0.5231660000000  0.4053020000000 1.0
C      1  0.5080440000000  0.5985920000000  0.4847570000000 1.0
C      1  0.5366500000000  0.4581030000000  0.4903920000000 1.0
C      1  0.5697900000000  0.4328540000000  0.4631560000000 1.0
C      1  0.4826000000000  0.4892450000000  0.4392000000000 1.0
C      1  0.4376440000000  0.4673630000000  0.5375970000000 1.0
C      1  0.4483500000000  0.5427200000000  0.4830450000000 1.0
C      1  0.4665920000000  0.4299450000000  0.5207080000000 1.0
C      1  0.4759930000000  0.4542360000000  0.4210430000000 1.0
END
