TITL C-2847953-8112-577 0.000619271158314741 125000 -1009.89551561088 0 0 181 (C1) n - 1
REM
REM in /home/bkarasulu/work/CARBON/AIRSS/Generating-Clusters/AIREBO/with-SteepDescent/Only-C1/SD-CG-opt/Try1-1.4A-POS3A/HFTN-CG
REM
REM
REM
REM
REM
REM ./C.cell (11c1c37f851c82e70ff6c80c92926a4b)
REM
REM compiler GCC version 9.2.1 20190827 (Red Hat 9.2.1-1)
REM options -cpp -mtune=generic -march=x86-64 -g -O0 -fpre-include=/usr/include/finclude/math-vector-fortran.h
REM seed -1155680096 1287491651 -628511103 1039255657 1960357689 -1427156424 -471942556 -600347491 1529150391 1517086126 -699451968 -1267726317 834355953 -1483715007 33553616 967246926 1199899921 -88511017 -759856656 -1833590999 -212796652 -2083744805 -1631653135 -974341346 -2095289799 2075773570 1972645675 -846535126 -1542399867 -400964034 465709379 -188668614 1130281322
REM
CELL 1.54180   50.00000   50.00000   50.00000   90.00000   90.00000   90.00000
LATT -1
SFAC C  
C      1  0.4562590000000  0.5542270000000  0.4536850000000 1.0
C      1  0.5031800000000  0.4227520000000  0.5673640000000 1.0
C      1  0.5558580000000  0.5298520000000  0.4424340000000 1.0
C      1  0.5095500000000  0.4779740000000  0.5704680000000 1.0
C      1  0.5015290000000  0.5761640000000  0.4331220000000 1.0
C      1  0.5385030000000  0.4314950000000  0.4271700000000 1.0
C      1  0.5373200000000  0.4637570000000  0.4037320000000 1.0
C      1  0.4213460000000  0.4718410000000  0.5908120000000 1.0
C      1  0.4796340000000  0.4128170000000  0.4902220000000 1.0
C      1  0.4499770000000  0.5102190000000  0.4213210000000 1.0
C      1  0.5927260000000  0.6036310000000  0.4827180000000 1.0
C      1  0.5747010000000  0.5391690000000  0.5733330000000 1.0
C      1  0.5398230000000  0.4119800000000  0.5338540000000 1.0
C      1  0.5147880000000  0.6000010000000  0.4517960000000 1.0
C      1  0.5591820000000  0.5803290000000  0.5474300000000 1.0
C      1  0.5485010000000  0.5599210000000  0.5725280000000 1.0
C      1  0.5632870000000  0.4537060000000  0.4191240000000 1.0
C      1  0.5082570000000  0.5273850000000  0.4821760000000 1.0
C      1  0.5107800000000  0.5035860000000  0.5157760000000 1.0
C      1  0.4118160000000  0.4871360000000  0.5438500000000 1.0
C      1  0.5161100000000  0.5486780000000  0.5519420000000 1.0
C      1  0.4185310000000  0.4825310000000  0.3956890000000 1.0
C      1  0.4891020000000  0.5424830000000  0.4124590000000 1.0
C      1  0.6006450000000  0.4677070000000  0.5040530000000 1.0
C      1  0.4266900000000  0.4499100000000  0.4312310000000 1.0
C      1  0.5686940000000  0.4667930000000  0.5462190000000 1.0
C      1  0.4863420000000  0.5742130000000  0.5444730000000 1.0
C      1  0.6133160000000  0.5261220000000  0.5265770000000 1.0
C      1  0.4774870000000  0.4708130000000  0.5952030000000 1.0
C      1  0.5748390000000  0.4550080000000  0.5176530000000 1.0
C      1  0.4959970000000  0.5627610000000  0.5750100000000 1.0
C      1  0.5483130000000  0.4573950000000  0.4999710000000 1.0
C      1  0.5530430000000  0.5936010000000  0.5217270000000 1.0
C      1  0.5658480000000  0.4991680000000  0.5205300000000 1.0
C      1  0.5377840000000  0.4046400000000  0.4742530000000 1.0
C      1  0.5225510000000  0.5796340000000  0.5634830000000 1.0
C      1  0.4848380000000  0.4114230000000  0.5214100000000 1.0
C      1  0.5728570000000  0.4029380000000  0.5132380000000 1.0
C      1  0.5083440000000  0.4559400000000  0.4691470000000 1.0
C      1  0.5241330000000  0.4723320000000  0.5167650000000 1.0
C      1  0.4778010000000  0.4401630000000  0.4326740000000 1.0
C      1  0.4612180000000  0.4766930000000  0.5394430000000 1.0
C      1  0.5418370000000  0.5171490000000  0.3944080000000 1.0
C      1  0.4200350000000  0.5101750000000  0.4900670000000 1.0
C      1  0.5530870000000  0.4542270000000  0.5916220000000 1.0
C      1  0.5077020000000  0.4841720000000  0.6032900000000 1.0
C      1  0.4696950000000  0.5221460000000  0.5621330000000 1.0
C      1  0.6013990000000  0.4997190000000  0.4471910000000 1.0
C      1  0.4442410000000  0.5951220000000  0.4877500000000 1.0
C      1  0.6098630000000  0.5003200000000  0.5372310000000 1.0
C      1  0.4628300000000  0.6041740000000  0.5078840000000 1.0
C      1  0.5395590000000  0.5040120000000  0.4990790000000 1.0
C      1  0.4492130000000  0.5110430000000  0.4812000000000 1.0
C      1  0.4999100000000  0.4656120000000  0.4282100000000 1.0
C      1  0.3839960000000  0.4849870000000  0.5260230000000 1.0
C      1  0.5412090000000  0.5818460000000  0.4920790000000 1.0
C      1  0.4933420000000  0.5721530000000  0.4930860000000 1.0
C      1  0.4797930000000  0.4516720000000  0.4639310000000 1.0
C      1  0.5613670000000  0.4713340000000  0.4757660000000 1.0
C      1  0.5381890000000  0.5144820000000  0.5562530000000 1.0
C      1  0.4612960000000  0.5949240000000  0.5344740000000 1.0
C      1  0.4838880000000  0.4938390000000  0.5019500000000 1.0
C      1  0.4494300000000  0.4260340000000  0.4832880000000 1.0
C      1  0.5746950000000  0.5519240000000  0.5438930000000 1.0
C      1  0.4281390000000  0.5328750000000  0.5333700000000 1.0
C      1  0.4158430000000  0.5081920000000  0.5199710000000 1.0
C      1  0.5120360000000  0.5191510000000  0.5390120000000 1.0
C      1  0.5019280000000  0.5620030000000  0.5172970000000 1.0
C      1  0.4611080000000  0.4014690000000  0.4639330000000 1.0
C      1  0.5895030000000  0.5257410000000  0.4453460000000 1.0
C      1  0.4486680000000  0.4529130000000  0.5919300000000 1.0
C      1  0.4669100000000  0.4205270000000  0.5418660000000 1.0
C      1  0.4038180000000  0.5337490000000  0.4745690000000 1.0
C      1  0.5537170000000  0.5292450000000  0.5296940000000 1.0
C      1  0.5650270000000  0.5394560000000  0.4992860000000 1.0
C      1  0.5095700000000  0.5990300000000  0.5413800000000 1.0
C      1  0.4979420000000  0.4971370000000  0.3900550000000 1.0
C      1  0.4817670000000  0.5112080000000  0.4125630000000 1.0
C      1  0.5278300000000  0.5459010000000  0.5921210000000 1.0
C      1  0.4158220000000  0.4777250000000  0.4474960000000 1.0
C      1  0.5256200000000  0.4558480000000  0.4431600000000 1.0
C      1  0.5388830000000  0.4774630000000  0.5985840000000 1.0
C      1  0.5225160000000  0.3845190000000  0.5279520000000 1.0
C      1  0.4575230000000  0.4960760000000  0.5914870000000 1.0
C      1  0.5366060000000  0.5516390000000  0.4571640000000 1.0
C      1  0.5192860000000  0.4804800000000  0.4850680000000 1.0
C      1  0.4318350000000  0.4633110000000  0.5418880000000 1.0
C      1  0.4427190000000  0.4557260000000  0.5113630000000 1.0
C      1  0.4756390000000  0.4644680000000  0.5123490000000 1.0
C      1  0.3963160000000  0.5025020000000  0.4511730000000 1.0
C      1  0.5818920000000  0.4960670000000  0.5503580000000 1.0
C      1  0.4891740000000  0.4504710000000  0.5728030000000 1.0
C      1  0.4021620000000  0.5803400000000  0.4571190000000 1.0
C      1  0.5772980000000  0.4965030000000  0.4900960000000 1.0
C      1  0.4116980000000  0.5402940000000  0.5588230000000 1.0
C      1  0.5174260000000  0.5555580000000  0.4111710000000 1.0
C      1  0.4902960000000  0.3977280000000  0.5649030000000 1.0
C      1  0.3762210000000  0.4964520000000  0.5024710000000 1.0
C      1  0.4528520000000  0.4591790000000  0.4800490000000 1.0
C      1  0.5845450000000  0.5589290000000  0.4793860000000 1.0
C      1  0.5167810000000  0.4311240000000  0.5417830000000 1.0
C      1  0.4606810000000  0.4034260000000  0.5660550000000 1.0
C      1  0.4963460000000  0.5081880000000  0.5623900000000 1.0
C      1  0.5719070000000  0.5953640000000  0.4945080000000 1.0
C      1  0.4237280000000  0.5593210000000  0.4453070000000 1.0
C      1  0.4643450000000  0.5250430000000  0.4471900000000 1.0
C      1  0.4204100000000  0.4395130000000  0.4924580000000 1.0
C      1  0.5184030000000  0.5118890000000  0.3790120000000 1.0
C      1  0.4485610000000  0.4417640000000  0.4230720000000 1.0
C      1  0.5821580000000  0.4248480000000  0.5197960000000 1.0
C      1  0.5536060000000  0.4137460000000  0.4519280000000 1.0
C      1  0.5058400000000  0.5482930000000  0.4482810000000 1.0
C      1  0.4552660000000  0.5976680000000  0.4598520000000 1.0
C      1  0.4976600000000  0.4421320000000  0.5159090000000 1.0
C      1  0.4586350000000  0.5542000000000  0.5651340000000 1.0
C      1  0.5150200000000  0.5180000000000  0.4356070000000 1.0
C      1  0.4293740000000  0.4893230000000  0.4185470000000 1.0
C      1  0.5220250000000  0.5044080000000  0.4637440000000 1.0
C      1  0.4279150000000  0.5728940000000  0.4962800000000 1.0
C      1  0.4668020000000  0.5227910000000  0.6016330000000 1.0
C      1  0.4701940000000  0.5881890000000  0.4386530000000 1.0
C      1  0.4416750000000  0.5527180000000  0.5124650000000 1.0
C      1  0.4699570000000  0.4477180000000  0.5494360000000 1.0
C      1  0.4047610000000  0.4560230000000  0.4712240000000 1.0
C      1  0.5180340000000  0.6019880000000  0.4833120000000 1.0
C      1  0.4227040000000  0.5269200000000  0.5805500000000 1.0
C      1  0.5729670000000  0.5113520000000  0.5755880000000 1.0
C      1  0.3822450000000  0.5076230000000  0.4779010000000 1.0
C      1  0.4510310000000  0.5840440000000  0.5604220000000 1.0
C      1  0.4092960000000  0.5302260000000  0.4411850000000 1.0
C      1  0.4990870000000  0.4183470000000  0.4175940000000 1.0
C      1  0.4067680000000  0.5637650000000  0.4811260000000 1.0
C      1  0.4632040000000  0.5346360000000  0.4958150000000 1.0
C      1  0.6183210000000  0.4783510000000  0.5218290000000 1.0
C      1  0.5207500000000  0.5132910000000  0.5855200000000 1.0
C      1  0.6051040000000  0.4858300000000  0.4229150000000 1.0
C      1  0.5177870000000  0.4367360000000  0.4007020000000 1.0
C      1  0.4370320000000  0.5986690000000  0.5787800000000 1.0
C      1  0.4875110000000  0.4121400000000  0.4493330000000 1.0
C      1  0.4642860000000  0.4754430000000  0.4455780000000 1.0
C      1  0.5571090000000  0.4899830000000  0.4036320000000 1.0
C      1  0.4728330000000  0.5178400000000  0.5217820000000 1.0
C      1  0.5414720000000  0.4823360000000  0.5589970000000 1.0
C      1  0.4664420000000  0.5490920000000  0.5330800000000 1.0
C      1  0.5061660000000  0.4693560000000  0.3976540000000 1.0
C      1  0.4485820000000  0.5075580000000  0.5432900000000 1.0
C      1  0.5738240000000  0.4360320000000  0.4446470000000 1.0
C      1  0.5231080000000  0.6070540000000  0.5166600000000 1.0
C      1  0.5016190000000  0.3811820000000  0.5440990000000 1.0
C      1  0.5441510000000  0.5010770000000  0.4308880000000 1.0
C      1  0.4294220000000  0.4424180000000  0.5653650000000 1.0
C      1  0.5581920000000  0.5176540000000  0.4741020000000 1.0
C      1  0.4083960000000  0.4310140000000  0.5434210000000 1.0
C      1  0.5334630000000  0.5495260000000  0.4893590000000 1.0
C      1  0.5201960000000  0.4613510000000  0.5427780000000 1.0
C      1  0.5630690000000  0.4442930000000  0.5670470000000 1.0
C      1  0.4417550000000  0.4846360000000  0.4658780000000 1.0
C      1  0.4832340000000  0.5487960000000  0.4736820000000 1.0
C      1  0.4464980000000  0.5394590000000  0.5896720000000 1.0
C      1  0.4460180000000  0.4201380000000  0.5832730000000 1.0
C      1  0.4309060000000  0.4968100000000  0.5703010000000 1.0
C      1  0.4954410000000  0.5343760000000  0.5940100000000 1.0
C      1  0.5605330000000  0.4196090000000  0.5558180000000 1.0
C      1  0.5198040000000  0.4401910000000  0.4937060000000 1.0
C      1  0.5859790000000  0.4735650000000  0.4087150000000 1.0
C      1  0.5999680000000  0.4805850000000  0.4725680000000 1.0
C      1  0.4902720000000  0.4954160000000  0.4414580000000 1.0
C      1  0.5301570000000  0.5505040000000  0.5227320000000 1.0
C      1  0.4368880000000  0.5395210000000  0.4220760000000 1.0
C      1  0.5923860000000  0.5414100000000  0.5197680000000 1.0
C      1  0.5523240000000  0.5023440000000  0.5918520000000 1.0
C      1  0.4651600000000  0.5591940000000  0.4216050000000 1.0
C      1  0.5409190000000  0.5385350000000  0.4131270000000 1.0
C      1  0.5429880000000  0.4793840000000  0.4532160000000 1.0
C      1  0.5089680000000  0.4162130000000  0.4732730000000 1.0
C      1  0.5432700000000  0.3961430000000  0.5036550000000 1.0
C      1  0.4884580000000  0.6012100000000  0.4964640000000 1.0
C      1  0.4817600000000  0.5088880000000  0.4715280000000 1.0
C      1  0.5837940000000  0.4526570000000  0.4641710000000 1.0
C      1  0.4083830000000  0.4266420000000  0.5189940000000 1.0
C      1  0.5997080000000  0.5482350000000  0.4591070000000 1.0
END
