TITL C-2847949-8115-187 -0.00286739915525257 125000 -1042.4530955227 0 0 196 (C1) n - 1
REM
REM in /home/bkarasulu/work/CARBON/AIRSS/Generating-Clusters/AIREBO/with-SteepDescent/Only-C1/SD-CG-opt/Try1-1.4A-POS3A/HFTN-CG
REM
REM
REM
REM
REM
REM ./C.cell (11c1c37f851c82e70ff6c80c92926a4b)
REM
REM compiler GCC version 9.2.1 20190827 (Red Hat 9.2.1-1)
REM options -cpp -mtune=generic -march=x86-64 -g -O0 -fpre-include=/usr/include/finclude/math-vector-fortran.h
REM seed -1132664478 -1428195131 1129050442 831504332 -1553971461 827706007 -1834755883 680139617 -514541411 -573387620 -1775503502 -991056913 1984767140 610419836 1905862329 -204932301 -723884559 1763468693 -282177427 -1290012458 -1471450398 1093043133 1978844653 -648461512 1403917984 -554184562 1539113178 728078774 -116130727 -142394374 374019456 1349151291 553530337
REM
CELL 1.54180   50.00000   50.00000   50.00000   90.00000   90.00000   90.00000
LATT -1
SFAC C  
C      1  0.4558580000000  0.4978820000000  0.4321270000000 1.0
C      1  0.5564020000000  0.5855490000000  0.5119120000000 1.0
C      1  0.5315490000000  0.5203280000000  0.4129080000000 1.0
C      1  0.4859880000000  0.5337430000000  0.4815160000000 1.0
C      1  0.4355070000000  0.5106270000000  0.5065610000000 1.0
C      1  0.5124260000000  0.5218720000000  0.3852110000000 1.0
C      1  0.4703570000000  0.5748560000000  0.5076900000000 1.0
C      1  0.5087230000000  0.5284960000000  0.5276580000000 1.0
C      1  0.4892400000000  0.4006720000000  0.5521020000000 1.0
C      1  0.5592300000000  0.5006000000000  0.5512380000000 1.0
C      1  0.4954970000000  0.5305070000000  0.5589170000000 1.0
C      1  0.5204300000000  0.4158030000000  0.4210410000000 1.0
C      1  0.5166130000000  0.6098500000000  0.5153690000000 1.0
C      1  0.6073510000000  0.4438310000000  0.5169330000000 1.0
C      1  0.5718040000000  0.4717160000000  0.5158470000000 1.0
C      1  0.5089730000000  0.4046670000000  0.4812130000000 1.0
C      1  0.5903250000000  0.4211880000000  0.5085460000000 1.0
C      1  0.5408850000000  0.5294520000000  0.4507070000000 1.0
C      1  0.4396870000000  0.5975380000000  0.4956780000000 1.0
C      1  0.5432520000000  0.4007460000000  0.4808510000000 1.0
C      1  0.4179920000000  0.4623700000000  0.5072890000000 1.0
C      1  0.5862500000000  0.5542630000000  0.5431530000000 1.0
C      1  0.4914410000000  0.5732190000000  0.4807070000000 1.0
C      1  0.4921040000000  0.5647380000000  0.5306080000000 1.0
C      1  0.4221650000000  0.4770550000000  0.5891040000000 1.0
C      1  0.4835730000000  0.5376110000000  0.4219160000000 1.0
C      1  0.3936670000000  0.5383830000000  0.5095640000000 1.0
C      1  0.5389340000000  0.5530200000000  0.4186770000000 1.0
C      1  0.4595230000000  0.4939430000000  0.5533130000000 1.0
C      1  0.4075590000000  0.5471130000000  0.4616120000000 1.0
C      1  0.4991730000000  0.4820720000000  0.4258950000000 1.0
C      1  0.5318560000000  0.5230800000000  0.5837680000000 1.0
C      1  0.5792780000000  0.5035830000000  0.4604030000000 1.0
C      1  0.4863030000000  0.5288140000000  0.6147270000000 1.0
C      1  0.5057940000000  0.5695580000000  0.5792200000000 1.0
C      1  0.4830710000000  0.4724490000000  0.3817650000000 1.0
C      1  0.4327290000000  0.5748880000000  0.4755310000000 1.0
C      1  0.5778830000000  0.5186270000000  0.5104790000000 1.0
C      1  0.5826530000000  0.5024750000000  0.4312200000000 1.0
C      1  0.4445380000000  0.4619470000000  0.5994350000000 1.0
C      1  0.5179350000000  0.5049510000000  0.5585930000000 1.0
C      1  0.5443050000000  0.4048580000000  0.5283250000000 1.0
C      1  0.5620610000000  0.4510590000000  0.5391060000000 1.0
C      1  0.4398000000000  0.5375600000000  0.3991340000000 1.0
C      1  0.5720310000000  0.5485170000000  0.5168860000000 1.0
C      1  0.4793410000000  0.4223830000000  0.5278770000000 1.0
C      1  0.4381310000000  0.4366260000000  0.4504040000000 1.0
C      1  0.6074090000000  0.4442940000000  0.4724490000000 1.0
C      1  0.4778060000000  0.5749800000000  0.5597110000000 1.0
C      1  0.4055530000000  0.4757360000000  0.4364190000000 1.0
C      1  0.5384420000000  0.4778740000000  0.5603540000000 1.0
C      1  0.5193650000000  0.4600370000000  0.4977140000000 1.0
C      1  0.4392230000000  0.5124410000000  0.5381270000000 1.0
C      1  0.5011530000000  0.5958780000000  0.4572780000000 1.0
C      1  0.5157030000000  0.5709600000000  0.5476240000000 1.0
C      1  0.5736190000000  0.4724100000000  0.4727750000000 1.0
C      1  0.4679800000000  0.4030520000000  0.4505440000000 1.0
C      1  0.5635510000000  0.5934440000000  0.4701160000000 1.0
C      1  0.5270560000000  0.4732530000000  0.6124560000000 1.0
C      1  0.5394590000000  0.4802250000000  0.4537540000000 1.0
C      1  0.5968080000000  0.5112200000000  0.4849170000000 1.0
C      1  0.5411020000000  0.5700180000000  0.5300120000000 1.0
C      1  0.4314310000000  0.4788070000000  0.4207640000000 1.0
C      1  0.5607470000000  0.4433710000000  0.4849430000000 1.0
C      1  0.4107050000000  0.5581220000000  0.4913530000000 1.0
C      1  0.4918860000000  0.4432090000000  0.4493030000000 1.0
C      1  0.5765710000000  0.5697410000000  0.4907240000000 1.0
C      1  0.4969390000000  0.4274750000000  0.4116870000000 1.0
C      1  0.4529730000000  0.5343800000000  0.4896160000000 1.0
C      1  0.4610830000000  0.5410870000000  0.3800630000000 1.0
C      1  0.5857280000000  0.4673450000000  0.5580410000000 1.0
C      1  0.4016200000000  0.5104340000000  0.5023280000000 1.0
C      1  0.4715360000000  0.4266040000000  0.4315310000000 1.0
C      1  0.4797900000000  0.5078070000000  0.4150750000000 1.0
C      1  0.4897820000000  0.4147500000000  0.5793770000000 1.0
C      1  0.5853480000000  0.4282800000000  0.4695780000000 1.0
C      1  0.4365870000000  0.5888780000000  0.5232310000000 1.0
C      1  0.4654900000000  0.5442160000000  0.5520860000000 1.0
C      1  0.5290150000000  0.6077330000000  0.5407070000000 1.0
C      1  0.5618610000000  0.5087760000000  0.5922520000000 1.0
C      1  0.4956660000000  0.4904530000000  0.5798280000000 1.0
C      1  0.5021710000000  0.5069150000000  0.4697910000000 1.0
C      1  0.4356250000000  0.5108030000000  0.4089260000000 1.0
C      1  0.4654840000000  0.6120340000000  0.4901150000000 1.0
C      1  0.5197700000000  0.5047140000000  0.4407590000000 1.0
C      1  0.5867220000000  0.4969060000000  0.5723170000000 1.0
C      1  0.5666760000000  0.5301790000000  0.5662760000000 1.0
C      1  0.6050860000000  0.5063110000000  0.5267520000000 1.0
C      1  0.4876790000000  0.4991630000000  0.3856050000000 1.0
C      1  0.4616970000000  0.5983760000000  0.4621510000000 1.0
C      1  0.4146360000000  0.4632790000000  0.5611100000000 1.0
C      1  0.6069650000000  0.4732060000000  0.5340620000000 1.0
C      1  0.4599360000000  0.4387560000000  0.4886670000000 1.0
C      1  0.3935120000000  0.5131780000000  0.5544150000000 1.0
C      1  0.5391650000000  0.5408140000000  0.5202150000000 1.0
C      1  0.4418180000000  0.4445460000000  0.5528600000000 1.0
C      1  0.4819520000000  0.4631450000000  0.4848080000000 1.0
C      1  0.5630370000000  0.5664860000000  0.4285620000000 1.0
C      1  0.4012840000000  0.5051260000000  0.4709620000000 1.0
C      1  0.4878270000000  0.6103530000000  0.5116960000000 1.0
C      1  0.4913690000000  0.4490570000000  0.5789310000000 1.0
C      1  0.4332740000000  0.4566710000000  0.4774440000000 1.0
C      1  0.5246790000000  0.4731650000000  0.4074500000000 1.0
C      1  0.5632800000000  0.5911680000000  0.4429840000000 1.0
C      1  0.5577370000000  0.5044450000000  0.4107020000000 1.0
C      1  0.5018180000000  0.4625220000000  0.6075510000000 1.0
C      1  0.4722010000000  0.4762780000000  0.6010500000000 1.0
C      1  0.5256920000000  0.4017410000000  0.4517500000000 1.0
C      1  0.4364080000000  0.5854890000000  0.4434220000000 1.0
C      1  0.5986660000000  0.4678830000000  0.4953280000000 1.0
C      1  0.4672050000000  0.5956520000000  0.5344080000000 1.0
C      1  0.4781060000000  0.4117170000000  0.4784740000000 1.0
C      1  0.4999680000000  0.5490120000000  0.5030240000000 1.0
C      1  0.4818840000000  0.4902980000000  0.5315390000000 1.0
C      1  0.4641530000000  0.4631690000000  0.5641740000000 1.0
C      1  0.4296640000000  0.5461950000000  0.4459980000000 1.0
C      1  0.5460520000000  0.4645400000000  0.4263490000000 1.0
C      1  0.6141320000000  0.5353480000000  0.5113610000000 1.0
C      1  0.4641960000000  0.4966510000000  0.4963550000000 1.0
C      1  0.4691720000000  0.5019880000000  0.4631420000000 1.0
C      1  0.4567760000000  0.5464460000000  0.5205580000000 1.0
C      1  0.4847670000000  0.4730440000000  0.4544480000000 1.0
C      1  0.5297350000000  0.5153030000000  0.4861410000000 1.0
C      1  0.4580880000000  0.5205260000000  0.5723610000000 1.0
C      1  0.3968530000000  0.4863400000000  0.5455010000000 1.0
C      1  0.5188150000000  0.4343060000000  0.4562690000000 1.0
C      1  0.5809310000000  0.5484840000000  0.4410620000000 1.0
C      1  0.4281020000000  0.4901580000000  0.4804300000000 1.0
C      1  0.4436350000000  0.4370740000000  0.5859840000000 1.0
C      1  0.5472010000000  0.4895660000000  0.4855800000000 1.0
C      1  0.4249650000000  0.5584780000000  0.5225770000000 1.0
C      1  0.4641310000000  0.3870850000000  0.5387510000000 1.0
C      1  0.5186880000000  0.6143370000000  0.4671510000000 1.0
C      1  0.5814290000000  0.4606190000000  0.4445050000000 1.0
C      1  0.5169330000000  0.4305140000000  0.5663090000000 1.0
C      1  0.4056560000000  0.4579970000000  0.4576290000000 1.0
C      1  0.5493910000000  0.4566360000000  0.6069910000000 1.0
C      1  0.6178730000000  0.4924720000000  0.4914990000000 1.0
C      1  0.5284950000000  0.4508470000000  0.5446080000000 1.0
C      1  0.4846780000000  0.5464960000000  0.5869720000000 1.0
C      1  0.5536410000000  0.4984650000000  0.5177630000000 1.0
C      1  0.5029380000000  0.4868790000000  0.4972580000000 1.0
C      1  0.4542160000000  0.5321320000000  0.4581000000000 1.0
C      1  0.5685690000000  0.5349310000000  0.4696900000000 1.0
C      1  0.5250930000000  0.5685580000000  0.4789190000000 1.0
C      1  0.4219640000000  0.5281600000000  0.5570490000000 1.0
C      1  0.5361670000000  0.5988430000000  0.4897190000000 1.0
C      1  0.5274560000000  0.4639860000000  0.3745580000000 1.0
C      1  0.4496140000000  0.4374380000000  0.5210520000000 1.0
C      1  0.5003670000000  0.5797480000000  0.4329880000000 1.0
C      1  0.5343290000000  0.4537940000000  0.4734010000000 1.0
C      1  0.5637300000000  0.5636270000000  0.5666340000000 1.0
C      1  0.5419630000000  0.4354430000000  0.4324080000000 1.0
C      1  0.5597860000000  0.4285760000000  0.5155450000000 1.0
C      1  0.4713850000000  0.5667470000000  0.4303030000000 1.0
C      1  0.4498900000000  0.4700280000000  0.5112610000000 1.0
C      1  0.5072510000000  0.4402530000000  0.5201850000000 1.0
C      1  0.5334730000000  0.5000080000000  0.6083500000000 1.0
C      1  0.5337770000000  0.5531490000000  0.5784870000000 1.0
C      1  0.4817950000000  0.4578510000000  0.4095130000000 1.0
C      1  0.4194550000000  0.4233860000000  0.5149880000000 1.0
C      1  0.4814970000000  0.4612570000000  0.5187530000000 1.0
C      1  0.4061860000000  0.4460860000000  0.5335660000000 1.0
C      1  0.4964010000000  0.4717380000000  0.5540930000000 1.0
C      1  0.5658760000000  0.4294150000000  0.5650530000000 1.0
C      1  0.3981300000000  0.4840570000000  0.5176010000000 1.0
C      1  0.4556400000000  0.5569740000000  0.5886180000000 1.0
C      1  0.5272380000000  0.4943300000000  0.3828250000000 1.0
C      1  0.4542420000000  0.5855780000000  0.5818170000000 1.0
C      1  0.4296240000000  0.4113650000000  0.4609910000000 1.0
C      1  0.5210200000000  0.5568490000000  0.4473220000000 1.0
C      1  0.4935380000000  0.5409710000000  0.4511510000000 1.0
C      1  0.5393070000000  0.5871570000000  0.5657680000000 1.0
C      1  0.5419940000000  0.5439150000000  0.4889070000000 1.0
C      1  0.5179000000000  0.4107430000000  0.5100960000000 1.0
C      1  0.4747100000000  0.5087440000000  0.5953480000000 1.0
C      1  0.4509160000000  0.4522930000000  0.4230600000000 1.0
C      1  0.4774120000000  0.5195370000000  0.5178510000000 1.0
C      1  0.4483860000000  0.3972170000000  0.4846070000000 1.0
C      1  0.4259640000000  0.5035010000000  0.5883630000000 1.0
C      1  0.5969180000000  0.5439880000000  0.4861570000000 1.0
C      1  0.3937760000000  0.4998020000000  0.4449000000000 1.0
C      1  0.5146500000000  0.3920370000000  0.5379050000000 1.0
C      1  0.4612200000000  0.3982600000000  0.5120910000000 1.0
C      1  0.5708560000000  0.4048440000000  0.4855020000000 1.0
C      1  0.5202400000000  0.4985420000000  0.5242590000000 1.0
C      1  0.5976510000000  0.5238480000000  0.5537610000000 1.0
C      1  0.4861990000000  0.5386840000000  0.3906120000000 1.0
C      1  0.5595980000000  0.4590620000000  0.5781590000000 1.0
C      1  0.5739610000000  0.4747520000000  0.4151440000000 1.0
C      1  0.4317960000000  0.5360400000000  0.5863150000000 1.0
C      1  0.4397830000000  0.5605090000000  0.4205490000000 1.0
C      1  0.5414970000000  0.4121300000000  0.5595930000000 1.0
C      1  0.3996120000000  0.5437210000000  0.5398410000000 1.0
C      1  0.4188440000000  0.4092360000000  0.4916570000000 1.0
C      1  0.4635510000000  0.5644320000000  0.4633120000000 1.0
END
