TITL C-2848508-1660-734 0.00110799661889889 125000 -936.866293444613 0 0 170 (C1) n - 1
REM
REM in /home/bkarasulu/work/CARBON/AIRSS/Generating-Clusters/AIREBO/with-SteepDescent/Only-C1/SD-CG-opt/Try1-1.4A-POS3A/HFTN-CG
REM
REM
REM
REM
REM
REM ./C.cell (11c1c37f851c82e70ff6c80c92926a4b)
REM
REM compiler GCC version 9.2.1 20190827 (Red Hat 9.2.1-1)
REM options -cpp -mtune=generic -march=x86-64 -g -O0 -fpre-include=/usr/include/finclude/math-vector-fortran.h
REM seed 980127025 470510076 1440858302 -607720820 -464580758 1377652578 -710965168 -439339974 -1781197983 1168059713 -1244930492 -493392405 2106044076 -215403237 402591066 685122782 112897781 497416321 -583221174 -115696204 -1943010265 -1145247056 -984938439 -741334753 -862101010 542866929 1990193502 -1981725626 180519503 1632193250 -656692894 1302283630 816429956
REM
CELL 1.54180   50.00000   50.00000   50.00000   90.00000   90.00000   90.00000
LATT -1
SFAC C  
C      1  0.5779980000000  0.5337660000000  0.4330870000000 1.0
C      1  0.4755410000000  0.4915550000000  0.5140500000000 1.0
C      1  0.4796680000000  0.4081650000000  0.4740610000000 1.0
C      1  0.4753940000000  0.5683980000000  0.5693160000000 1.0
C      1  0.5039300000000  0.5157430000000  0.4567520000000 1.0
C      1  0.4522200000000  0.5531580000000  0.5734480000000 1.0
C      1  0.5201830000000  0.6052610000000  0.5333360000000 1.0
C      1  0.4578380000000  0.4811560000000  0.4582040000000 1.0
C      1  0.5670350000000  0.4530800000000  0.5553500000000 1.0
C      1  0.6002860000000  0.5201010000000  0.5255850000000 1.0
C      1  0.4376590000000  0.5726490000000  0.4966140000000 1.0
C      1  0.4299120000000  0.4759030000000  0.4197340000000 1.0
C      1  0.5052160000000  0.5457610000000  0.5088480000000 1.0
C      1  0.5473150000000  0.5097380000000  0.5789770000000 1.0
C      1  0.4591590000000  0.4763830000000  0.6109930000000 1.0
C      1  0.6071680000000  0.4904670000000  0.5099110000000 1.0
C      1  0.5006270000000  0.5587430000000  0.5760260000000 1.0
C      1  0.4691760000000  0.3972910000000  0.5359040000000 1.0
C      1  0.5361350000000  0.4608250000000  0.5948670000000 1.0
C      1  0.4538150000000  0.5248170000000  0.5759190000000 1.0
C      1  0.4372750000000  0.5555010000000  0.5226140000000 1.0
C      1  0.5470460000000  0.5859520000000  0.5023320000000 1.0
C      1  0.5967980000000  0.4290670000000  0.5051220000000 1.0
C      1  0.4805350000000  0.5037000000000  0.4016310000000 1.0
C      1  0.5415670000000  0.4474560000000  0.4248570000000 1.0
C      1  0.5225200000000  0.5591490000000  0.5503280000000 1.0
C      1  0.5374020000000  0.4442420000000  0.5705160000000 1.0
C      1  0.5879130000000  0.4788440000000  0.4220330000000 1.0
C      1  0.5302050000000  0.5280160000000  0.4700660000000 1.0
C      1  0.5574710000000  0.4584060000000  0.5030100000000 1.0
C      1  0.4830850000000  0.4709630000000  0.5398730000000 1.0
C      1  0.4006470000000  0.5269110000000  0.4540520000000 1.0
C      1  0.4390410000000  0.3924670000000  0.5498800000000 1.0
C      1  0.4305910000000  0.5586550000000  0.5559450000000 1.0
C      1  0.5906920000000  0.5206150000000  0.5574590000000 1.0
C      1  0.4802520000000  0.6043930000000  0.4736140000000 1.0
C      1  0.4972510000000  0.4558880000000  0.5872040000000 1.0
C      1  0.4992280000000  0.4830000000000  0.4175960000000 1.0
C      1  0.5717620000000  0.5485990000000  0.4605880000000 1.0
C      1  0.4753120000000  0.4045390000000  0.5029880000000 1.0
C      1  0.5672710000000  0.5531490000000  0.5882300000000 1.0
C      1  0.5752810000000  0.4999190000000  0.5756510000000 1.0
C      1  0.4483000000000  0.4453960000000  0.4875420000000 1.0
C      1  0.4844740000000  0.4434660000000  0.4215300000000 1.0
C      1  0.5242660000000  0.5791930000000  0.4800500000000 1.0
C      1  0.5385860000000  0.5560080000000  0.4596840000000 1.0
C      1  0.5557820000000  0.4055420000000  0.5262150000000 1.0
C      1  0.4851530000000  0.5334460000000  0.4110250000000 1.0
C      1  0.5260030000000  0.5665150000000  0.4298870000000 1.0
C      1  0.5130640000000  0.4325760000000  0.4359580000000 1.0
C      1  0.5778390000000  0.4969560000000  0.5359790000000 1.0
C      1  0.5121570000000  0.4068930000000  0.5480980000000 1.0
C      1  0.5815310000000  0.4732020000000  0.5750810000000 1.0
C      1  0.4154110000000  0.4470690000000  0.4640890000000 1.0
C      1  0.5152670000000  0.4655150000000  0.5157240000000 1.0
C      1  0.5522880000000  0.4309870000000  0.4873530000000 1.0
C      1  0.4937960000000  0.6048360000000  0.5256370000000 1.0
C      1  0.4365140000000  0.5602160000000  0.4655120000000 1.0
C      1  0.4328650000000  0.4777690000000  0.5602630000000 1.0
C      1  0.4313090000000  0.4762850000000  0.5060290000000 1.0
C      1  0.4880760000000  0.4476870000000  0.5155890000000 1.0
C      1  0.4115540000000  0.5313750000000  0.4281770000000 1.0
C      1  0.4606890000000  0.4690210000000  0.5778240000000 1.0
C      1  0.4557920000000  0.4214370000000  0.5559220000000 1.0
C      1  0.3886680000000  0.4668500000000  0.4940950000000 1.0
C      1  0.5397320000000  0.4237020000000  0.4566050000000 1.0
C      1  0.3858150000000  0.4922890000000  0.4845010000000 1.0
C      1  0.5416340000000  0.4582220000000  0.5333320000000 1.0
C      1  0.4159880000000  0.4469880000000  0.4980930000000 1.0
C      1  0.4136430000000  0.4983410000000  0.5183390000000 1.0
C      1  0.4588530000000  0.4303100000000  0.5159440000000 1.0
C      1  0.5450830000000  0.5384430000000  0.5928230000000 1.0
C      1  0.4957170000000  0.3851440000000  0.5195120000000 1.0
C      1  0.5854820000000  0.5310800000000  0.4860580000000 1.0
C      1  0.4775930000000  0.5810520000000  0.5404470000000 1.0
C      1  0.5841680000000  0.4641860000000  0.4684530000000 1.0
C      1  0.5372060000000  0.4259100000000  0.5429670000000 1.0
C      1  0.5604280000000  0.4834980000000  0.4802490000000 1.0
C      1  0.4491890000000  0.6036710000000  0.4980660000000 1.0
C      1  0.5591480000000  0.5988830000000  0.4732880000000 1.0
C      1  0.5232940000000  0.4176450000000  0.4922410000000 1.0
C      1  0.5180130000000  0.4887610000000  0.4433940000000 1.0
C      1  0.4965050000000  0.5650190000000  0.4165220000000 1.0
C      1  0.4528500000000  0.5901010000000  0.4642430000000 1.0
C      1  0.5112750000000  0.5295400000000  0.4274120000000 1.0
C      1  0.5727280000000  0.5682400000000  0.4950820000000 1.0
C      1  0.4833280000000  0.4409050000000  0.4613250000000 1.0
C      1  0.5583210000000  0.5074250000000  0.4332150000000 1.0
C      1  0.5038670000000  0.5966520000000  0.4620280000000 1.0
C      1  0.5821350000000  0.5496750000000  0.5653860000000 1.0
C      1  0.5117750000000  0.4650110000000  0.4749400000000 1.0
C      1  0.5793590000000  0.5024870000000  0.4965750000000 1.0
C      1  0.5933360000000  0.4865740000000  0.4489780000000 1.0
C      1  0.4540940000000  0.4254990000000  0.4636040000000 1.0
C      1  0.4211710000000  0.4774390000000  0.4734340000000 1.0
C      1  0.5325250000000  0.4628580000000  0.4533610000000 1.0
C      1  0.4959570000000  0.5227600000000  0.5573420000000 1.0
C      1  0.5723510000000  0.4170450000000  0.5061450000000 1.0
C      1  0.4331240000000  0.4107450000000  0.5251320000000 1.0
C      1  0.5386480000000  0.5306470000000  0.5542150000000 1.0
C      1  0.4506450000000  0.5814550000000  0.4339410000000 1.0
C      1  0.5423220000000  0.5820690000000  0.5348410000000 1.0
C      1  0.5310370000000  0.4744760000000  0.4086370000000 1.0
C      1  0.5445870000000  0.5003550000000  0.4601990000000 1.0
C      1  0.4119360000000  0.4374840000000  0.5749590000000 1.0
C      1  0.4959540000000  0.4915840000000  0.4793150000000 1.0
C      1  0.4181470000000  0.5321650000000  0.5486310000000 1.0
C      1  0.4535770000000  0.5107700000000  0.5219520000000 1.0
C      1  0.4321700000000  0.4452670000000  0.5502660000000 1.0
C      1  0.4955500000000  0.5725240000000  0.4927330000000 1.0
C      1  0.5555820000000  0.5445060000000  0.5334930000000 1.0
C      1  0.4545740000000  0.5368120000000  0.4486440000000 1.0
C      1  0.4823290000000  0.5002480000000  0.3713060000000 1.0
C      1  0.5558300000000  0.5837340000000  0.4501870000000 1.0
C      1  0.4375740000000  0.5240390000000  0.4239730000000 1.0
C      1  0.4808690000000  0.6152100000000  0.5024600000000 1.0
C      1  0.4615650000000  0.4665670000000  0.4115410000000 1.0
C      1  0.5011720000000  0.5049250000000  0.5994770000000 1.0
C      1  0.5312650000000  0.4808040000000  0.5565630000000 1.0
C      1  0.4523980000000  0.4613770000000  0.5281790000000 1.0
C      1  0.4388200000000  0.4569150000000  0.4441790000000 1.0
C      1  0.5309600000000  0.5048380000000  0.5401760000000 1.0
C      1  0.4921000000000  0.5503900000000  0.5378880000000 1.0
C      1  0.5007300000000  0.5053930000000  0.5293700000000 1.0
C      1  0.4685100000000  0.5781290000000  0.5098130000000 1.0
C      1  0.5062710000000  0.5912290000000  0.4349180000000 1.0
C      1  0.4800220000000  0.5333030000000  0.4652510000000 1.0
C      1  0.4071690000000  0.4895730000000  0.5450430000000 1.0
C      1  0.4339050000000  0.5147620000000  0.4964390000000 1.0
C      1  0.3905030000000  0.4992160000000  0.4577310000000 1.0
C      1  0.4204980000000  0.4931950000000  0.4458590000000 1.0
C      1  0.5137440000000  0.5307200000000  0.5853820000000 1.0
C      1  0.4675770000000  0.5047910000000  0.5942410000000 1.0
C      1  0.5015420000000  0.4394130000000  0.4888030000000 1.0
C      1  0.5578110000000  0.5599680000000  0.4249480000000 1.0
C      1  0.3944340000000  0.5187050000000  0.4990320000000 1.0
C      1  0.4427470000000  0.5096180000000  0.4644690000000 1.0
C      1  0.4931990000000  0.4120720000000  0.5665450000000 1.0
C      1  0.5899580000000  0.5735820000000  0.4682020000000 1.0
C      1  0.5088250000000  0.4553820000000  0.5557750000000 1.0
C      1  0.5753010000000  0.5668490000000  0.5400080000000 1.0
C      1  0.5897110000000  0.5133940000000  0.4572020000000 1.0
C      1  0.5237020000000  0.3989110000000  0.5170860000000 1.0
C      1  0.5513840000000  0.5448950000000  0.5075500000000 1.0
C      1  0.4694390000000  0.4721370000000  0.4882190000000 1.0
C      1  0.4083270000000  0.5377150000000  0.5209320000000 1.0
C      1  0.4409590000000  0.5094670000000  0.5509970000000 1.0
C      1  0.4783130000000  0.5439790000000  0.4916800000000 1.0
C      1  0.4165070000000  0.5382030000000  0.4820150000000 1.0
C      1  0.4662170000000  0.5581370000000  0.4254760000000 1.0
C      1  0.4133370000000  0.4328390000000  0.5248220000000 1.0
C      1  0.5801430000000  0.4665320000000  0.5270090000000 1.0
C      1  0.5514780000000  0.4992090000000  0.5157630000000 1.0
C      1  0.5649650000000  0.4767800000000  0.4085330000000 1.0
C      1  0.4508510000000  0.4995060000000  0.4118980000000 1.0
C      1  0.4640810000000  0.5395450000000  0.5205820000000 1.0
C      1  0.4838330000000  0.4686450000000  0.4443410000000 1.0
C      1  0.4560070000000  0.4328890000000  0.4322940000000 1.0
C      1  0.5622040000000  0.4485360000000  0.4528110000000 1.0
C      1  0.5904770000000  0.5488750000000  0.5146830000000 1.0
C      1  0.5094700000000  0.4108650000000  0.4618890000000 1.0
C      1  0.5270760000000  0.5297080000000  0.4994880000000 1.0
C      1  0.4904860000000  0.4745590000000  0.6056780000000 1.0
C      1  0.5969940000000  0.4605950000000  0.4980470000000 1.0
C      1  0.4808790000000  0.4932760000000  0.5651460000000 1.0
C      1  0.5200320000000  0.4966010000000  0.5027930000000 1.0
C      1  0.5269770000000  0.4887340000000  0.5890430000000 1.0
C      1  0.5406700000000  0.5311790000000  0.4189670000000 1.0
C      1  0.5470720000000  0.5035820000000  0.4012900000000 1.0
C      1  0.4755570000000  0.4389170000000  0.5713060000000 1.0
END
