TITL C-2848498-1409-505 3.84162149260449 125000 -235.786525369152 0 0 48 (C1) n - 1
REM
REM in /home/bkarasulu/work/CARBON/AIRSS/Generating-Clusters/AIREBO/with-SteepDescent/Only-C1/SD-CG-opt/Try1-1.4A-POS3A/HFTN-CG
REM
REM
REM
REM
REM
REM ./C.cell (11c1c37f851c82e70ff6c80c92926a4b)
REM
REM compiler GCC version 9.2.1 20190827 (Red Hat 9.2.1-1)
REM options -cpp -mtune=generic -march=x86-64 -g -O0 -fpre-include=/usr/include/finclude/math-vector-fortran.h
REM seed -1406248078 -634728292 1029399442 -22047866 501291668 1569045944 -1175102293 -1511735323 735199874 -1020868700 1588476295 -1741461233 565908297 1128473286 1346192488 1571707993 -469047078 -1649337249 -2123311012 776955184 -1592684695 1951597287 -624708967 -1877419423 -1456659482 -1987395135 -514836923 951423852 -4581951 992122800 -1419332602 -408541969 369411972
REM
CELL 1.54180   50.00000   50.00000   50.00000   90.00000   90.00000   90.00000
LATT -1
SFAC C  
C      1  0.4394100000000  0.5182490000000  0.4713290000000 1.0
C      1  0.5357980000000  0.4482580000000  0.4750230000000 1.0
C      1  0.5200990000000  0.5530180000000  0.5290000000000 1.0
C      1  0.5014670000000  0.4974920000000  0.5210310000000 1.0
C      1  0.4723610000000  0.5399980000000  0.4667480000000 1.0
C      1  0.5422830000000  0.5163920000000  0.4992310000000 1.0
C      1  0.4553780000000  0.5460320000000  0.5147380000000 1.0
C      1  0.4953000000000  0.4625870000000  0.4634850000000 1.0
C      1  0.5341790000000  0.5153150000000  0.5741650000000 1.0
C      1  0.5066780000000  0.5653750000000  0.5023870000000 1.0
C      1  0.5099320000000  0.4317300000000  0.4589550000000 1.0
C      1  0.5064470000000  0.4638510000000  0.5229120000000 1.0
C      1  0.4756560000000  0.4800930000000  0.4460660000000 1.0
C      1  0.4724530000000  0.5224650000000  0.5323520000000 1.0
C      1  0.5153860000000  0.5077740000000  0.4424890000000 1.0
C      1  0.5085880000000  0.4383560000000  0.4922770000000 1.0
C      1  0.5378090000000  0.4669260000000  0.5101430000000 1.0
C      1  0.5713990000000  0.4969130000000  0.4958750000000 1.0
C      1  0.5242530000000  0.5311110000000  0.4540960000000 1.0
C      1  0.4856000000000  0.4628950000000  0.4952100000000 1.0
C      1  0.5018370000000  0.5505630000000  0.4656090000000 1.0
C      1  0.5352060000000  0.4873250000000  0.4830660000000 1.0
C      1  0.5413310000000  0.5362790000000  0.5273860000000 1.0
C      1  0.5015300000000  0.4302050000000  0.5236570000000 1.0
C      1  0.4899050000000  0.5052190000000  0.4313450000000 1.0
C      1  0.4871100000000  0.5136830000000  0.5609370000000 1.0
C      1  0.5618240000000  0.4664650000000  0.4867230000000 1.0
C      1  0.4639220000000  0.5097010000000  0.4932930000000 1.0
C      1  0.4600400000000  0.4775430000000  0.4986470000000 1.0
C      1  0.4584940000000  0.4716210000000  0.5487580000000 1.0
C      1  0.4864150000000  0.5530410000000  0.5270760000000 1.0
C      1  0.4500080000000  0.5464660000000  0.4871510000000 1.0
C      1  0.4561760000000  0.4928110000000  0.5286330000000 1.0
C      1  0.4660650000000  0.5119020000000  0.4522650000000 1.0
C      1  0.5104190000000  0.4994390000000  0.5693170000000 1.0
C      1  0.5350770000000  0.4968060000000  0.5261360000000 1.0
C      1  0.5210930000000  0.4831440000000  0.4581180000000 1.0
C      1  0.5200820000000  0.4790780000000  0.5509880000000 1.0
C      1  0.4348690000000  0.5121020000000  0.5104480000000 1.0
C      1  0.5136840000000  0.5335800000000  0.4925810000000 1.0
C      1  0.4842220000000  0.4506470000000  0.5450130000000 1.0
C      1  0.5476700000000  0.5303540000000  0.4686960000000 1.0
C      1  0.5283490000000  0.4550620000000  0.4424470000000 1.0
C      1  0.4352140000000  0.4856470000000  0.4804790000000 1.0
C      1  0.5481020000000  0.5178190000000  0.5494870000000 1.0
C      1  0.4552730000000  0.4423930000000  0.5608960000000 1.0
C      1  0.5050620000000  0.5774560000000  0.4595520000000 1.0
C      1  0.4905460000000  0.5188190000000  0.5037860000000 1.0
END
