TITL C-2848507-1641-647 0.00191297928169307 125000 -955.526045399452 0 0 180 (C1) n - 1
REM
REM in /home/bkarasulu/work/CARBON/AIRSS/Generating-Clusters/AIREBO/with-SteepDescent/Only-C1/SD-CG-opt/Try1-1.4A-POS3A/HFTN-CG
REM
REM
REM
REM
REM
REM ./C.cell (11c1c37f851c82e70ff6c80c92926a4b)
REM
REM compiler GCC version 9.2.1 20190827 (Red Hat 9.2.1-1)
REM options -cpp -mtune=generic -march=x86-64 -g -O0 -fpre-include=/usr/include/finclude/math-vector-fortran.h
REM seed 754428079 -1042334543 -679186873 -662671860 942790443 -494200926 1062901192 488980486 -50930137 14191536 402038145 -305029381 1701299172 388107152 -303866260 279395935 -370652866 -399278188 1358621762 -1625490316 -1499681061 -307776040 1571524582 1066686878 -1114465280 496629844 1896053258 199065355 -1540119879 -888048482 -1070036976 779436737 172120459
REM
CELL 1.54180   50.00000   50.00000   50.00000   90.00000   90.00000   90.00000
LATT -1
SFAC C  
C      1  0.4987540000000  0.4694390000000  0.5134910000000 1.0
C      1  0.5226140000000  0.4157050000000  0.5748790000000 1.0
C      1  0.5133500000000  0.5599310000000  0.4888610000000 1.0
C      1  0.4974100000000  0.4174190000000  0.5059370000000 1.0
C      1  0.5062720000000  0.5312820000000  0.5200090000000 1.0
C      1  0.5455510000000  0.4800730000000  0.4263610000000 1.0
C      1  0.4719310000000  0.6167230000000  0.4566790000000 1.0
C      1  0.4908590000000  0.5023920000000  0.5107000000000 1.0
C      1  0.5298740000000  0.4980830000000  0.5228250000000 1.0
C      1  0.4606860000000  0.4542710000000  0.4578600000000 1.0
C      1  0.4821570000000  0.4431010000000  0.4049110000000 1.0
C      1  0.4551480000000  0.4509550000000  0.5229230000000 1.0
C      1  0.3938360000000  0.4858030000000  0.4945630000000 1.0
C      1  0.5579870000000  0.4560680000000  0.5780780000000 1.0
C      1  0.5337430000000  0.5215240000000  0.5627610000000 1.0
C      1  0.4072310000000  0.5163660000000  0.5710180000000 1.0
C      1  0.5550310000000  0.5953060000000  0.4881880000000 1.0
C      1  0.4204230000000  0.5008090000000  0.4818300000000 1.0
C      1  0.5317800000000  0.4770700000000  0.6319280000000 1.0
C      1  0.4147480000000  0.4755820000000  0.5478200000000 1.0
C      1  0.5455090000000  0.5541170000000  0.4938360000000 1.0
C      1  0.4795330000000  0.4371000000000  0.5825220000000 1.0
C      1  0.4951700000000  0.6074800000000  0.5365330000000 1.0
C      1  0.5280290000000  0.5937050000000  0.5652900000000 1.0
C      1  0.4625360000000  0.5986150000000  0.5329900000000 1.0
C      1  0.5533230000000  0.4804000000000  0.5374190000000 1.0
C      1  0.4542940000000  0.4975840000000  0.5507280000000 1.0
C      1  0.5132560000000  0.4989470000000  0.4122350000000 1.0
C      1  0.4320970000000  0.5665950000000  0.4514770000000 1.0
C      1  0.4986680000000  0.4221710000000  0.5358550000000 1.0
C      1  0.4290930000000  0.5017540000000  0.5836550000000 1.0
C      1  0.4947990000000  0.4913650000000  0.5807570000000 1.0
C      1  0.4710800000000  0.4838600000000  0.4709970000000 1.0
C      1  0.5660490000000  0.5155680000000  0.5085920000000 1.0
C      1  0.4255560000000  0.4748360000000  0.5737400000000 1.0
C      1  0.4978360000000  0.4293390000000  0.4622750000000 1.0
C      1  0.4814410000000  0.3905030000000  0.4814180000000 1.0
C      1  0.4288920000000  0.5360600000000  0.4496750000000 1.0
C      1  0.5050070000000  0.5419350000000  0.5980070000000 1.0
C      1  0.5429440000000  0.4396180000000  0.4796510000000 1.0
C      1  0.5539690000000  0.5657730000000  0.4240850000000 1.0
C      1  0.4667190000000  0.5923270000000  0.4751090000000 1.0
C      1  0.4690550000000  0.3984770000000  0.5478870000000 1.0
C      1  0.5483240000000  0.4288180000000  0.5253290000000 1.0
C      1  0.5532340000000  0.5264410000000  0.4005690000000 1.0
C      1  0.4440920000000  0.4018710000000  0.5159150000000 1.0
C      1  0.5078070000000  0.3971830000000  0.4609620000000 1.0
C      1  0.5660810000000  0.5443490000000  0.5812330000000 1.0
C      1  0.5545030000000  0.5572070000000  0.3969980000000 1.0
C      1  0.5671500000000  0.5823020000000  0.5272970000000 1.0
C      1  0.5014620000000  0.4495160000000  0.5647780000000 1.0
C      1  0.4980030000000  0.6203860000000  0.4488870000000 1.0
C      1  0.5476630000000  0.5294410000000  0.4600550000000 1.0
C      1  0.4795880000000  0.5402870000000  0.5369510000000 1.0
C      1  0.5272150000000  0.4631590000000  0.5507320000000 1.0
C      1  0.4788460000000  0.5723160000000  0.5448230000000 1.0
C      1  0.4652590000000  0.4789280000000  0.5752760000000 1.0
C      1  0.5513820000000  0.4934380000000  0.4011300000000 1.0
C      1  0.4975360000000  0.4186440000000  0.4128050000000 1.0
C      1  0.5089450000000  0.5270310000000  0.4785120000000 1.0
C      1  0.3984580000000  0.4721100000000  0.4209040000000 1.0
C      1  0.5160250000000  0.4749500000000  0.3985040000000 1.0
C      1  0.5202500000000  0.5478470000000  0.5458960000000 1.0
C      1  0.5929110000000  0.5560750000000  0.4581530000000 1.0
C      1  0.4316300000000  0.5588690000000  0.5600220000000 1.0
C      1  0.4170080000000  0.4774290000000  0.4483680000000 1.0
C      1  0.4851290000000  0.4725730000000  0.6218580000000 1.0
C      1  0.4424450000000  0.5034710000000  0.5193300000000 1.0
C      1  0.4763680000000  0.3954940000000  0.5155430000000 1.0
C      1  0.4887690000000  0.5186200000000  0.6001730000000 1.0
C      1  0.4926780000000  0.4457220000000  0.4898780000000 1.0
C      1  0.5834450000000  0.5264640000000  0.5347460000000 1.0
C      1  0.5278040000000  0.5207400000000  0.4183480000000 1.0
C      1  0.5615400000000  0.4890390000000  0.5686730000000 1.0
C      1  0.5935680000000  0.4781810000000  0.5686770000000 1.0
C      1  0.5665100000000  0.4188340000000  0.4666210000000 1.0
C      1  0.4762600000000  0.5658920000000  0.5840750000000 1.0
C      1  0.4414090000000  0.4259300000000  0.5368230000000 1.0
C      1  0.5155210000000  0.5584230000000  0.5778610000000 1.0
C      1  0.4959810000000  0.4025810000000  0.5642680000000 1.0
C      1  0.5693790000000  0.4570090000000  0.4558240000000 1.0
C      1  0.5432300000000  0.5630130000000  0.4624640000000 1.0
C      1  0.5418220000000  0.4792090000000  0.4971820000000 1.0
C      1  0.4887550000000  0.4693950000000  0.3918430000000 1.0
C      1  0.4966940000000  0.5856190000000  0.5699930000000 1.0
C      1  0.5731770000000  0.5743760000000  0.4734000000000 1.0
C      1  0.5262710000000  0.4539070000000  0.4198570000000 1.0
C      1  0.4228970000000  0.5303480000000  0.5111550000000 1.0
C      1  0.4924490000000  0.4929270000000  0.4350200000000 1.0
C      1  0.5236370000000  0.5917000000000  0.4821230000000 1.0
C      1  0.5772060000000  0.4194700000000  0.5413940000000 1.0
C      1  0.5010750000000  0.5611700000000  0.4354900000000 1.0
C      1  0.4584670000000  0.5179790000000  0.5847150000000 1.0
C      1  0.4757900000000  0.5418710000000  0.5705070000000 1.0
C      1  0.4037130000000  0.5072260000000  0.4388040000000 1.0
C      1  0.4809080000000  0.4153310000000  0.4376510000000 1.0
C      1  0.4515670000000  0.5393150000000  0.4155030000000 1.0
C      1  0.4148570000000  0.5273870000000  0.5403250000000 1.0
C      1  0.5101310000000  0.6069430000000  0.5071160000000 1.0
C      1  0.4405310000000  0.5810930000000  0.5520940000000 1.0
C      1  0.3958770000000  0.4999150000000  0.5430720000000 1.0
C      1  0.4767970000000  0.5198480000000  0.4090250000000 1.0
C      1  0.5405710000000  0.5962370000000  0.5178560000000 1.0
C      1  0.5704760000000  0.4545560000000  0.5234550000000 1.0
C      1  0.4438170000000  0.4525580000000  0.5766960000000 1.0
C      1  0.5907420000000  0.5374480000000  0.5032610000000 1.0
C      1  0.4566020000000  0.4290510000000  0.4385770000000 1.0
C      1  0.4475910000000  0.4903460000000  0.4479510000000 1.0
C      1  0.4848750000000  0.4507640000000  0.5350960000000 1.0
C      1  0.4224750000000  0.4098150000000  0.4904030000000 1.0
C      1  0.5169080000000  0.5329710000000  0.4459860000000 1.0
C      1  0.4559220000000  0.4110460000000  0.4853800000000 1.0
C      1  0.6022390000000  0.4617720000000  0.5180750000000 1.0
C      1  0.5096650000000  0.4926430000000  0.6113190000000 1.0
C      1  0.4754410000000  0.4657070000000  0.4294320000000 1.0
C      1  0.4426540000000  0.5273730000000  0.5561050000000 1.0
C      1  0.5288670000000  0.4557670000000  0.5181480000000 1.0
C      1  0.4632390000000  0.5027380000000  0.4969910000000 1.0
C      1  0.5337640000000  0.5236170000000  0.5015230000000 1.0
C      1  0.4101190000000  0.4659500000000  0.4757170000000 1.0
C      1  0.5510560000000  0.4316450000000  0.4417580000000 1.0
C      1  0.5706720000000  0.5448080000000  0.4402190000000 1.0
C      1  0.5411290000000  0.4694510000000  0.6033910000000 1.0
C      1  0.4341540000000  0.4730610000000  0.5272530000000 1.0
C      1  0.4851060000000  0.4953430000000  0.5406520000000 1.0
C      1  0.4482090000000  0.5164920000000  0.4696820000000 1.0
C      1  0.5949250000000  0.5085310000000  0.4625010000000 1.0
C      1  0.5347530000000  0.4989310000000  0.5881530000000 1.0
C      1  0.4029250000000  0.5242900000000  0.4657450000000 1.0
C      1  0.4541370000000  0.4233360000000  0.5656740000000 1.0
C      1  0.3806700000000  0.4931940000000  0.5167220000000 1.0
C      1  0.5182810000000  0.4020160000000  0.4913460000000 1.0
C      1  0.5187130000000  0.4638190000000  0.4775470000000 1.0
C      1  0.5409830000000  0.4268590000000  0.4096390000000 1.0
C      1  0.5707690000000  0.4898290000000  0.4469840000000 1.0
C      1  0.5227580000000  0.4138770000000  0.4353590000000 1.0
C      1  0.4553730000000  0.5608290000000  0.4328120000000 1.0
C      1  0.4701100000000  0.5467360000000  0.5047290000000 1.0
C      1  0.5732090000000  0.5161610000000  0.4256000000000 1.0
C      1  0.5279880000000  0.4167540000000  0.5454540000000 1.0
C      1  0.4931810000000  0.5699170000000  0.5140670000000 1.0
C      1  0.4235390000000  0.5255120000000  0.4178710000000 1.0
C      1  0.5677210000000  0.5215850000000  0.5614700000000 1.0
C      1  0.4397940000000  0.5769560000000  0.4775680000000 1.0
C      1  0.5725510000000  0.5717550000000  0.5525170000000 1.0
C      1  0.5918260000000  0.5523650000000  0.5518480000000 1.0
C      1  0.5029350000000  0.4936960000000  0.4735950000000 1.0
C      1  0.4153310000000  0.4293770000000  0.5172500000000 1.0
C      1  0.6016720000000  0.5345230000000  0.4746630000000 1.0
C      1  0.5729140000000  0.5636100000000  0.5047470000000 1.0
C      1  0.5030100000000  0.4484730000000  0.4386110000000 1.0
C      1  0.6060180000000  0.4800420000000  0.5013780000000 1.0
C      1  0.5277490000000  0.5772110000000  0.4396430000000 1.0
C      1  0.5216660000000  0.4823160000000  0.4475950000000 1.0
C      1  0.4763780000000  0.5352550000000  0.4732070000000 1.0
C      1  0.5680050000000  0.4588080000000  0.4897880000000 1.0
C      1  0.4208150000000  0.4931580000000  0.4119090000000 1.0
C      1  0.4586800000000  0.4446720000000  0.4896070000000 1.0
C      1  0.5277990000000  0.4440630000000  0.5856250000000 1.0
C      1  0.5170050000000  0.5802830000000  0.5360460000000 1.0
C      1  0.5435050000000  0.4138720000000  0.4982360000000 1.0
C      1  0.5174400000000  0.6027570000000  0.4537670000000 1.0
C      1  0.5473950000000  0.5687190000000  0.5717950000000 1.0
C      1  0.4845450000000  0.5233280000000  0.4419540000000 1.0
C      1  0.4767510000000  0.5652710000000  0.4572270000000 1.0
C      1  0.4734150000000  0.4592310000000  0.6017700000000 1.0
C      1  0.4204980000000  0.5809670000000  0.5044420000000 1.0
C      1  0.5802520000000  0.4497270000000  0.5556670000000 1.0
C      1  0.4402250000000  0.5542510000000  0.5031350000000 1.0
C      1  0.5531230000000  0.5011830000000  0.4737440000000 1.0
C      1  0.5966390000000  0.4669680000000  0.4391270000000 1.0
C      1  0.4714360000000  0.4912290000000  0.3989390000000 1.0
C      1  0.5150760000000  0.4946040000000  0.5536380000000 1.0
C      1  0.4477520000000  0.4805090000000  0.4163820000000 1.0
C      1  0.5876180000000  0.4057180000000  0.4724240000000 1.0
C      1  0.4243420000000  0.4436680000000  0.4877440000000 1.0
C      1  0.3991690000000  0.5320950000000  0.4942610000000 1.0
C      1  0.4892250000000  0.5514930000000  0.4100730000000 1.0
C      1  0.4779600000000  0.5970390000000  0.5023120000000 1.0
C      1  0.5828910000000  0.4958260000000  0.4892840000000 1.0
END
