TITL C-2847950-6905-189 -0.000355105450743219 125000 -370.074797222733 0 0 66 (C1) n - 1
REM
REM in /home/bkarasulu/work/CARBON/AIRSS/Generating-Clusters/AIREBO/with-SteepDescent/Only-C1/SD-CG-opt/Try1-1.4A-POS3A/HFTN-CG
REM
REM
REM
REM
REM
REM ./C.cell (11c1c37f851c82e70ff6c80c92926a4b)
REM
REM compiler GCC version 9.2.1 20190827 (Red Hat 9.2.1-1)
REM options -cpp -mtune=generic -march=x86-64 -g -O0 -fpre-include=/usr/include/finclude/math-vector-fortran.h
REM seed -545508423 436911983 219433339 1800456473 -540529940 -184556524 -2128166539 -1274321173 1966404984 1565529501 -776378079 -1212530507 1976543253 2146435791 -235494538 1741184674 -810531293 -1942206768 -956067246 -612615467 -2089572212 -828067464 16757446 1704635041 1248898400 -45862841 1119122332 1842309024 1456543199 -610253449 1357511265 -2093655130 891902765
REM
CELL 1.54180   50.00000   50.00000   50.00000   90.00000   90.00000   90.00000
LATT -1
SFAC C  
C      1  0.5340890000000  0.4311840000000  0.5898310000000 1.0
C      1  0.5108490000000  0.4407930000000  0.5072090000000 1.0
C      1  0.4661910000000  0.5447050000000  0.5070020000000 1.0
C      1  0.5187830000000  0.4833400000000  0.4382650000000 1.0
C      1  0.4556700000000  0.5067440000000  0.5136540000000 1.0
C      1  0.5301620000000  0.5631610000000  0.4774380000000 1.0
C      1  0.5087090000000  0.5369760000000  0.5352640000000 1.0
C      1  0.4862640000000  0.4860830000000  0.5282130000000 1.0
C      1  0.4558170000000  0.4578170000000  0.5555540000000 1.0
C      1  0.4837000000000  0.4580410000000  0.5137270000000 1.0
C      1  0.5278710000000  0.5151130000000  0.4301980000000 1.0
C      1  0.4749600000000  0.5454050000000  0.4223100000000 1.0
C      1  0.4462030000000  0.5323800000000  0.4670830000000 1.0
C      1  0.4955740000000  0.5463900000000  0.4015100000000 1.0
C      1  0.4517200000000  0.4252770000000  0.4879040000000 1.0
C      1  0.5150900000000  0.4900780000000  0.5170310000000 1.0
C      1  0.5246470000000  0.5386130000000  0.4545670000000 1.0
C      1  0.4909020000000  0.4341440000000  0.5340230000000 1.0
C      1  0.5407400000000  0.4449330000000  0.5685320000000 1.0
C      1  0.5491800000000  0.4610610000000  0.5477390000000 1.0
C      1  0.4253540000000  0.5231660000000  0.5532720000000 1.0
C      1  0.5186060000000  0.5216240000000  0.5065800000000 1.0
C      1  0.4195460000000  0.5220300000000  0.5068750000000 1.0
C      1  0.5405500000000  0.5544400000000  0.5010080000000 1.0
C      1  0.4762050000000  0.4371860000000  0.5566530000000 1.0
C      1  0.5208930000000  0.5420270000000  0.4150210000000 1.0
C      1  0.5512320000000  0.4960210000000  0.4814070000000 1.0
C      1  0.5013820000000  0.5587970000000  0.4389250000000 1.0
C      1  0.4406530000000  0.5381050000000  0.4940870000000 1.0
C      1  0.5733550000000  0.4564130000000  0.5341740000000 1.0
C      1  0.5394980000000  0.4477290000000  0.4902360000000 1.0
C      1  0.4669160000000  0.5216500000000  0.4346150000000 1.0
C      1  0.4423520000000  0.5024970000000  0.4546680000000 1.0
C      1  0.5447560000000  0.5088370000000  0.5496880000000 1.0
C      1  0.5179650000000  0.5322480000000  0.5848510000000 1.0
C      1  0.5177760000000  0.4901140000000  0.4829290000000 1.0
C      1  0.5106190000000  0.5361590000000  0.6097020000000 1.0
C      1  0.4998720000000  0.4693400000000  0.4628100000000 1.0
C      1  0.4561440000000  0.4510190000000  0.4976950000000 1.0
C      1  0.5638320000000  0.5196370000000  0.5311670000000 1.0
C      1  0.4095170000000  0.5316370000000  0.5319800000000 1.0
C      1  0.5010860000000  0.5665850000000  0.4707290000000 1.0
C      1  0.5350810000000  0.4840640000000  0.5397030000000 1.0
C      1  0.4830070000000  0.5205750000000  0.5241710000000 1.0
C      1  0.4269120000000  0.4907150000000  0.5099130000000 1.0
C      1  0.4772890000000  0.5184120000000  0.4657060000000 1.0
C      1  0.5813280000000  0.4622350000000  0.5078890000000 1.0
C      1  0.4651280000000  0.4844600000000  0.5508250000000 1.0
C      1  0.4820590000000  0.5645160000000  0.4922880000000 1.0
C      1  0.5586410000000  0.5384170000000  0.4554300000000 1.0
C      1  0.5513630000000  0.5228270000000  0.5023540000000 1.0
C      1  0.4320660000000  0.4529040000000  0.5400470000000 1.0
C      1  0.4613500000000  0.4897460000000  0.4321500000000 1.0
C      1  0.4589370000000  0.4983470000000  0.4834700000000 1.0
C      1  0.4460080000000  0.5057560000000  0.5462500000000 1.0
C      1  0.5258170000000  0.5607990000000  0.5230580000000 1.0
C      1  0.5597000000000  0.4663090000000  0.4905190000000 1.0
C      1  0.5129060000000  0.4425730000000  0.4734570000000 1.0
C      1  0.4323970000000  0.4632570000000  0.5132360000000 1.0
C      1  0.5473420000000  0.4935520000000  0.4477160000000 1.0
C      1  0.6070470000000  0.4648040000000  0.5004560000000 1.0
C      1  0.4701210000000  0.4709360000000  0.4787910000000 1.0
C      1  0.5710930000000  0.5193980000000  0.4667240000000 1.0
C      1  0.5239630000000  0.5260450000000  0.5589400000000 1.0
C      1  0.5061580000000  0.5201380000000  0.4748680000000 1.0
C      1  0.4790550000000  0.4697130000000  0.4359160000000 1.0
END
