TITL C-2847957-7266-690 -0.000869017717913853 125000 -642.789782835064 0 0 119 (C1) n - 1
REM
REM in /home/bkarasulu/work/CARBON/AIRSS/Generating-Clusters/AIREBO/with-SteepDescent/Only-C1/SD-CG-opt/Try1-1.4A-POS3A/HFTN-CG
REM
REM
REM
REM
REM
REM ./C.cell (11c1c37f851c82e70ff6c80c92926a4b)
REM
REM compiler GCC version 9.2.1 20190827 (Red Hat 9.2.1-1)
REM options -cpp -mtune=generic -march=x86-64 -g -O0 -fpre-include=/usr/include/finclude/math-vector-fortran.h
REM seed -94279570 -822057055 -1328910065 228170500 -999169546 -1814819218 780256379 -650093181 1360182666 -1747341114 -196973896 872583253 -257954079 -1152742307 1909053572 1691348014 1796667206 -1040457027 1039311839 -2015034725 -1031704142 -1899008146 -625182522 147421262 1371710564 -1715987306 2026062231 -1975838395 168168094 1738908482 -1151057162 -1019128482 1466246809
REM
CELL 1.54180   50.00000   50.00000   50.00000   90.00000   90.00000   90.00000
LATT -1
SFAC C  
C      1  0.5372410000000  0.4903170000000  0.4742020000000 1.0
C      1  0.4095530000000  0.5029900000000  0.4869710000000 1.0
C      1  0.4665040000000  0.5172320000000  0.5423620000000 1.0
C      1  0.5419000000000  0.5824000000000  0.5273160000000 1.0
C      1  0.4576900000000  0.4871120000000  0.5797320000000 1.0
C      1  0.5712950000000  0.5094630000000  0.4333570000000 1.0
C      1  0.5492290000000  0.4742650000000  0.6113940000000 1.0
C      1  0.4738550000000  0.4566210000000  0.5225730000000 1.0
C      1  0.5439350000000  0.4740590000000  0.5354610000000 1.0
C      1  0.4792220000000  0.5931450000000  0.5141910000000 1.0
C      1  0.4644790000000  0.4977810000000  0.4474040000000 1.0
C      1  0.5426150000000  0.4524390000000  0.4316130000000 1.0
C      1  0.5510440000000  0.5731190000000  0.5001760000000 1.0
C      1  0.5427910000000  0.4508130000000  0.4715220000000 1.0
C      1  0.4178460000000  0.5025870000000  0.5556210000000 1.0
C      1  0.5692940000000  0.4755270000000  0.4340950000000 1.0
C      1  0.4913570000000  0.5644720000000  0.4176960000000 1.0
C      1  0.4863630000000  0.4087640000000  0.5146140000000 1.0
C      1  0.4885800000000  0.3812990000000  0.5125860000000 1.0
C      1  0.5200020000000  0.5329420000000  0.5485300000000 1.0
C      1  0.4641520000000  0.4371340000000  0.4582200000000 1.0
C      1  0.4697070000000  0.5333250000000  0.5125700000000 1.0
C      1  0.5400960000000  0.4865410000000  0.4433190000000 1.0
C      1  0.5873420000000  0.5335670000000  0.5218790000000 1.0
C      1  0.4811750000000  0.4297630000000  0.5381370000000 1.0
C      1  0.5783030000000  0.5341830000000  0.5520280000000 1.0
C      1  0.5133320000000  0.4791770000000  0.5774390000000 1.0
C      1  0.4904730000000  0.5472330000000  0.4889120000000 1.0
C      1  0.4126760000000  0.4807560000000  0.4718380000000 1.0
C      1  0.5485800000000  0.5634290000000  0.5450710000000 1.0
C      1  0.5558770000000  0.5042690000000  0.4916720000000 1.0
C      1  0.5167840000000  0.5937500000000  0.5269130000000 1.0
C      1  0.4510850000000  0.4685230000000  0.4584530000000 1.0
C      1  0.5508840000000  0.4378440000000  0.5204280000000 1.0
C      1  0.4966170000000  0.4669440000000  0.5019380000000 1.0
C      1  0.4447810000000  0.4720950000000  0.5140870000000 1.0
C      1  0.4722290000000  0.4884640000000  0.5298180000000 1.0
C      1  0.5093060000000  0.5048470000000  0.4698150000000 1.0
C      1  0.5155100000000  0.4724840000000  0.4271600000000 1.0
C      1  0.4498710000000  0.4113580000000  0.4642560000000 1.0
C      1  0.4536190000000  0.5236850000000  0.4661780000000 1.0
C      1  0.5150440000000  0.4657390000000  0.4664850000000 1.0
C      1  0.5011730000000  0.4980970000000  0.5445000000000 1.0
C      1  0.4372670000000  0.3896160000000  0.4687010000000 1.0
C      1  0.4318230000000  0.5471380000000  0.4776530000000 1.0
C      1  0.5079660000000  0.5325100000000  0.4649580000000 1.0
C      1  0.5255920000000  0.4250260000000  0.4773450000000 1.0
C      1  0.4780130000000  0.5427150000000  0.4580760000000 1.0
C      1  0.4211310000000  0.4295720000000  0.4852070000000 1.0
C      1  0.4294170000000  0.5014130000000  0.5093650000000 1.0
C      1  0.5530560000000  0.5289330000000  0.4266190000000 1.0
C      1  0.5775600000000  0.5556830000000  0.5059960000000 1.0
C      1  0.4409100000000  0.5617610000000  0.5014180000000 1.0
C      1  0.5129880000000  0.5123370000000  0.5728990000000 1.0
C      1  0.4050350000000  0.5285390000000  0.4789620000000 1.0
C      1  0.4838270000000  0.5660680000000  0.5652780000000 1.0
C      1  0.4276310000000  0.5328240000000  0.4462440000000 1.0
C      1  0.4881110000000  0.4687890000000  0.4143020000000 1.0
C      1  0.5338940000000  0.5015370000000  0.5409490000000 1.0
C      1  0.5006510000000  0.4292210000000  0.5710390000000 1.0
C      1  0.5460630000000  0.5304240000000  0.5029880000000 1.0
C      1  0.5061770000000  0.4967610000000  0.4985520000000 1.0
C      1  0.5077790000000  0.5491800000000  0.5246950000000 1.0
C      1  0.4187850000000  0.4598770000000  0.4496930000000 1.0
C      1  0.4745970000000  0.4500930000000  0.5627840000000 1.0
C      1  0.4942250000000  0.4868610000000  0.4494450000000 1.0
C      1  0.5829380000000  0.4724870000000  0.4637690000000 1.0
C      1  0.4988070000000  0.5168950000000  0.5188600000000 1.0
C      1  0.4250370000000  0.5175600000000  0.5338780000000 1.0
C      1  0.4762800000000  0.4393370000000  0.4265310000000 1.0
C      1  0.5797830000000  0.4370740000000  0.5689740000000 1.0
C      1  0.5695980000000  0.4546410000000  0.5066070000000 1.0
C      1  0.4941750000000  0.5738380000000  0.5379430000000 1.0
C      1  0.5009800000000  0.4312410000000  0.4464590000000 1.0
C      1  0.4758330000000  0.5440300000000  0.4278560000000 1.0
C      1  0.5861860000000  0.5003230000000  0.4790150000000 1.0
C      1  0.5294020000000  0.5457190000000  0.5866710000000 1.0
C      1  0.5295480000000  0.4265710000000  0.4435860000000 1.0
C      1  0.4574090000000  0.5071420000000  0.4946930000000 1.0
C      1  0.4320680000000  0.4817750000000  0.5686580000000 1.0
C      1  0.5528680000000  0.5467780000000  0.5707530000000 1.0
C      1  0.4857580000000  0.4913120000000  0.5916100000000 1.0
C      1  0.5232760000000  0.5701080000000  0.4647170000000 1.0
C      1  0.4386380000000  0.5633170000000  0.5514500000000 1.0
C      1  0.5495030000000  0.5310070000000  0.5342320000000 1.0
C      1  0.5557610000000  0.4608960000000  0.5641370000000 1.0
C      1  0.5457010000000  0.5556000000000  0.4133710000000 1.0
C      1  0.5402040000000  0.4703310000000  0.5873200000000 1.0
C      1  0.4538630000000  0.5853290000000  0.5052080000000 1.0
C      1  0.5905900000000  0.5080540000000  0.5108970000000 1.0
C      1  0.4120630000000  0.4332740000000  0.4578380000000 1.0
C      1  0.5699650000000  0.6109130000000  0.4703830000000 1.0
C      1  0.4916260000000  0.4459140000000  0.4756730000000 1.0
C      1  0.5206160000000  0.4533170000000  0.5218520000000 1.0
C      1  0.5232350000000  0.5542750000000  0.4948220000000 1.0
C      1  0.4371430000000  0.4448690000000  0.5329650000000 1.0
C      1  0.4575560000000  0.5710500000000  0.5693410000000 1.0
C      1  0.5686160000000  0.4539790000000  0.4790540000000 1.0
C      1  0.4409340000000  0.5439350000000  0.5272990000000 1.0
C      1  0.4736040000000  0.5168530000000  0.5727370000000 1.0
C      1  0.5199820000000  0.5999760000000  0.4771630000000 1.0
C      1  0.5588550000000  0.4327190000000  0.5462920000000 1.0
C      1  0.4644060000000  0.5170850000000  0.4194030000000 1.0
C      1  0.5305910000000  0.5422400000000  0.4473540000000 1.0
C      1  0.5496900000000  0.5957800000000  0.4801880000000 1.0
C      1  0.4342000000000  0.4594170000000  0.4865370000000 1.0
C      1  0.4703520000000  0.4794280000000  0.4842790000000 1.0
C      1  0.4434090000000  0.4908960000000  0.4139690000000 1.0
C      1  0.4545150000000  0.4212560000000  0.5212880000000 1.0
C      1  0.4560640000000  0.4665340000000  0.4242090000000 1.0
C      1  0.4443330000000  0.4554650000000  0.5592410000000 1.0
C      1  0.4964180000000  0.5412580000000  0.5796510000000 1.0
C      1  0.5193900000000  0.5686960000000  0.4306280000000 1.0
C      1  0.5050770000000  0.6047190000000  0.5004890000000 1.0
C      1  0.5124480000000  0.4259580000000  0.5033550000000 1.0
C      1  0.5902230000000  0.5163560000000  0.4525360000000 1.0
C      1  0.5674790000000  0.4841200000000  0.5154950000000 1.0
C      1  0.4805920000000  0.4942760000000  0.4000550000000 1.0
C      1  0.5065050000000  0.4566530000000  0.5530090000000 1.0
END
