TITL C-2848496-4490-685 0.00209308109351301 125000 -969.612360631066 0 0 173 (C1) n - 1
REM
REM in /home/bkarasulu/work/CARBON/AIRSS/Generating-Clusters/AIREBO/with-SteepDescent/Only-C1/SD-CG-opt/Try1-1.4A-POS3A/HFTN-CG
REM
REM
REM
REM
REM
REM ./C.cell (11c1c37f851c82e70ff6c80c92926a4b)
REM
REM compiler GCC version 9.2.1 20190827 (Red Hat 9.2.1-1)
REM options -cpp -mtune=generic -march=x86-64 -g -O0 -fpre-include=/usr/include/finclude/math-vector-fortran.h
REM seed -879795590 1135139635 744477741 -2118372890 -1110935359 1908173658 -442570201 394875299 1570011011 1323852198 1579664308 -628715033 1418322268 15242223 1309257108 1760530025 871828902 -1515795157 -934900921 1064200794 852155692 1069171793 -11642319 1613859492 -211222359 609681438 -1267909504 -349422050 -1762052868 1851165652 -257907074 962172885 -2111802391
REM
CELL 1.54180   50.00000   50.00000   50.00000   90.00000   90.00000   90.00000
LATT -1
SFAC C  
C      1  0.5232320000000  0.5888140000000  0.5849910000000 1.0
C      1  0.4509680000000  0.4465530000000  0.4251510000000 1.0
C      1  0.4960340000000  0.4753450000000  0.6020120000000 1.0
C      1  0.5520340000000  0.4332800000000  0.5272970000000 1.0
C      1  0.5278890000000  0.4211760000000  0.5689710000000 1.0
C      1  0.6103340000000  0.4782430000000  0.5548020000000 1.0
C      1  0.4943000000000  0.6047870000000  0.4947910000000 1.0
C      1  0.5120390000000  0.5710170000000  0.4841600000000 1.0
C      1  0.4943630000000  0.4753850000000  0.5143910000000 1.0
C      1  0.5922080000000  0.5754060000000  0.4479210000000 1.0
C      1  0.4807920000000  0.4150580000000  0.4668310000000 1.0
C      1  0.5773240000000  0.5055040000000  0.4211680000000 1.0
C      1  0.4580840000000  0.5256880000000  0.5345670000000 1.0
C      1  0.4442560000000  0.6062030000000  0.5285970000000 1.0
C      1  0.4471750000000  0.5899120000000  0.5793150000000 1.0
C      1  0.4814250000000  0.4828660000000  0.4252090000000 1.0
C      1  0.5285790000000  0.4422530000000  0.5890850000000 1.0
C      1  0.5255080000000  0.5795010000000  0.4451770000000 1.0
C      1  0.5172640000000  0.5009240000000  0.6044680000000 1.0
C      1  0.4584190000000  0.4886610000000  0.5993090000000 1.0
C      1  0.4438760000000  0.5990200000000  0.5029320000000 1.0
C      1  0.6008960000000  0.4693870000000  0.4906430000000 1.0
C      1  0.4081710000000  0.4730130000000  0.4349740000000 1.0
C      1  0.5224300000000  0.5712540000000  0.5342520000000 1.0
C      1  0.5456240000000  0.4889170000000  0.4635600000000 1.0
C      1  0.5549890000000  0.5405490000000  0.5867480000000 1.0
C      1  0.5614420000000  0.5965310000000  0.5141020000000 1.0
C      1  0.4439540000000  0.5010280000000  0.4895610000000 1.0
C      1  0.4847090000000  0.5156830000000  0.4249100000000 1.0
C      1  0.5089650000000  0.3966930000000  0.4631090000000 1.0
C      1  0.4633880000000  0.5520450000000  0.4583160000000 1.0
C      1  0.4634170000000  0.5230840000000  0.4472500000000 1.0
C      1  0.4493920000000  0.5306040000000  0.5034680000000 1.0
C      1  0.5357840000000  0.4283680000000  0.4198010000000 1.0
C      1  0.5766370000000  0.4590370000000  0.4377920000000 1.0
C      1  0.5528090000000  0.5666570000000  0.5194660000000 1.0
C      1  0.5305520000000  0.5051350000000  0.5517330000000 1.0
C      1  0.4349170000000  0.4790040000000  0.5576080000000 1.0
C      1  0.4981730000000  0.5239810000000  0.5092270000000 1.0
C      1  0.5146630000000  0.5005500000000  0.4557780000000 1.0
C      1  0.5370740000000  0.5363560000000  0.5605430000000 1.0
C      1  0.5910010000000  0.5072590000000  0.4829110000000 1.0
C      1  0.4380420000000  0.5747070000000  0.4587340000000 1.0
C      1  0.4646220000000  0.5013080000000  0.3740470000000 1.0
C      1  0.5343700000000  0.4086270000000  0.4474880000000 1.0
C      1  0.5419060000000  0.5831310000000  0.4724240000000 1.0
C      1  0.5559800000000  0.4879580000000  0.5408880000000 1.0
C      1  0.4278410000000  0.5774760000000  0.4901440000000 1.0
C      1  0.4565370000000  0.4723620000000  0.4378990000000 1.0
C      1  0.5927650000000  0.4394450000000  0.5027720000000 1.0
C      1  0.5550430000000  0.5188630000000  0.4074420000000 1.0
C      1  0.4475060000000  0.3909630000000  0.4807040000000 1.0
C      1  0.5705970000000  0.5527930000000  0.4434810000000 1.0
C      1  0.5661380000000  0.4815460000000  0.5787640000000 1.0
C      1  0.4876890000000  0.6122070000000  0.4441930000000 1.0
C      1  0.4808320000000  0.3828310000000  0.4768520000000 1.0
C      1  0.5169580000000  0.5377050000000  0.5331600000000 1.0
C      1  0.4986130000000  0.4134830000000  0.5683240000000 1.0
C      1  0.5689380000000  0.5708000000000  0.5650550000000 1.0
C      1  0.5813330000000  0.5436950000000  0.5731650000000 1.0
C      1  0.4987920000000  0.4475900000000  0.4099320000000 1.0
C      1  0.4945470000000  0.4709980000000  0.5481060000000 1.0
C      1  0.5455850000000  0.4604570000000  0.4253620000000 1.0
C      1  0.4337200000000  0.4490920000000  0.5265550000000 1.0
C      1  0.4996990000000  0.4885800000000  0.5708680000000 1.0
C      1  0.4659130000000  0.6060020000000  0.4873990000000 1.0
C      1  0.4193160000000  0.4834130000000  0.4779290000000 1.0
C      1  0.5869890000000  0.5208580000000  0.5579900000000 1.0
C      1  0.4627960000000  0.4717300000000  0.4700800000000 1.0
C      1  0.4814190000000  0.5718590000000  0.4121620000000 1.0
C      1  0.5209070000000  0.3982990000000  0.5249170000000 1.0
C      1  0.5621270000000  0.4957180000000  0.5117820000000 1.0
C      1  0.5425700000000  0.4651050000000  0.5594040000000 1.0
C      1  0.4915530000000  0.5633850000000  0.5102450000000 1.0
C      1  0.5489700000000  0.5312200000000  0.4397900000000 1.0
C      1  0.5674680000000  0.4697030000000  0.4971980000000 1.0
C      1  0.4184860000000  0.4556730000000  0.4975850000000 1.0
C      1  0.5187480000000  0.4518810000000  0.5390330000000 1.0
C      1  0.5896740000000  0.4810550000000  0.4173250000000 1.0
C      1  0.4899740000000  0.5793720000000  0.5403270000000 1.0
C      1  0.5350200000000  0.5696520000000  0.5671120000000 1.0
C      1  0.4548240000000  0.4286240000000  0.5779980000000 1.0
C      1  0.5525360000000  0.6056080000000  0.4919070000000 1.0
C      1  0.5405760000000  0.4120340000000  0.5451100000000 1.0
C      1  0.4688940000000  0.5032560000000  0.4706180000000 1.0
C      1  0.4686530000000  0.5553560000000  0.5340680000000 1.0
C      1  0.4821720000000  0.4290250000000  0.5854000000000 1.0
C      1  0.5068530000000  0.4660240000000  0.4371560000000 1.0
C      1  0.5093660000000  0.5716420000000  0.4097190000000 1.0
C      1  0.5675370000000  0.4404260000000  0.4808040000000 1.0
C      1  0.5275860000000  0.4892780000000  0.4279610000000 1.0
C      1  0.5089490000000  0.5286320000000  0.6029640000000 1.0
C      1  0.4494140000000  0.5310100000000  0.5934160000000 1.0
C      1  0.5354910000000  0.5092100000000  0.4978880000000 1.0
C      1  0.5172720000000  0.4551760000000  0.4642700000000 1.0
C      1  0.3968940000000  0.5057340000000  0.4672170000000 1.0
C      1  0.5026810000000  0.4219330000000  0.5379350000000 1.0
C      1  0.4616180000000  0.5935440000000  0.5494670000000 1.0
C      1  0.4677730000000  0.3935530000000  0.5063570000000 1.0
C      1  0.5728270000000  0.5535260000000  0.4960610000000 1.0
C      1  0.5147280000000  0.3911180000000  0.4961830000000 1.0
C      1  0.5854210000000  0.4800420000000  0.4632230000000 1.0
C      1  0.6046940000000  0.4725070000000  0.5225560000000 1.0
C      1  0.5213380000000  0.4208780000000  0.4919870000000 1.0
C      1  0.5311880000000  0.5094630000000  0.3938230000000 1.0
C      1  0.4710820000000  0.4787720000000  0.6236780000000 1.0
C      1  0.5018960000000  0.6185350000000  0.4219420000000 1.0
C      1  0.5385250000000  0.4609910000000  0.5128480000000 1.0
C      1  0.5212700000000  0.5981840000000  0.4162880000000 1.0
C      1  0.5634400000000  0.4276580000000  0.4395190000000 1.0
C      1  0.5199780000000  0.4943910000000  0.5242780000000 1.0
C      1  0.4215650000000  0.5462520000000  0.5022280000000 1.0
C      1  0.5476410000000  0.5330520000000  0.5192520000000 1.0
C      1  0.5414660000000  0.4385020000000  0.4611690000000 1.0
C      1  0.5008870000000  0.5202720000000  0.5586000000000 1.0
C      1  0.4822870000000  0.5368360000000  0.5981670000000 1.0
C      1  0.5010020000000  0.4462710000000  0.5988140000000 1.0
C      1  0.5829110000000  0.5275650000000  0.4995840000000 1.0
C      1  0.5313840000000  0.5258230000000  0.4684440000000 1.0
C      1  0.5354400000000  0.4755070000000  0.5909800000000 1.0
C      1  0.5135000000000  0.5973030000000  0.5142620000000 1.0
C      1  0.4237180000000  0.4786950000000  0.5298620000000 1.0
C      1  0.4643440000000  0.5648770000000  0.5669600000000 1.0
C      1  0.5801340000000  0.4669170000000  0.5440430000000 1.0
C      1  0.5287480000000  0.5486950000000  0.5976470000000 1.0
C      1  0.5058830000000  0.5986370000000  0.4653080000000 1.0
C      1  0.4756290000000  0.4338610000000  0.4098640000000 1.0
C      1  0.5681900000000  0.5681780000000  0.4711800000000 1.0
C      1  0.4231350000000  0.4904400000000  0.5798050000000 1.0
C      1  0.4540550000000  0.4222710000000  0.4567620000000 1.0
C      1  0.4769110000000  0.5021260000000  0.5242100000000 1.0
C      1  0.4273190000000  0.4116560000000  0.4719420000000 1.0
C      1  0.4046490000000  0.5223680000000  0.5134150000000 1.0
C      1  0.5236820000000  0.4606190000000  0.4005150000000 1.0
C      1  0.3904810000000  0.4736580000000  0.5046030000000 1.0
C      1  0.4695950000000  0.5314780000000  0.5660430000000 1.0
C      1  0.4071130000000  0.4308770000000  0.4748290000000 1.0
C      1  0.4603070000000  0.6004240000000  0.4564890000000 1.0
C      1  0.4072650000000  0.5552260000000  0.4746340000000 1.0
C      1  0.4060140000000  0.4578020000000  0.4599400000000 1.0
C      1  0.5896720000000  0.4951950000000  0.5704000000000 1.0
C      1  0.4378690000000  0.6017290000000  0.5997280000000 1.0
C      1  0.4625340000000  0.4743620000000  0.5383090000000 1.0
C      1  0.4974640000000  0.5011350000000  0.4840150000000 1.0
C      1  0.5770910000000  0.5200610000000  0.5302140000000 1.0
C      1  0.4276440000000  0.5140060000000  0.5933260000000 1.0
C      1  0.4974260000000  0.4375250000000  0.4802510000000 1.0
C      1  0.5153170000000  0.5202660000000  0.4211570000000 1.0
C      1  0.5474540000000  0.4250920000000  0.4982790000000 1.0
C      1  0.4566730000000  0.3968350000000  0.5367770000000 1.0
C      1  0.3891390000000  0.5020320000000  0.4962580000000 1.0
C      1  0.4324480000000  0.4355040000000  0.5539970000000 1.0
C      1  0.4316280000000  0.4888070000000  0.4325450000000 1.0
C      1  0.5265850000000  0.4835160000000  0.3841640000000 1.0
C      1  0.4797620000000  0.4579010000000  0.4929870000000 1.0
C      1  0.5065250000000  0.5399630000000  0.4817670000000 1.0
C      1  0.4428910000000  0.4482380000000  0.4750810000000 1.0
C      1  0.4126230000000  0.5612710000000  0.4422230000000 1.0
C      1  0.4698960000000  0.5751330000000  0.4358700000000 1.0
C      1  0.4244190000000  0.5006250000000  0.5147850000000 1.0
C      1  0.4107540000000  0.5290910000000  0.4533530000000 1.0
C      1  0.5809920000000  0.4397480000000  0.5299180000000 1.0
C      1  0.5239580000000  0.4788460000000  0.4877540000000 1.0
C      1  0.4421870000000  0.4057620000000  0.5581160000000 1.0
C      1  0.4345290000000  0.5157270000000  0.4389060000000 1.0
C      1  0.5234200000000  0.5502630000000  0.4279320000000 1.0
C      1  0.4544810000000  0.4152080000000  0.4257940000000 1.0
C      1  0.4734780000000  0.5460300000000  0.4870500000000 1.0
C      1  0.4738950000000  0.5016770000000  0.5818350000000 1.0
C      1  0.4644530000000  0.4475220000000  0.5181810000000 1.0
C      1  0.5678660000000  0.5052790000000  0.4510170000000 1.0
C      1  0.4730790000000  0.5003620000000  0.3978620000000 1.0
C      1  0.4760430000000  0.4206950000000  0.5244190000000 1.0
END
