TITL C-2848501-3133-254 0.00206238872851545 125000 -588.57416375652 0 0 109 (C1) n - 1
REM
REM in /home/bkarasulu/work/CARBON/AIRSS/Generating-Clusters/AIREBO/with-SteepDescent/Only-C1/SD-CG-opt/Try1-1.4A-POS3A/HFTN-CG
REM
REM
REM
REM
REM
REM ./C.cell (11c1c37f851c82e70ff6c80c92926a4b)
REM
REM compiler GCC version 9.2.1 20190827 (Red Hat 9.2.1-1)
REM options -cpp -mtune=generic -march=x86-64 -g -O0 -fpre-include=/usr/include/finclude/math-vector-fortran.h
REM seed 1103177757 1627428380 475483866 32944139 717237205 -1369233959 97270116 -1931098511 1398722533 986641386 -119450028 377871941 -1757014590 1716954473 -1035578005 -1891035635 1037005485 1807022758 491640265 -336126372 -1459052173 -1759538510 -1832809318 746386619 1967949370 348774617 333843643 1550044910 -200340825 1091531098 -1768523855 1879067273 -1023494105
REM
CELL 1.54180   50.00000   50.00000   50.00000   90.00000   90.00000   90.00000
LATT -1
SFAC C  
C      1  0.5653500000000  0.4671030000000  0.5414610000000 1.0
C      1  0.4689530000000  0.4644300000000  0.4109390000000 1.0
C      1  0.5118290000000  0.5867570000000  0.4537550000000 1.0
C      1  0.4334750000000  0.4800370000000  0.5094160000000 1.0
C      1  0.5280970000000  0.4990840000000  0.5810230000000 1.0
C      1  0.5382760000000  0.4904600000000  0.4741060000000 1.0
C      1  0.4387770000000  0.5309000000000  0.5332030000000 1.0
C      1  0.5787000000000  0.5377940000000  0.5210270000000 1.0
C      1  0.5102180000000  0.4512630000000  0.4777630000000 1.0
C      1  0.5663860000000  0.5216090000000  0.4567610000000 1.0
C      1  0.5148670000000  0.5559980000000  0.5150530000000 1.0
C      1  0.4905100000000  0.5729100000000  0.4699990000000 1.0
C      1  0.4591130000000  0.5007790000000  0.5494130000000 1.0
C      1  0.5006110000000  0.4209150000000  0.4897370000000 1.0
C      1  0.5168480000000  0.5732800000000  0.4303000000000 1.0
C      1  0.4867840000000  0.5374890000000  0.5366320000000 1.0
C      1  0.4701830000000  0.5580030000000  0.4471820000000 1.0
C      1  0.4836190000000  0.4309410000000  0.5630840000000 1.0
C      1  0.4708640000000  0.5547440000000  0.5120190000000 1.0
C      1  0.4702050000000  0.5884930000000  0.4907550000000 1.0
C      1  0.5569950000000  0.5561930000000  0.5095400000000 1.0
C      1  0.4252770000000  0.5415830000000  0.4872550000000 1.0
C      1  0.4451120000000  0.5122430000000  0.5897650000000 1.0
C      1  0.4518400000000  0.4625820000000  0.5403600000000 1.0
C      1  0.5452450000000  0.5492120000000  0.5486870000000 1.0
C      1  0.4828610000000  0.5068830000000  0.5258420000000 1.0
C      1  0.4244980000000  0.5250090000000  0.4632300000000 1.0
C      1  0.4085200000000  0.5031320000000  0.5094610000000 1.0
C      1  0.5219940000000  0.5397620000000  0.4699130000000 1.0
C      1  0.4745620000000  0.5334070000000  0.4675810000000 1.0
C      1  0.5581590000000  0.4996330000000  0.5482770000000 1.0
C      1  0.4718200000000  0.4411940000000  0.4301020000000 1.0
C      1  0.5555250000000  0.5469220000000  0.4499790000000 1.0
C      1  0.4954720000000  0.5457880000000  0.4913710000000 1.0
C      1  0.4989940000000  0.4474390000000  0.4458820000000 1.0
C      1  0.4423840000000  0.5090140000000  0.4469800000000 1.0
C      1  0.4286510000000  0.4855180000000  0.5487060000000 1.0
C      1  0.5203870000000  0.5332820000000  0.5397420000000 1.0
C      1  0.5314010000000  0.4286310000000  0.5354820000000 1.0
C      1  0.5246640000000  0.5431960000000  0.4361920000000 1.0
C      1  0.5328010000000  0.4803950000000  0.4425470000000 1.0
C      1  0.5293500000000  0.4438340000000  0.5049030000000 1.0
C      1  0.5031360000000  0.5252190000000  0.4223630000000 1.0
C      1  0.5058060000000  0.4974130000000  0.4184750000000 1.0
C      1  0.5455350000000  0.4693610000000  0.5821930000000 1.0
C      1  0.4769290000000  0.5356700000000  0.4258080000000 1.0
C      1  0.5685560000000  0.4699060000000  0.4561500000000 1.0
C      1  0.4312420000000  0.5157050000000  0.5613130000000 1.0
C      1  0.4897080000000  0.4618880000000  0.5278680000000 1.0
C      1  0.5709700000000  0.4593520000000  0.4835080000000 1.0
C      1  0.5073060000000  0.5708490000000  0.5433950000000 1.0
C      1  0.5347970000000  0.5936950000000  0.4673660000000 1.0
C      1  0.4321270000000  0.4294210000000  0.5273430000000 1.0
C      1  0.5388930000000  0.4248750000000  0.4419030000000 1.0
C      1  0.5678170000000  0.5315070000000  0.5470970000000 1.0
C      1  0.4816830000000  0.4777050000000  0.5781120000000 1.0
C      1  0.5319460000000  0.4837010000000  0.5045560000000 1.0
C      1  0.5200230000000  0.4657460000000  0.5266500000000 1.0
C      1  0.5580180000000  0.5140800000000  0.4853870000000 1.0
C      1  0.4477360000000  0.5629630000000  0.4896860000000 1.0
C      1  0.4641020000000  0.4965830000000  0.5940440000000 1.0
C      1  0.5186000000000  0.4119030000000  0.4659010000000 1.0
C      1  0.5005280000000  0.4261350000000  0.5420440000000 1.0
C      1  0.4540060000000  0.5192110000000  0.4232620000000 1.0
C      1  0.5650290000000  0.4316850000000  0.4901410000000 1.0
C      1  0.4831990000000  0.4309070000000  0.5153810000000 1.0
C      1  0.5498850000000  0.4169590000000  0.4732450000000 1.0
C      1  0.4600680000000  0.4833320000000  0.4592100000000 1.0
C      1  0.5590910000000  0.4423630000000  0.5213140000000 1.0
C      1  0.5226040000000  0.4465070000000  0.4243090000000 1.0
C      1  0.4826120000000  0.4716930000000  0.4818660000000 1.0
C      1  0.5515030000000  0.4424400000000  0.5603350000000 1.0
C      1  0.4858700000000  0.4777410000000  0.4377700000000 1.0
C      1  0.5341060000000  0.5329860000000  0.4998330000000 1.0
C      1  0.4522650000000  0.5083450000000  0.5110580000000 1.0
C      1  0.5112800000000  0.4708980000000  0.5831970000000 1.0
C      1  0.5246680000000  0.5053950000000  0.5497470000000 1.0
C      1  0.4908420000000  0.3935670000000  0.5037260000000 1.0
C      1  0.4964920000000  0.5485740000000  0.5673110000000 1.0
C      1  0.4456940000000  0.5599220000000  0.5423000000000 1.0
C      1  0.5404930000000  0.5830690000000  0.4975670000000 1.0
C      1  0.5460510000000  0.5761730000000  0.5354430000000 1.0
C      1  0.4500730000000  0.4356470000000  0.4450690000000 1.0
C      1  0.4960280000000  0.4869830000000  0.5500130000000 1.0
C      1  0.5006260000000  0.5195280000000  0.4618300000000 1.0
C      1  0.5128610000000  0.5083430000000  0.5097490000000 1.0
C      1  0.5204020000000  0.5944190000000  0.5225660000000 1.0
C      1  0.4179400000000  0.5287900000000  0.5105260000000 1.0
C      1  0.5628860000000  0.4775890000000  0.5027800000000 1.0
C      1  0.5747870000000  0.4958020000000  0.4462530000000 1.0
C      1  0.4700500000000  0.5040940000000  0.4842290000000 1.0
C      1  0.4193310000000  0.4583930000000  0.5317620000000 1.0
C      1  0.5271260000000  0.4747120000000  0.4117810000000 1.0
C      1  0.5544640000000  0.5687960000000  0.4690680000000 1.0
C      1  0.5806920000000  0.5142280000000  0.5055030000000 1.0
C      1  0.4737960000000  0.5748890000000  0.5392630000000 1.0
C      1  0.4641910000000  0.4654560000000  0.5088100000000 1.0
C      1  0.5083030000000  0.4929540000000  0.4583010000000 1.0
C      1  0.5392010000000  0.4531620000000  0.4600450000000 1.0
C      1  0.5100110000000  0.5279190000000  0.5829590000000 1.0
C      1  0.4388780000000  0.4599400000000  0.4587920000000 1.0
C      1  0.4535840000000  0.4229620000000  0.5166260000000 1.0
C      1  0.4052930000000  0.4654730000000  0.4560720000000 1.0
C      1  0.5277930000000  0.4636180000000  0.5543800000000 1.0
C      1  0.4527250000000  0.5810760000000  0.4622520000000 1.0
C      1  0.4198410000000  0.4667190000000  0.4839760000000 1.0
C      1  0.4874910000000  0.5909570000000  0.5154320000000 1.0
C      1  0.5813470000000  0.4903280000000  0.5249500000000 1.0
C      1  0.4688900000000  0.4539380000000  0.5634120000000 1.0
END
