TITL C-2848497-6229-312 0.000628383977555472 125000 -209.039689456487 0 0 40 (C1) n - 1
REM
REM in /home/bkarasulu/work/CARBON/AIRSS/Generating-Clusters/AIREBO/with-SteepDescent/Only-C1/SD-CG-opt/Try1-1.4A-POS3A/HFTN-CG
REM
REM
REM
REM
REM
REM ./C.cell (11c1c37f851c82e70ff6c80c92926a4b)
REM
REM compiler GCC version 9.2.1 20190827 (Red Hat 9.2.1-1)
REM options -cpp -mtune=generic -march=x86-64 -g -O0 -fpre-include=/usr/include/finclude/math-vector-fortran.h
REM seed -205032608 -2083919045 116339292 -1464029704 -1563956048 245161585 1983126778 -1166560680 263220992 1088428708 -1893256695 -1839723376 -743648821 -1280991232 -1536104351 -1575433230 1534508710 1931765139 -1189005368 -1584183235 283581712 -1784246802 -248071181 -415347769 -675491713 1263242767 2071019356 -1593819536 -1362277500 1406264245 -210060598 -1400107148 867576248
REM
CELL 1.54180   50.00000   50.00000   50.00000   90.00000   90.00000   90.00000
LATT -1
SFAC C  
C      1  0.4652340000000  0.4589190000000  0.4749450000000 1.0
C      1  0.5035900000000  0.4936440000000  0.4439890000000 1.0
C      1  0.4452800000000  0.4737300000000  0.4899170000000 1.0
C      1  0.4925800000000  0.4680040000000  0.4357500000000 1.0
C      1  0.5286460000000  0.5404050000000  0.5608830000000 1.0
C      1  0.5652860000000  0.4794160000000  0.4988510000000 1.0
C      1  0.5477090000000  0.4597240000000  0.4909650000000 1.0
C      1  0.5467560000000  0.4950310000000  0.5667360000000 1.0
C      1  0.4782510000000  0.4977110000000  0.5485000000000 1.0
C      1  0.5130450000000  0.5415600000000  0.5094810000000 1.0
C      1  0.5232110000000  0.4671230000000  0.4823720000000 1.0
C      1  0.4402640000000  0.4983200000000  0.4745730000000 1.0
C      1  0.5178520000000  0.5662600000000  0.5034290000000 1.0
C      1  0.4382210000000  0.5214290000000  0.4911450000000 1.0
C      1  0.4967750000000  0.4726770000000  0.5420390000000 1.0
C      1  0.4552660000000  0.5228760000000  0.5134930000000 1.0
C      1  0.5089250000000  0.4561060000000  0.5606250000000 1.0
C      1  0.4800810000000  0.5112860000000  0.4435310000000 1.0
C      1  0.4966760000000  0.5223470000000  0.5507160000000 1.0
C      1  0.4938110000000  0.4609360000000  0.4929400000000 1.0
C      1  0.4882700000000  0.4930890000000  0.5025880000000 1.0
C      1  0.4839990000000  0.5383260000000  0.4549190000000 1.0
C      1  0.4661310000000  0.4673940000000  0.4477720000000 1.0
C      1  0.5355910000000  0.5396020000000  0.4569830000000 1.0
C      1  0.4941850000000  0.5180150000000  0.4802130000000 1.0
C      1  0.4527220000000  0.4741370000000  0.5178010000000 1.0
C      1  0.5230870000000  0.5115810000000  0.4969460000000 1.0
C      1  0.4879900000000  0.5229500000000  0.5190830000000 1.0
C      1  0.5735790000000  0.5280790000000  0.5078290000000 1.0
C      1  0.4558590000000  0.4992010000000  0.5313990000000 1.0
C      1  0.4553900000000  0.4958730000000  0.4491340000000 1.0
C      1  0.4892390000000  0.5440030000000  0.5693530000000 1.0
C      1  0.5232090000000  0.4936620000000  0.4677550000000 1.0
C      1  0.5284670000000  0.5104830000000  0.5528690000000 1.0
C      1  0.5569960000000  0.5094940000000  0.4954820000000 1.0
C      1  0.5162350000000  0.4958420000000  0.5263300000000 1.0
C      1  0.4773370000000  0.4595270000000  0.5219040000000 1.0
C      1  0.4966880000000  0.4296520000000  0.4920250000000 1.0
C      1  0.5464710000000  0.5158840000000  0.4648960000000 1.0
C      1  0.5110960000000  0.5457010000000  0.4698370000000 1.0
END
