TITL C-2847957-7266-218 0.00590094682033599 125000 -845.424477278978 0 0 158 (C1) n - 1
REM
REM in /home/bkarasulu/work/CARBON/AIRSS/Generating-Clusters/AIREBO/with-SteepDescent/Only-C1/SD-CG-opt/Try1-1.4A-POS3A/HFTN-CG
REM
REM
REM
REM
REM
REM ./C.cell (11c1c37f851c82e70ff6c80c92926a4b)
REM
REM compiler GCC version 9.2.1 20190827 (Red Hat 9.2.1-1)
REM options -cpp -mtune=generic -march=x86-64 -g -O0 -fpre-include=/usr/include/finclude/math-vector-fortran.h
REM seed -1472191247 -1514947419 522488991 1537457217 503045070 625154041 1583931530 -345382857 -1165399289 -999363242 1166080969 528798463 1945621900 514503101 -1753469952 812257225 -764366758 1249479997 -504596326 370363968 1333515543 1471188716 -1968345936 -1094333712 1516964249 -1811034669 835260523 1996832118 1119546016 1160145530 1497120113 109075292 -343860481
REM
CELL 1.54180   50.00000   50.00000   50.00000   90.00000   90.00000   90.00000
LATT -1
SFAC C  
C      1  0.4720750000000  0.5434570000000  0.4516650000000 1.0
C      1  0.4962590000000  0.6050790000000  0.4623500000000 1.0
C      1  0.4913590000000  0.5381560000000  0.5607520000000 1.0
C      1  0.4219240000000  0.4602480000000  0.5016430000000 1.0
C      1  0.5285520000000  0.5296070000000  0.3931160000000 1.0
C      1  0.5149080000000  0.5378420000000  0.5930630000000 1.0
C      1  0.4476510000000  0.5080260000000  0.3921830000000 1.0
C      1  0.5563580000000  0.4241620000000  0.5480290000000 1.0
C      1  0.5661510000000  0.4465510000000  0.5315540000000 1.0
C      1  0.5533660000000  0.6050590000000  0.4891830000000 1.0
C      1  0.6018140000000  0.5079030000000  0.4534100000000 1.0
C      1  0.4812710000000  0.4883220000000  0.4432440000000 1.0
C      1  0.4753640000000  0.4253930000000  0.5692120000000 1.0
C      1  0.5091580000000  0.4035160000000  0.4653020000000 1.0
C      1  0.5023650000000  0.5442830000000  0.5173120000000 1.0
C      1  0.5415870000000  0.4907330000000  0.5197420000000 1.0
C      1  0.4571780000000  0.4301230000000  0.4709170000000 1.0
C      1  0.5334010000000  0.4472550000000  0.5995490000000 1.0
C      1  0.4909420000000  0.5110550000000  0.4648210000000 1.0
C      1  0.4298890000000  0.5489250000000  0.4236250000000 1.0
C      1  0.4276980000000  0.5463790000000  0.5216240000000 1.0
C      1  0.4871350000000  0.4518620000000  0.4851440000000 1.0
C      1  0.4703200000000  0.5552480000000  0.5142610000000 1.0
C      1  0.5006870000000  0.4314520000000  0.5262030000000 1.0
C      1  0.5254650000000  0.4003130000000  0.5245000000000 1.0
C      1  0.5157030000000  0.4605370000000  0.3934170000000 1.0
C      1  0.5032440000000  0.5384830000000  0.4390230000000 1.0
C      1  0.5428530000000  0.4046720000000  0.4632020000000 1.0
C      1  0.4903510000000  0.5081150000000  0.5629480000000 1.0
C      1  0.5616260000000  0.4754680000000  0.5504480000000 1.0
C      1  0.4743320000000  0.4978970000000  0.3965700000000 1.0
C      1  0.4368810000000  0.5023900000000  0.4990280000000 1.0
C      1  0.4214250000000  0.5498980000000  0.4716640000000 1.0
C      1  0.4994670000000  0.5680260000000  0.4226210000000 1.0
C      1  0.4361740000000  0.5061420000000  0.3677670000000 1.0
C      1  0.5751130000000  0.5304780000000  0.5197480000000 1.0
C      1  0.4773790000000  0.5024810000000  0.5256320000000 1.0
C      1  0.4333360000000  0.5216350000000  0.4139030000000 1.0
C      1  0.5639980000000  0.4963690000000  0.5842210000000 1.0
C      1  0.5037820000000  0.4164960000000  0.5769840000000 1.0
C      1  0.5076970000000  0.5403640000000  0.4861590000000 1.0
C      1  0.5316050000000  0.5841110000000  0.5008970000000 1.0
C      1  0.4812370000000  0.4896260000000  0.4967050000000 1.0
C      1  0.4694910000000  0.5308220000000  0.5379070000000 1.0
C      1  0.5211210000000  0.4854740000000  0.5637020000000 1.0
C      1  0.4619770000000  0.5165790000000  0.5892790000000 1.0
C      1  0.5223960000000  0.5182610000000  0.4563520000000 1.0
C      1  0.5619490000000  0.4346130000000  0.4999080000000 1.0
C      1  0.5452460000000  0.5053020000000  0.5502460000000 1.0
C      1  0.5311390000000  0.4498460000000  0.4137910000000 1.0
C      1  0.5962390000000  0.5162730000000  0.5411460000000 1.0
C      1  0.4730740000000  0.5543580000000  0.5837900000000 1.0
C      1  0.3871100000000  0.4904330000000  0.4790480000000 1.0
C      1  0.4564080000000  0.4885890000000  0.4748490000000 1.0
C      1  0.4509780000000  0.5313780000000  0.5018910000000 1.0
C      1  0.4896170000000  0.5725700000000  0.4548450000000 1.0
C      1  0.5700920000000  0.5627370000000  0.5506090000000 1.0
C      1  0.5461260000000  0.5354800000000  0.5345900000000 1.0
C      1  0.4256790000000  0.5031870000000  0.4369290000000 1.0
C      1  0.4815920000000  0.4034270000000  0.4665610000000 1.0
C      1  0.5886320000000  0.5393280000000  0.4489560000000 1.0
C      1  0.4200300000000  0.5410630000000  0.5604930000000 1.0
C      1  0.6089130000000  0.4923870000000  0.5207580000000 1.0
C      1  0.5277170000000  0.4639550000000  0.5251430000000 1.0
C      1  0.5882550000000  0.4800530000000  0.4514100000000 1.0
C      1  0.4519730000000  0.5091770000000  0.5574600000000 1.0
C      1  0.4417410000000  0.5608750000000  0.5473310000000 1.0
C      1  0.4050320000000  0.5239560000000  0.5097690000000 1.0
C      1  0.4502240000000  0.6073250000000  0.4520450000000 1.0
C      1  0.5530420000000  0.5661830000000  0.5213440000000 1.0
C      1  0.4548930000000  0.4530800000000  0.4959100000000 1.0
C      1  0.4288560000000  0.4295820000000  0.5146990000000 1.0
C      1  0.5686330000000  0.5177030000000  0.4343030000000 1.0
C      1  0.5351160000000  0.5560270000000  0.3907260000000 1.0
C      1  0.4353130000000  0.5608360000000  0.4499410000000 1.0
C      1  0.5187630000000  0.5115700000000  0.4101280000000 1.0
C      1  0.4690930000000  0.4176970000000  0.4415860000000 1.0
C      1  0.5771090000000  0.4708980000000  0.4233330000000 1.0
C      1  0.5225270000000  0.4219160000000  0.5505950000000 1.0
C      1  0.5107830000000  0.4312120000000  0.4940480000000 1.0
C      1  0.5063260000000  0.4850150000000  0.4742180000000 1.0
C      1  0.4943150000000  0.4512350000000  0.5601910000000 1.0
C      1  0.4939130000000  0.5193460000000  0.6006570000000 1.0
C      1  0.5725020000000  0.5518510000000  0.4723450000000 1.0
C      1  0.5137000000000  0.5695280000000  0.5332930000000 1.0
C      1  0.4255500000000  0.4325870000000  0.4610750000000 1.0
C      1  0.4630830000000  0.4859600000000  0.6039740000000 1.0
C      1  0.5681480000000  0.5108320000000  0.4979010000000 1.0
C      1  0.4940670000000  0.4000190000000  0.5177080000000 1.0
C      1  0.4668350000000  0.4758920000000  0.5405830000000 1.0
C      1  0.4675600000000  0.3964850000000  0.5098730000000 1.0
C      1  0.4692920000000  0.4610180000000  0.4596730000000 1.0
C      1  0.5544370000000  0.4783310000000  0.4551200000000 1.0
C      1  0.5105860000000  0.4747190000000  0.4429820000000 1.0
C      1  0.4761700000000  0.5327660000000  0.4818770000000 1.0
C      1  0.5062780000000  0.4965330000000  0.5372060000000 1.0
C      1  0.3999350000000  0.5050410000000  0.4590960000000 1.0
C      1  0.4177710000000  0.4685280000000  0.5419130000000 1.0
C      1  0.5878700000000  0.5516850000000  0.5026060000000 1.0
C      1  0.5712140000000  0.4834750000000  0.5124560000000 1.0
C      1  0.5506580000000  0.5530890000000  0.5700420000000 1.0
C      1  0.4857970000000  0.4621850000000  0.5976400000000 1.0
C      1  0.4296760000000  0.4787450000000  0.4577170000000 1.0
C      1  0.4136800000000  0.5602910000000  0.4954660000000 1.0
C      1  0.4470560000000  0.4354410000000  0.5616980000000 1.0
C      1  0.5889700000000  0.4475120000000  0.4837820000000 1.0
C      1  0.5410870000000  0.5455100000000  0.4788430000000 1.0
C      1  0.4794310000000  0.5451660000000  0.4081670000000 1.0
C      1  0.5018330000000  0.4676870000000  0.5099130000000 1.0
C      1  0.5029270000000  0.5657370000000  0.5868190000000 1.0
C      1  0.5345190000000  0.4969160000000  0.4347670000000 1.0
C      1  0.5513220000000  0.4650260000000  0.5799590000000 1.0
C      1  0.5127540000000  0.4454920000000  0.4386500000000 1.0
C      1  0.5969900000000  0.4709430000000  0.4970160000000 1.0
C      1  0.4872060000000  0.4311200000000  0.4267270000000 1.0
C      1  0.5553250000000  0.4491130000000  0.4377540000000 1.0
C      1  0.4868560000000  0.5143390000000  0.4215460000000 1.0
C      1  0.5064780000000  0.5981230000000  0.5177350000000 1.0
C      1  0.4272950000000  0.4415780000000  0.5420660000000 1.0
C      1  0.5279440000000  0.4547880000000  0.5574590000000 1.0
C      1  0.5714710000000  0.5121370000000  0.4677360000000 1.0
C      1  0.5183740000000  0.5150930000000  0.5148090000000 1.0
C      1  0.4441920000000  0.5435310000000  0.5825240000000 1.0
C      1  0.5074410000000  0.4393540000000  0.5962080000000 1.0
C      1  0.5219950000000  0.5762470000000  0.4038350000000 1.0
C      1  0.4915580000000  0.5972580000000  0.4902690000000 1.0
C      1  0.5002160000000  0.4895030000000  0.5893280000000 1.0
C      1  0.4568900000000  0.5808530000000  0.4590160000000 1.0
C      1  0.5363100000000  0.4793670000000  0.4802990000000 1.0
C      1  0.4478700000000  0.4140050000000  0.4993890000000 1.0
C      1  0.5629330000000  0.4953100000000  0.4161610000000 1.0
C      1  0.4173510000000  0.4571670000000  0.4702240000000 1.0
C      1  0.4645100000000  0.4635570000000  0.5709700000000 1.0
C      1  0.5166690000000  0.5684910000000  0.4751200000000 1.0
C      1  0.4409600000000  0.4850690000000  0.5787760000000 1.0
C      1  0.5234400000000  0.4326350000000  0.4626100000000 1.0
C      1  0.4621170000000  0.5779790000000  0.5365170000000 1.0
C      1  0.4750500000000  0.4526810000000  0.5228910000000 1.0
C      1  0.5210370000000  0.5467070000000  0.5546140000000 1.0
C      1  0.5700860000000  0.5775810000000  0.4942770000000 1.0
C      1  0.4060720000000  0.4901000000000  0.5065780000000 1.0
C      1  0.4396230000000  0.4911980000000  0.5311910000000 1.0
C      1  0.5907570000000  0.4687680000000  0.5360810000000 1.0
C      1  0.4921250000000  0.4759060000000  0.3896790000000 1.0
C      1  0.4526410000000  0.5156770000000  0.4546400000000 1.0
C      1  0.5632550000000  0.4317400000000  0.4660250000000 1.0
C      1  0.5361110000000  0.4525960000000  0.4961560000000 1.0
C      1  0.4242180000000  0.5201150000000  0.4727660000000 1.0
C      1  0.5480810000000  0.4051050000000  0.5096010000000 1.0
C      1  0.4841090000000  0.5941390000000  0.5430290000000 1.0
C      1  0.5418080000000  0.5217510000000  0.5798220000000 1.0
C      1  0.4708210000000  0.5777360000000  0.4897200000000 1.0
C      1  0.4008820000000  0.4950370000000  0.5398230000000 1.0
C      1  0.5941590000000  0.5492210000000  0.5493200000000 1.0
C      1  0.4017670000000  0.5205700000000  0.5524670000000 1.0
C      1  0.5875050000000  0.5026400000000  0.5697190000000 1.0
C      1  0.5057760000000  0.5824850000000  0.5637380000000 1.0
C      1  0.5365050000000  0.5127550000000  0.4867980000000 1.0
END
