TITL C-2848509-3138-116 0.00643893750395873 125000 -724.57321800871 0 0 135 (C1) n - 1
REM
REM in /home/bkarasulu/work/CARBON/AIRSS/Generating-Clusters/AIREBO/with-SteepDescent/Only-C1/SD-CG-opt/Try1-1.4A-POS3A/HFTN-CG
REM
REM
REM
REM
REM
REM ./C.cell (11c1c37f851c82e70ff6c80c92926a4b)
REM
REM compiler GCC version 9.2.1 20190827 (Red Hat 9.2.1-1)
REM options -cpp -mtune=generic -march=x86-64 -g -O0 -fpre-include=/usr/include/finclude/math-vector-fortran.h
REM seed -214052173 -1396883608 -1458551665 1958340074 -820177107 1297500439 -1936603277 -583923855 1463242868 -896353967 -1334797233 1918491065 -468832304 429020852 2118962887 -1090445992 1503511234 -626570431 -2062432493 -424395704 998226041 837215251 21155935 236729249 -739896216 -853689603 -1329121309 -191318034 -835950952 2007454568 1324173077 -1088063398 980837956
REM
CELL 1.54180   50.00000   50.00000   50.00000   90.00000   90.00000   90.00000
LATT -1
SFAC C  
C      1  0.4964020000000  0.4677430000000  0.4575920000000 1.0
C      1  0.4401600000000  0.4293120000000  0.4713920000000 1.0
C      1  0.5511720000000  0.5486280000000  0.4916050000000 1.0
C      1  0.4336330000000  0.4644100000000  0.5049470000000 1.0
C      1  0.4317470000000  0.4343530000000  0.5187710000000 1.0
C      1  0.5094750000000  0.5812180000000  0.3842120000000 1.0
C      1  0.4355840000000  0.4552490000000  0.4334440000000 1.0
C      1  0.4576100000000  0.5129650000000  0.4602970000000 1.0
C      1  0.5156370000000  0.5831890000000  0.4625910000000 1.0
C      1  0.4513050000000  0.5031590000000  0.4922990000000 1.0
C      1  0.5455370000000  0.4552060000000  0.5710810000000 1.0
C      1  0.4591050000000  0.4071720000000  0.4859050000000 1.0
C      1  0.5497460000000  0.4877310000000  0.5293020000000 1.0
C      1  0.5089520000000  0.5137410000000  0.4335600000000 1.0
C      1  0.5182270000000  0.4649100000000  0.4113670000000 1.0
C      1  0.4812580000000  0.5288760000000  0.5535070000000 1.0
C      1  0.5116650000000  0.4520370000000  0.4352470000000 1.0
C      1  0.5193810000000  0.4488020000000  0.4971870000000 1.0
C      1  0.5227410000000  0.4261050000000  0.4431010000000 1.0
C      1  0.4354260000000  0.4475760000000  0.5557500000000 1.0
C      1  0.5654800000000  0.4663640000000  0.5080100000000 1.0
C      1  0.4694290000000  0.5384950000000  0.4939070000000 1.0
C      1  0.4112080000000  0.5097460000000  0.5685480000000 1.0
C      1  0.4909530000000  0.4737850000000  0.5555330000000 1.0
C      1  0.6000100000000  0.5468850000000  0.5492260000000 1.0
C      1  0.5211520000000  0.5451540000000  0.5730270000000 1.0
C      1  0.5051120000000  0.4999210000000  0.4644040000000 1.0
C      1  0.4907610000000  0.5673930000000  0.5186280000000 1.0
C      1  0.5456470000000  0.5542030000000  0.5801430000000 1.0
C      1  0.5610780000000  0.4672660000000  0.4300610000000 1.0
C      1  0.4515140000000  0.5424620000000  0.4720440000000 1.0
C      1  0.4330840000000  0.5000770000000  0.4405890000000 1.0
C      1  0.5634200000000  0.5167450000000  0.6038390000000 1.0
C      1  0.4737290000000  0.4161030000000  0.4323400000000 1.0
C      1  0.5127470000000  0.4062170000000  0.4931030000000 1.0
C      1  0.4273210000000  0.5077400000000  0.5386710000000 1.0
C      1  0.4994540000000  0.5293600000000  0.4805130000000 1.0
C      1  0.5226600000000  0.4778530000000  0.5476740000000 1.0
C      1  0.4302110000000  0.4863760000000  0.4715750000000 1.0
C      1  0.5228950000000  0.4991640000000  0.5144900000000 1.0
C      1  0.5469610000000  0.5906400000000  0.4673310000000 1.0
C      1  0.4633580000000  0.5118190000000  0.5221200000000 1.0
C      1  0.5317730000000  0.5968530000000  0.5065510000000 1.0
C      1  0.5845840000000  0.5070890000000  0.4827830000000 1.0
C      1  0.5403720000000  0.5237410000000  0.3904660000000 1.0
C      1  0.5659900000000  0.5208000000000  0.5016560000000 1.0
C      1  0.5620260000000  0.5190070000000  0.5349470000000 1.0
C      1  0.4841120000000  0.4983160000000  0.4226200000000 1.0
C      1  0.5199610000000  0.5663020000000  0.4039730000000 1.0
C      1  0.5354090000000  0.4221180000000  0.5373360000000 1.0
C      1  0.5666460000000  0.5354470000000  0.5829360000000 1.0
C      1  0.4455840000000  0.5364090000000  0.5378210000000 1.0
C      1  0.4738480000000  0.6153880000000  0.3790580000000 1.0
C      1  0.5315550000000  0.5336550000000  0.4701250000000 1.0
C      1  0.4761820000000  0.5963040000000  0.5107980000000 1.0
C      1  0.4878840000000  0.5975660000000  0.3932260000000 1.0
C      1  0.4508110000000  0.4605950000000  0.4633790000000 1.0
C      1  0.5612660000000  0.5751900000000  0.4811550000000 1.0
C      1  0.5093050000000  0.5754510000000  0.4353710000000 1.0
C      1  0.4583720000000  0.5717930000000  0.5245180000000 1.0
C      1  0.4903570000000  0.4433780000000  0.4805490000000 1.0
C      1  0.5738520000000  0.5132170000000  0.4536490000000 1.0
C      1  0.4821500000000  0.4159460000000  0.5309840000000 1.0
C      1  0.5784160000000  0.4519270000000  0.5360170000000 1.0
C      1  0.4936280000000  0.5033910000000  0.5723170000000 1.0
C      1  0.4418220000000  0.4865510000000  0.3951020000000 1.0
C      1  0.5078750000000  0.4689700000000  0.5183740000000 1.0
C      1  0.5622600000000  0.4180400000000  0.4950710000000 1.0
C      1  0.5026780000000  0.3875390000000  0.5660400000000 1.0
C      1  0.5626750000000  0.4501530000000  0.4580110000000 1.0
C      1  0.4057710000000  0.5093810000000  0.4770270000000 1.0
C      1  0.4833350000000  0.4506500000000  0.5785080000000 1.0
C      1  0.4374480000000  0.5104330000000  0.5809230000000 1.0
C      1  0.4544210000000  0.4874620000000  0.5420480000000 1.0
C      1  0.4969540000000  0.4782220000000  0.3998430000000 1.0
C      1  0.4528840000000  0.4872780000000  0.5748970000000 1.0
C      1  0.4949070000000  0.4903780000000  0.6037060000000 1.0
C      1  0.4313500000000  0.4806390000000  0.4205580000000 1.0
C      1  0.5536290000000  0.4399210000000  0.5499110000000 1.0
C      1  0.5085010000000  0.5617940000000  0.4852340000000 1.0
C      1  0.4843160000000  0.5908040000000  0.4209930000000 1.0
C      1  0.4598180000000  0.5625340000000  0.5547900000000 1.0
C      1  0.4219540000000  0.5438950000000  0.4890490000000 1.0
C      1  0.5391010000000  0.4877340000000  0.5741160000000 1.0
C      1  0.5792300000000  0.5754740000000  0.4261950000000 1.0
C      1  0.6033280000000  0.4687930000000  0.5201380000000 1.0
C      1  0.5195540000000  0.5233060000000  0.5320060000000 1.0
C      1  0.5150430000000  0.6054850000000  0.4861170000000 1.0
C      1  0.5223860000000  0.5149480000000  0.5622650000000 1.0
C      1  0.4522900000000  0.5336350000000  0.5706640000000 1.0
C      1  0.5423050000000  0.4787080000000  0.4136510000000 1.0
C      1  0.4052200000000  0.5345940000000  0.4609300000000 1.0
C      1  0.5421620000000  0.5440900000000  0.5232830000000 1.0
C      1  0.4323460000000  0.5688860000000  0.5096970000000 1.0
C      1  0.5372540000000  0.5112140000000  0.4915390000000 1.0
C      1  0.4802460000000  0.4915930000000  0.4853770000000 1.0
C      1  0.5346900000000  0.4222410000000  0.5075580000000 1.0
C      1  0.5462000000000  0.5296750000000  0.4422250000000 1.0
C      1  0.5189770000000  0.5443990000000  0.4281260000000 1.0
C      1  0.5382830000000  0.5084510000000  0.4168560000000 1.0
C      1  0.4841720000000  0.4164940000000  0.5004580000000 1.0
C      1  0.5964670000000  0.4993430000000  0.5628370000000 1.0
C      1  0.5153130000000  0.4049760000000  0.4653670000000 1.0
C      1  0.3930980000000  0.5580570000000  0.4956770000000 1.0
C      1  0.5646820000000  0.5555930000000  0.4328830000000 1.0
C      1  0.5424460000000  0.4982330000000  0.6023370000000 1.0
C      1  0.5817860000000  0.5267710000000  0.5575850000000 1.0
C      1  0.4895640000000  0.5334830000000  0.5208550000000 1.0
C      1  0.5357570000000  0.4889330000000  0.4712530000000 1.0
C      1  0.5124810000000  0.4092870000000  0.5457190000000 1.0
C      1  0.4657630000000  0.4627660000000  0.4938680000000 1.0
C      1  0.5967540000000  0.4764550000000  0.5500510000000 1.0
C      1  0.4906440000000  0.4232240000000  0.4531380000000 1.0
C      1  0.4698790000000  0.4839200000000  0.4475730000000 1.0
C      1  0.4892990000000  0.5568840000000  0.5710270000000 1.0
C      1  0.5638730000000  0.4842210000000  0.4573260000000 1.0
C      1  0.4163690000000  0.5153100000000  0.5073790000000 1.0
C      1  0.4725010000000  0.4255450000000  0.5798670000000 1.0
C      1  0.4893370000000  0.6129750000000  0.4948010000000 1.0
C      1  0.5441610000000  0.4616070000000  0.4836790000000 1.0
C      1  0.5189320000000  0.4938480000000  0.6174010000000 1.0
C      1  0.4601460000000  0.4378270000000  0.5376750000000 1.0
C      1  0.5789050000000  0.4367950000000  0.4979250000000 1.0
C      1  0.4143270000000  0.5879110000000  0.5137930000000 1.0
C      1  0.4049880000000  0.4786920000000  0.4930210000000 1.0
C      1  0.4769110000000  0.4045690000000  0.5621840000000 1.0
C      1  0.5230820000000  0.5676190000000  0.5154000000000 1.0
C      1  0.4724690000000  0.4751190000000  0.5909440000000 1.0
C      1  0.4149330000000  0.4583900000000  0.5355120000000 1.0
C      1  0.4893570000000  0.5308940000000  0.5923370000000 1.0
C      1  0.5921040000000  0.4833880000000  0.4954630000000 1.0
C      1  0.4689940000000  0.4912050000000  0.3940320000000 1.0
C      1  0.4750550000000  0.4653400000000  0.5265020000000 1.0
C      1  0.4310630000000  0.4145580000000  0.4977430000000 1.0
C      1  0.4061480000000  0.4858680000000  0.5243920000000 1.0
END
