TITL C-2848498-1409-514 -0.00307717083503671 125000 -487.922796334294 0 0 86 (C1) n - 1
REM
REM in /home/bkarasulu/work/CARBON/AIRSS/Generating-Clusters/AIREBO/with-SteepDescent/Only-C1/SD-CG-opt/Try1-1.4A-POS3A/HFTN-CG
REM
REM
REM
REM
REM
REM ./C.cell (11c1c37f851c82e70ff6c80c92926a4b)
REM
REM compiler GCC version 9.2.1 20190827 (Red Hat 9.2.1-1)
REM options -cpp -mtune=generic -march=x86-64 -g -O0 -fpre-include=/usr/include/finclude/math-vector-fortran.h
REM seed 10322828 -652211616 85875106 -1916378679 -1290070514 542571149 986501565 -1369421406 -1032907290 -690060866 1483233643 -1789615929 430035059 -87367943 -612117554 -632274274 -401466285 182405860 40222406 760597635 -6578035 -720951724 -838281712 716534818 -1712045816 2008463902 -2091198682 1750999498 -483653354 1485634882 1589618893 -580651585 -55129799
REM
CELL 1.54180   50.00000   50.00000   50.00000   90.00000   90.00000   90.00000
LATT -1
SFAC C  
C      1  0.5494870000000  0.4685660000000  0.5442030000000 1.0
C      1  0.5806120000000  0.4807440000000  0.5042780000000 1.0
C      1  0.5097170000000  0.4918690000000  0.4927760000000 1.0
C      1  0.5569170000000  0.4711030000000  0.4419000000000 1.0
C      1  0.5500020000000  0.5384170000000  0.5131210000000 1.0
C      1  0.5751190000000  0.5566590000000  0.4879720000000 1.0
C      1  0.4892450000000  0.4455560000000  0.5672850000000 1.0
C      1  0.4730450000000  0.5250540000000  0.4872810000000 1.0
C      1  0.3979510000000  0.4857160000000  0.5544140000000 1.0
C      1  0.4948630000000  0.4220160000000  0.5212370000000 1.0
C      1  0.4634170000000  0.4401580000000  0.4505730000000 1.0
C      1  0.4385540000000  0.4830840000000  0.4529570000000 1.0
C      1  0.5759840000000  0.4660580000000  0.4618810000000 1.0
C      1  0.4792200000000  0.4953880000000  0.4897850000000 1.0
C      1  0.5257500000000  0.5400650000000  0.4703610000000 1.0
C      1  0.4221530000000  0.4963070000000  0.5498710000000 1.0
C      1  0.5860840000000  0.5467870000000  0.5141800000000 1.0
C      1  0.5348530000000  0.4746690000000  0.5677820000000 1.0
C      1  0.4520310000000  0.5704530000000  0.4650300000000 1.0
C      1  0.5559130000000  0.4581430000000  0.5062910000000 1.0
C      1  0.5020550000000  0.5417000000000  0.5256080000000 1.0
C      1  0.5071780000000  0.4815840000000  0.4636650000000 1.0
C      1  0.4249700000000  0.5296800000000  0.4689980000000 1.0
C      1  0.4718790000000  0.5361230000000  0.5154220000000 1.0
C      1  0.4570030000000  0.5049310000000  0.4402490000000 1.0
C      1  0.5292740000000  0.4163120000000  0.4868600000000 1.0
C      1  0.4789260000000  0.4717500000000  0.5389480000000 1.0
C      1  0.5358730000000  0.5080440000000  0.5072980000000 1.0
C      1  0.5842800000000  0.4886660000000  0.4772530000000 1.0
C      1  0.4665310000000  0.4825110000000  0.5657560000000 1.0
C      1  0.5285650000000  0.5186050000000  0.4209130000000 1.0
C      1  0.5303900000000  0.5406520000000  0.4363230000000 1.0
C      1  0.5418070000000  0.4328150000000  0.4667060000000 1.0
C      1  0.5031280000000  0.4529980000000  0.4981750000000 1.0
C      1  0.4268340000000  0.5600070000000  0.4634040000000 1.0
C      1  0.4813010000000  0.5490100000000  0.5519450000000 1.0
C      1  0.4633370000000  0.4843310000000  0.5159540000000 1.0
C      1  0.5341970000000  0.4991630000000  0.5822080000000 1.0
C      1  0.5500190000000  0.5701680000000  0.4891820000000 1.0
C      1  0.4567850000000  0.5702180000000  0.5491150000000 1.0
C      1  0.5243720000000  0.4697200000000  0.5115170000000 1.0
C      1  0.4422240000000  0.5050790000000  0.5238640000000 1.0
C      1  0.5818520000000  0.5392740000000  0.4669010000000 1.0
C      1  0.4513580000000  0.5290680000000  0.4525690000000 1.0
C      1  0.5340280000000  0.5229740000000  0.5602340000000 1.0
C      1  0.4269460000000  0.4671540000000  0.4883640000000 1.0
C      1  0.5337510000000  0.4912230000000  0.4494300000000 1.0
C      1  0.5364080000000  0.4492780000000  0.4420540000000 1.0
C      1  0.5120730000000  0.5661360000000  0.4315450000000 1.0
C      1  0.4741740000000  0.4368270000000  0.4986780000000 1.0
C      1  0.4491330000000  0.4275280000000  0.5419240000000 1.0
C      1  0.4585790000000  0.5263280000000  0.5451450000000 1.0
C      1  0.5416930000000  0.5121420000000  0.4740280000000 1.0
C      1  0.5654350000000  0.5497330000000  0.5381140000000 1.0
C      1  0.5458910000000  0.5958410000000  0.4804280000000 1.0
C      1  0.5538890000000  0.5454090000000  0.5612170000000 1.0
C      1  0.4593190000000  0.5963740000000  0.4696010000000 1.0
C      1  0.4932450000000  0.5424760000000  0.5807890000000 1.0
C      1  0.5594950000000  0.4923870000000  0.5260900000000 1.0
C      1  0.4403790000000  0.5438720000000  0.5143920000000 1.0
C      1  0.5643240000000  0.4462030000000  0.4789780000000 1.0
C      1  0.4736340000000  0.5477600000000  0.4651890000000 1.0
C      1  0.4403860000000  0.4528250000000  0.4429850000000 1.0
C      1  0.5174210000000  0.5148830000000  0.5350330000000 1.0
C      1  0.4360950000000  0.5643220000000  0.5316160000000 1.0
C      1  0.5097300000000  0.4925490000000  0.4253930000000 1.0
C      1  0.5000810000000  0.5554440000000  0.4567170000000 1.0
C      1  0.4876320000000  0.4591920000000  0.4482530000000 1.0
C      1  0.5132410000000  0.4597850000000  0.4307340000000 1.0
C      1  0.5233960000000  0.5530920000000  0.5016880000000 1.0
C      1  0.4193300000000  0.4943280000000  0.4765450000000 1.0
C      1  0.5224560000000  0.4222830000000  0.5148710000000 1.0
C      1  0.4675880000000  0.4766230000000  0.4664370000000 1.0
C      1  0.4795470000000  0.4999240000000  0.4266620000000 1.0
C      1  0.5078700000000  0.4640470000000  0.5653440000000 1.0
C      1  0.5424050000000  0.4389500000000  0.5290690000000 1.0
C      1  0.5829950000000  0.5161320000000  0.5254100000000 1.0
C      1  0.5114460000000  0.5230860000000  0.5820400000000 1.0
C      1  0.3753700000000  0.4730540000000  0.5584910000000 1.0
C      1  0.4485820000000  0.5026260000000  0.5630260000000 1.0
C      1  0.5722880000000  0.5131800000000  0.4694760000000 1.0
C      1  0.4561300000000  0.4630400000000  0.4939450000000 1.0
C      1  0.4749730000000  0.4379640000000  0.5400830000000 1.0
C      1  0.4659480000000  0.4229770000000  0.4716240000000 1.0
C      1  0.5106270000000  0.4826150000000  0.5369800000000 1.0
C      1  0.4270150000000  0.5182130000000  0.4993680000000 1.0
END
