TITL C-2848507-1641-331 0.000860235326564388 125000 -132.439039473874 0 0 25 (C1) n - 1
REM
REM in /home/bkarasulu/work/CARBON/AIRSS/Generating-Clusters/AIREBO/with-SteepDescent/Only-C1/SD-CG-opt/Try1-1.4A-POS3A/HFTN-CG
REM
REM
REM
REM
REM
REM ./C.cell (11c1c37f851c82e70ff6c80c92926a4b)
REM
REM compiler GCC version 9.2.1 20190827 (Red Hat 9.2.1-1)
REM options -cpp -mtune=generic -march=x86-64 -g -O0 -fpre-include=/usr/include/finclude/math-vector-fortran.h
REM seed -110122209 -916210183 1704187984 -624726534 414692235 1513674209 619087829 -1181322624 -595690246 2132045802 886691286 1405449058 -429603764 -1500312647 2005671637 831594942 -1820949908 -1148128847 -2112509489 1564610885 -1311951954 -143415939 -1342098911 -1716162962 -1389856540 -1513009602 689796864 -822437093 1400174947 421100423 -749034027 1199624918 -1040754003
REM
CELL 1.54180   50.00000   50.00000   50.00000   90.00000   90.00000   90.00000
LATT -1
SFAC C  
C      1  0.5296530000000  0.4723740000000  0.4552030000000 1.0
C      1  0.4760350000000  0.5624090000000  0.5113240000000 1.0
C      1  0.5490420000000  0.5125840000000  0.5296790000000 1.0
C      1  0.4620470000000  0.5828540000000  0.5165960000000 1.0
C      1  0.4725720000000  0.4483560000000  0.5566700000000 1.0
C      1  0.4965150000000  0.5142170000000  0.5269360000000 1.0
C      1  0.5271940000000  0.5270260000000  0.5266110000000 1.0
C      1  0.4597250000000  0.5176270000000  0.4496750000000 1.0
C      1  0.5167450000000  0.4523790000000  0.5386630000000 1.0
C      1  0.5544170000000  0.4858140000000  0.5279780000000 1.0
C      1  0.5050470000000  0.5470580000000  0.5140210000000 1.0
C      1  0.5327450000000  0.4951680000000  0.4384430000000 1.0
C      1  0.4905380000000  0.4909110000000  0.5435020000000 1.0
C      1  0.4783550000000  0.5294640000000  0.5031650000000 1.0
C      1  0.5349130000000  0.4630590000000  0.5118910000000 1.0
C      1  0.4275380000000  0.4783410000000  0.5028970000000 1.0
C      1  0.4666650000000  0.5130160000000  0.4826170000000 1.0
C      1  0.4884820000000  0.5020080000000  0.4589920000000 1.0
C      1  0.5080330000000  0.5372250000000  0.4274060000000 1.0
C      1  0.5008860000000  0.4759220000000  0.4685310000000 1.0
C      1  0.5107450000000  0.5132930000000  0.4402380000000 1.0
C      1  0.4462180000000  0.4930550000000  0.4936250000000 1.0
C      1  0.5250260000000  0.4647470000000  0.4858830000000 1.0
C      1  0.4927270000000  0.4631600000000  0.5466610000000 1.0
C      1  0.5481340000000  0.4579340000000  0.5427940000000 1.0
END
