TITL C-2848503-6230-406 -0.000989578256233855 125000 -276.490682128668 0 0 53 (C1) n - 1
REM
REM in /home/bkarasulu/work/CARBON/AIRSS/Generating-Clusters/AIREBO/with-SteepDescent/Only-C1/SD-CG-opt/Try1-1.4A-POS3A/HFTN-CG
REM
REM
REM
REM
REM
REM ./C.cell (11c1c37f851c82e70ff6c80c92926a4b)
REM
REM compiler GCC version 9.2.1 20190827 (Red Hat 9.2.1-1)
REM options -cpp -mtune=generic -march=x86-64 -g -O0 -fpre-include=/usr/include/finclude/math-vector-fortran.h
REM seed -366497668 -755189313 702241251 2074676486 -1067274206 -1595124974 -1750662944 -1778637870 -1969452455 -1203238209 -942751849 1921951510 -135365094 -1268997684 1877241242 -67128228 215575314 -2138682576 1075002724 -1179810003 -238409056 1812688752 -793072392 -1277652879 1261139325 -98267565 615341632 1681494019 -1927892925 -900919122 -2091325800 814806839 -438845077
REM
CELL 1.54180   50.00000   50.00000   50.00000   90.00000   90.00000   90.00000
LATT -1
SFAC C  
C      1  0.4846780000000  0.5083260000000  0.5013540000000 1.0
C      1  0.4981680000000  0.4562490000000  0.4361630000000 1.0
C      1  0.5392340000000  0.4882200000000  0.5617980000000 1.0
C      1  0.4576770000000  0.5646340000000  0.4829540000000 1.0
C      1  0.4913380000000  0.4229280000000  0.5328220000000 1.0
C      1  0.5211270000000  0.4793500000000  0.4668920000000 1.0
C      1  0.5326260000000  0.5146420000000  0.4526650000000 1.0
C      1  0.5590910000000  0.5080620000000  0.4391510000000 1.0
C      1  0.4537300000000  0.5042360000000  0.5127180000000 1.0
C      1  0.4754940000000  0.5347340000000  0.5466040000000 1.0
C      1  0.5051240000000  0.4430870000000  0.4645590000000 1.0
C      1  0.5009020000000  0.4672590000000  0.5130100000000 1.0
C      1  0.4539110000000  0.5329120000000  0.4944530000000 1.0
C      1  0.5161770000000  0.5680170000000  0.5344800000000 1.0
C      1  0.5391730000000  0.4510880000000  0.5477740000000 1.0
C      1  0.5340350000000  0.4516020000000  0.4514990000000 1.0
C      1  0.4841720000000  0.5059550000000  0.5522940000000 1.0
C      1  0.5029270000000  0.5203490000000  0.4766690000000 1.0
C      1  0.4413320000000  0.4836100000000  0.4688130000000 1.0
C      1  0.5844010000000  0.4777910000000  0.5340680000000 1.0
C      1  0.4335480000000  0.5250820000000  0.5277450000000 1.0
C      1  0.4629840000000  0.4810910000000  0.5536510000000 1.0
C      1  0.4911890000000  0.4802730000000  0.4832650000000 1.0
C      1  0.5014150000000  0.5507690000000  0.4883220000000 1.0
C      1  0.5503580000000  0.4792810000000  0.4495160000000 1.0
C      1  0.4527670000000  0.5146560000000  0.4657630000000 1.0
C      1  0.4506240000000  0.4788920000000  0.5288270000000 1.0
C      1  0.4616430000000  0.4634440000000  0.4823550000000 1.0
C      1  0.4850060000000  0.5661020000000  0.4627800000000 1.0
C      1  0.5569140000000  0.4778940000000  0.5365000000000 1.0
C      1  0.4931390000000  0.4742380000000  0.5624660000000 1.0
C      1  0.5242490000000  0.5522640000000  0.5134510000000 1.0
C      1  0.5024280000000  0.5131570000000  0.4432510000000 1.0
C      1  0.4769680000000  0.4970940000000  0.4573600000000 1.0
C      1  0.5425300000000  0.5576630000000  0.4515350000000 1.0
C      1  0.4515320000000  0.4562830000000  0.5126500000000 1.0
C      1  0.5123390000000  0.4344810000000  0.5397180000000 1.0
C      1  0.4813910000000  0.4363060000000  0.4769030000000 1.0
C      1  0.4777310000000  0.5468570000000  0.5125150000000 1.0
C      1  0.5088180000000  0.4944780000000  0.5318640000000 1.0
C      1  0.5187270000000  0.4678440000000  0.5691660000000 1.0
C      1  0.4594000000000  0.5444820000000  0.4567760000000 1.0
C      1  0.5626600000000  0.5392800000000  0.4443170000000 1.0
C      1  0.5318680000000  0.5046290000000  0.4851610000000 1.0
C      1  0.5193340000000  0.5643810000000  0.4628110000000 1.0
C      1  0.4795230000000  0.4407820000000  0.5097840000000 1.0
C      1  0.4447570000000  0.5374760000000  0.5469410000000 1.0
C      1  0.5261450000000  0.5125300000000  0.5549180000000 1.0
C      1  0.5386730000000  0.4980220000000  0.5159700000000 1.0
C      1  0.4926830000000  0.4822060000000  0.4330870000000 1.0
C      1  0.5126300000000  0.5231810000000  0.5148980000000 1.0
C      1  0.5310620000000  0.4589440000000  0.5156900000000 1.0
C      1  0.4896510000000  0.5628850000000  0.5393050000000 1.0
END
