TITL C-2847947-6848-202 -0.00213139249895018 125000 -613.007526502555 0 0 118 (C1) n - 1
REM
REM in /home/bkarasulu/work/CARBON/AIRSS/Generating-Clusters/AIREBO/with-SteepDescent/Only-C1/SD-CG-opt/Try1-1.4A-POS3A/HFTN-CG
REM
REM
REM
REM
REM
REM ./C.cell (11c1c37f851c82e70ff6c80c92926a4b)
REM
REM compiler GCC version 9.2.1 20190827 (Red Hat 9.2.1-1)
REM options -cpp -mtune=generic -march=x86-64 -g -O0 -fpre-include=/usr/include/finclude/math-vector-fortran.h
REM seed 14387269 362312487 1867541347 -54775564 -1882924805 1559861874 908034861 -1008391952 -420746433 -1034539780 439335511 -968810451 1685916206 2117430465 -1421163164 1165223510 1213751327 -1514737018 -60393048 2018775409 -474989526 1240584289 -1008198916 -1854323653 1855678616 -1642141275 -1868642947 1563533976 -507942726 1456748406 -610990079 1645216548 777636224
REM
CELL 1.54180   50.00000   50.00000   50.00000   90.00000   90.00000   90.00000
LATT -1
SFAC C  
C      1  0.4837340000000  0.5036080000000  0.5969720000000 1.0
C      1  0.4768670000000  0.4529930000000  0.5689040000000 1.0
C      1  0.5582480000000  0.4390300000000  0.5241010000000 1.0
C      1  0.5437820000000  0.5228320000000  0.5164800000000 1.0
C      1  0.5011530000000  0.5358210000000  0.5597610000000 1.0
C      1  0.4628220000000  0.4847540000000  0.5134870000000 1.0
C      1  0.4398940000000  0.5191940000000  0.4400950000000 1.0
C      1  0.5378480000000  0.5897360000000  0.5370660000000 1.0
C      1  0.5562770000000  0.5319000000000  0.5714690000000 1.0
C      1  0.5656420000000  0.4976830000000  0.4173190000000 1.0
C      1  0.5000290000000  0.4815400000000  0.5964420000000 1.0
C      1  0.4854160000000  0.5032280000000  0.4123880000000 1.0
C      1  0.3875870000000  0.5320730000000  0.5209730000000 1.0
C      1  0.5532900000000  0.5616180000000  0.5256660000000 1.0
C      1  0.4114020000000  0.5225790000000  0.4772990000000 1.0
C      1  0.5431050000000  0.4252590000000  0.4627290000000 1.0
C      1  0.5418750000000  0.4900620000000  0.4635810000000 1.0
C      1  0.5189950000000  0.5008580000000  0.5673040000000 1.0
C      1  0.5098740000000  0.5901970000000  0.5373360000000 1.0
C      1  0.5680700000000  0.5765430000000  0.4595370000000 1.0
C      1  0.5144980000000  0.4228020000000  0.5459650000000 1.0
C      1  0.4502670000000  0.5525330000000  0.4805190000000 1.0
C      1  0.4598290000000  0.5057670000000  0.4719960000000 1.0
C      1  0.5155290000000  0.5607650000000  0.5769880000000 1.0
C      1  0.4728200000000  0.4980970000000  0.5498290000000 1.0
C      1  0.4369680000000  0.4304010000000  0.5442500000000 1.0
C      1  0.4534000000000  0.5355980000000  0.5516200000000 1.0
C      1  0.5420860000000  0.4443370000000  0.4421190000000 1.0
C      1  0.4205240000000  0.4907630000000  0.5196520000000 1.0
C      1  0.4983460000000  0.5868010000000  0.5090990000000 1.0
C      1  0.4038980000000  0.4525670000000  0.5059480000000 1.0
C      1  0.4341410000000  0.4657590000000  0.5625570000000 1.0
C      1  0.4635790000000  0.4660360000000  0.4389780000000 1.0
C      1  0.4899530000000  0.4751000000000  0.4066950000000 1.0
C      1  0.4796620000000  0.5488260000000  0.4476890000000 1.0
C      1  0.5805810000000  0.5116060000000  0.5068870000000 1.0
C      1  0.4099970000000  0.4684360000000  0.4867420000000 1.0
C      1  0.5523630000000  0.4375520000000  0.4905810000000 1.0
C      1  0.5005670000000  0.5114110000000  0.4911180000000 1.0
C      1  0.4300160000000  0.5143580000000  0.5627430000000 1.0
C      1  0.5071190000000  0.4690320000000  0.5654780000000 1.0
C      1  0.4669980000000  0.5056140000000  0.4387580000000 1.0
C      1  0.5020560000000  0.5547550000000  0.4862360000000 1.0
C      1  0.5797570000000  0.5516660000000  0.4677680000000 1.0
C      1  0.5113600000000  0.4071500000000  0.4920330000000 1.0
C      1  0.4713920000000  0.4319140000000  0.4749640000000 1.0
C      1  0.5061550000000  0.5551250000000  0.5187030000000 1.0
C      1  0.5411090000000  0.4186520000000  0.5415330000000 1.0
C      1  0.5050450000000  0.5015540000000  0.5395420000000 1.0
C      1  0.5139410000000  0.5863680000000  0.4788860000000 1.0
C      1  0.5181790000000  0.4126050000000  0.4659090000000 1.0
C      1  0.5595390000000  0.4684520000000  0.5411000000000 1.0
C      1  0.5113380000000  0.4510250000000  0.4743330000000 1.0
C      1  0.4771250000000  0.5778820000000  0.4651800000000 1.0
C      1  0.5137380000000  0.5238290000000  0.5164310000000 1.0
C      1  0.5694590000000  0.5030840000000  0.4485220000000 1.0
C      1  0.5322200000000  0.4821530000000  0.5932390000000 1.0
C      1  0.4509250000000  0.4528890000000  0.5122570000000 1.0
C      1  0.5333520000000  0.5175890000000  0.4297460000000 1.0
C      1  0.5807980000000  0.5417950000000  0.5230070000000 1.0
C      1  0.4954260000000  0.5752370000000  0.5561970000000 1.0
C      1  0.4378560000000  0.4875940000000  0.4905440000000 1.0
C      1  0.4454160000000  0.5487110000000  0.4470830000000 1.0
C      1  0.4779320000000  0.5329650000000  0.4777200000000 1.0
C      1  0.4784430000000  0.5364070000000  0.4161770000000 1.0
C      1  0.5904490000000  0.5294520000000  0.4530630000000 1.0
C      1  0.5614300000000  0.5329960000000  0.4892400000000 1.0
C      1  0.4969670000000  0.4477810000000  0.4263050000000 1.0
C      1  0.4955190000000  0.4309010000000  0.4530420000000 1.0
C      1  0.4503840000000  0.5682920000000  0.5072990000000 1.0
C      1  0.5204890000000  0.4844660000000  0.5149260000000 1.0
C      1  0.4374000000000  0.4753990000000  0.4587990000000 1.0
C      1  0.4601360000000  0.5151190000000  0.5252890000000 1.0
C      1  0.4454090000000  0.4904390000000  0.5664300000000 1.0
C      1  0.5616360000000  0.5271190000000  0.5450980000000 1.0
C      1  0.5379460000000  0.4900320000000  0.4115040000000 1.0
C      1  0.5268900000000  0.4553850000000  0.5014290000000 1.0
C      1  0.5263490000000  0.4623250000000  0.4172300000000 1.0
C      1  0.5116870000000  0.5373790000000  0.4469350000000 1.0
C      1  0.4728310000000  0.5833120000000  0.4921220000000 1.0
C      1  0.5490030000000  0.5285960000000  0.4578580000000 1.0
C      1  0.5059350000000  0.4533840000000  0.5353130000000 1.0
C      1  0.5207040000000  0.4695910000000  0.4499680000000 1.0
C      1  0.5890880000000  0.5109200000000  0.5385270000000 1.0
C      1  0.4472020000000  0.4392620000000  0.5722950000000 1.0
C      1  0.4911710000000  0.4842330000000  0.4470020000000 1.0
C      1  0.4094560000000  0.5089680000000  0.5454450000000 1.0
C      1  0.4802750000000  0.4517180000000  0.4994060000000 1.0
C      1  0.4833200000000  0.4245850000000  0.5507960000000 1.0
C      1  0.5305030000000  0.5509650000000  0.4719700000000 1.0
C      1  0.5584620000000  0.4766950000000  0.4858990000000 1.0
C      1  0.4142130000000  0.5222640000000  0.5084310000000 1.0
C      1  0.5092760000000  0.5271230000000  0.4084190000000 1.0
C      1  0.5269860000000  0.5524360000000  0.5451750000000 1.0
C      1  0.5789260000000  0.4604440000000  0.5076640000000 1.0
C      1  0.5881140000000  0.4833900000000  0.5467760000000 1.0
C      1  0.4781110000000  0.5219430000000  0.5713650000000 1.0
C      1  0.4224740000000  0.5045940000000  0.4578470000000 1.0
C      1  0.5769800000000  0.4518410000000  0.4719610000000 1.0
C      1  0.5216050000000  0.5564730000000  0.4203640000000 1.0
C      1  0.4608400000000  0.4191870000000  0.5323300000000 1.0
C      1  0.5119670000000  0.5067530000000  0.4617300000000 1.0
C      1  0.4693590000000  0.5653850000000  0.5563030000000 1.0
C      1  0.4197830000000  0.5488290000000  0.4685720000000 1.0
C      1  0.5442830000000  0.5883800000000  0.4723890000000 1.0
C      1  0.4393940000000  0.5413520000000  0.5211580000000 1.0
C      1  0.4772120000000  0.4673760000000  0.5390490000000 1.0
C      1  0.5879650000000  0.4773190000000  0.4589330000000 1.0
C      1  0.4919790000000  0.4816200000000  0.4972730000000 1.0
C      1  0.4236550000000  0.4588280000000  0.5309650000000 1.0
C      1  0.5447240000000  0.5691670000000  0.4969320000000 1.0
C      1  0.5293570000000  0.5295970000000  0.5777040000000 1.0
C      1  0.5045640000000  0.4321850000000  0.5087660000000 1.0
C      1  0.4643640000000  0.4154980000000  0.5039160000000 1.0
C      1  0.5539440000000  0.4905220000000  0.5157190000000 1.0
C      1  0.4674490000000  0.4509050000000  0.4097220000000 1.0
C      1  0.4491340000000  0.4447710000000  0.4597520000000 1.0
C      1  0.5410890000000  0.4674380000000  0.5653650000000 1.0
END
