TITL C-2848502-4955-504 -0.000435799083137363 125000 -267.487942165765 0 0 49 (C1) n - 1
REM
REM in /home/bkarasulu/work/CARBON/AIRSS/Generating-Clusters/AIREBO/with-SteepDescent/Only-C1/SD-CG-opt/Try1-1.4A-POS3A/HFTN-CG
REM
REM
REM
REM
REM
REM ./C.cell (11c1c37f851c82e70ff6c80c92926a4b)
REM
REM compiler GCC version 9.2.1 20190827 (Red Hat 9.2.1-1)
REM options -cpp -mtune=generic -march=x86-64 -g -O0 -fpre-include=/usr/include/finclude/math-vector-fortran.h
REM seed -2112168487 1578628773 -1508026025 1470730724 1457049740 1372134449 23042885 2014577734 -1775793553 821152295 1850972854 -82511371 -2079065590 -1032402634 348765219 539370843 325421838 120889867 920421958 2027806978 1140548067 -836065840 -1033720706 -871193459 -29009995 187775787 824032823 1415609818 -299931853 1786730256 1344049633 -1665947883 -53942072
REM
CELL 1.54180   50.00000   50.00000   50.00000   90.00000   90.00000   90.00000
LATT -1
SFAC C  
C      1  0.5792560000000  0.5227890000000  0.5332010000000 1.0
C      1  0.5110620000000  0.5060840000000  0.5242420000000 1.0
C      1  0.4943070000000  0.4508970000000  0.4725200000000 1.0
C      1  0.4997140000000  0.5301520000000  0.5540400000000 1.0
C      1  0.4455850000000  0.5317360000000  0.5848170000000 1.0
C      1  0.5658850000000  0.4565230000000  0.5168680000000 1.0
C      1  0.5497010000000  0.5423310000000  0.4588920000000 1.0
C      1  0.4921960000000  0.4136010000000  0.5724700000000 1.0
C      1  0.4922210000000  0.4970570000000  0.5581520000000 1.0
C      1  0.5699380000000  0.4733230000000  0.4431190000000 1.0
C      1  0.5111810000000  0.5031740000000  0.4843970000000 1.0
C      1  0.4915350000000  0.4809090000000  0.4831190000000 1.0
C      1  0.4479040000000  0.5343080000000  0.5070520000000 1.0
C      1  0.5291910000000  0.5102240000000  0.4611070000000 1.0
C      1  0.5057360000000  0.5390990000000  0.5237140000000 1.0
C      1  0.6003780000000  0.5524930000000  0.4663080000000 1.0
C      1  0.5125470000000  0.4370010000000  0.4870660000000 1.0
C      1  0.5194590000000  0.5415430000000  0.5741390000000 1.0
C      1  0.4961330000000  0.5074520000000  0.4228460000000 1.0
C      1  0.4746940000000  0.4887890000000  0.4211280000000 1.0
C      1  0.5172940000000  0.5394440000000  0.4506790000000 1.0
C      1  0.5190870000000  0.4476200000000  0.5127590000000 1.0
C      1  0.5352600000000  0.4929420000000  0.5231490000000 1.0
C      1  0.5578670000000  0.5080680000000  0.5296410000000 1.0
C      1  0.4666350000000  0.5311210000000  0.4828430000000 1.0
C      1  0.4923100000000  0.5332560000000  0.4353360000000 1.0
C      1  0.4946440000000  0.5272340000000  0.4946230000000 1.0
C      1  0.5475820000000  0.4876460000000  0.4443010000000 1.0
C      1  0.4685300000000  0.5373570000000  0.4496470000000 1.0
C      1  0.4605200000000  0.4828900000000  0.4438040000000 1.0
C      1  0.5143230000000  0.5611830000000  0.5017300000000 1.0
C      1  0.5750020000000  0.5480450000000  0.4614940000000 1.0
C      1  0.4610230000000  0.4915760000000  0.4823970000000 1.0
C      1  0.4633690000000  0.4588460000000  0.4656160000000 1.0
C      1  0.4278310000000  0.4907210000000  0.5323770000000 1.0
C      1  0.5403430000000  0.4653710000000  0.5179700000000 1.0
C      1  0.4936450000000  0.4677170000000  0.5590440000000 1.0
C      1  0.4942130000000  0.4365120000000  0.5591710000000 1.0
C      1  0.4518140000000  0.5134220000000  0.5291180000000 1.0
C      1  0.5214390000000  0.4983450000000  0.4306370000000 1.0
C      1  0.4522830000000  0.5106560000000  0.4593100000000 1.0
C      1  0.4774740000000  0.4718620000000  0.5127760000000 1.0
C      1  0.4488110000000  0.4644290000000  0.4960640000000 1.0
C      1  0.5222650000000  0.5588590000000  0.4772200000000 1.0
C      1  0.4784890000000  0.4992720000000  0.5277390000000 1.0
C      1  0.4257560000000  0.4696880000000  0.5161820000000 1.0
C      1  0.4383170000000  0.5130550000000  0.5590360000000 1.0
C      1  0.4948930000000  0.4528590000000  0.5293480000000 1.0
C      1  0.4703580000000  0.5205210000000  0.5667940000000 1.0
END
