TITL C-2848503-6230-154 0.000910330049711356 125000 -265.391433485217 0 0 48 (C1) n - 1
REM
REM in /home/bkarasulu/work/CARBON/AIRSS/Generating-Clusters/AIREBO/with-SteepDescent/Only-C1/SD-CG-opt/Try1-1.4A-POS3A/HFTN-CG
REM
REM
REM
REM
REM
REM ./C.cell (11c1c37f851c82e70ff6c80c92926a4b)
REM
REM compiler GCC version 9.2.1 20190827 (Red Hat 9.2.1-1)
REM options -cpp -mtune=generic -march=x86-64 -g -O0 -fpre-include=/usr/include/finclude/math-vector-fortran.h
REM seed 563480722 103316645 473847792 154935859 -1434928735 -1672271077 -1143697380 1923949313 -1422512753 1571632161 1122434081 -1284946042 1923700608 492836750 -59520508 -1853413615 1273071854 -1555026470 1440253311 2579282 -1450591007 -620016486 -1085115238 1531512760 -1349717557 335722682 1656897093 271310276 -488226291 916064043 1466303826 1723429567 1210838875
REM
CELL 1.54180   50.00000   50.00000   50.00000   90.00000   90.00000   90.00000
LATT -1
SFAC C  
C      1  0.4515540000000  0.5066850000000  0.4991810000000 1.0
C      1  0.4699460000000  0.4558970000000  0.5351160000000 1.0
C      1  0.5250240000000  0.4742590000000  0.5342180000000 1.0
C      1  0.4230290000000  0.4885420000000  0.4756580000000 1.0
C      1  0.4591000000000  0.5021430000000  0.5462250000000 1.0
C      1  0.4831350000000  0.4480760000000  0.4607540000000 1.0
C      1  0.5418940000000  0.5011740000000  0.4577050000000 1.0
C      1  0.5976800000000  0.5156960000000  0.5185230000000 1.0
C      1  0.4942980000000  0.5368000000000  0.5475620000000 1.0
C      1  0.5242360000000  0.4571450000000  0.4779660000000 1.0
C      1  0.5997200000000  0.5497040000000  0.4845850000000 1.0
C      1  0.4569210000000  0.4748970000000  0.4917820000000 1.0
C      1  0.4769180000000  0.4328990000000  0.5481320000000 1.0
C      1  0.4504250000000  0.4748060000000  0.5440840000000 1.0
C      1  0.5566620000000  0.5371610000000  0.5035670000000 1.0
C      1  0.5192890000000  0.4799550000000  0.4564290000000 1.0
C      1  0.5077690000000  0.4824840000000  0.5148000000000 1.0
C      1  0.5086530000000  0.5370660000000  0.4425490000000 1.0
C      1  0.4850790000000  0.4735480000000  0.4189430000000 1.0
C      1  0.4376640000000  0.5029270000000  0.4576340000000 1.0
C      1  0.5319240000000  0.5307540000000  0.4539630000000 1.0
C      1  0.4256990000000  0.4766190000000  0.5032040000000 1.0
C      1  0.5422130000000  0.5446270000000  0.5330830000000 1.0
C      1  0.5855860000000  0.5346970000000  0.5027100000000 1.0
C      1  0.4817470000000  0.5254230000000  0.4555840000000 1.0
C      1  0.4693730000000  0.5470920000000  0.4734930000000 1.0
C      1  0.4987490000000  0.4953780000000  0.5738840000000 1.0
C      1  0.5110950000000  0.5085200000000  0.5006680000000 1.0
C      1  0.5263050000000  0.5383590000000  0.5534380000000 1.0
C      1  0.5486580000000  0.4457960000000  0.4821100000000 1.0
C      1  0.5040970000000  0.5060310000000  0.4695610000000 1.0
C      1  0.5068820000000  0.5341850000000  0.5175260000000 1.0
C      1  0.4983730000000  0.4478650000000  0.4852210000000 1.0
C      1  0.4831090000000  0.4641750000000  0.5085470000000 1.0
C      1  0.4675830000000  0.4946860000000  0.4197100000000 1.0
C      1  0.4490570000000  0.5172180000000  0.5243370000000 1.0
C      1  0.6094470000000  0.4994420000000  0.5353830000000 1.0
C      1  0.4794460000000  0.5599760000000  0.5526940000000 1.0
C      1  0.4567760000000  0.4564770000000  0.4665600000000 1.0
C      1  0.5381800000000  0.5200080000000  0.4850700000000 1.0
C      1  0.4250470000000  0.4721530000000  0.5307980000000 1.0
C      1  0.4598560000000  0.5098370000000  0.4419160000000 1.0
C      1  0.4820360000000  0.5114980000000  0.5584250000000 1.0
C      1  0.5461480000000  0.4638460000000  0.5567930000000 1.0
C      1  0.5274620000000  0.5546880000000  0.5069470000000 1.0
C      1  0.4980080000000  0.4626900000000  0.4411820000000 1.0
C      1  0.5197060000000  0.4797770000000  0.5655370000000 1.0
C      1  0.4584410000000  0.5663170000000  0.4862440000000 1.0
END
