TITL C-2848501-3133-429 0.000950568419015796 125000 -751.151633007288 0 0 137 (C1) n - 1
REM
REM in /home/bkarasulu/work/CARBON/AIRSS/Generating-Clusters/AIREBO/with-SteepDescent/Only-C1/SD-CG-opt/Try1-1.4A-POS3A/HFTN-CG
REM
REM
REM
REM
REM
REM ./C.cell (11c1c37f851c82e70ff6c80c92926a4b)
REM
REM compiler GCC version 9.2.1 20190827 (Red Hat 9.2.1-1)
REM options -cpp -mtune=generic -march=x86-64 -g -O0 -fpre-include=/usr/include/finclude/math-vector-fortran.h
REM seed -1930298596 1404716569 -487556895 122154836 -1295851229 -1897426889 1249769012 2135132818 -1875516880 221618338 -1628436078 -2005301663 187891280 -715335901 -1805917264 -187920532 757313290 -1560800229 -749603425 883958698 -1856593650 1302616069 -1294691924 548776450 -1477060116 628317802 -1247331304 1238657406 -929939181 -1097254780 596782908 -26109529 -976256922
REM
CELL 1.54180   50.00000   50.00000   50.00000   90.00000   90.00000   90.00000
LATT -1
SFAC C  
C      1  0.4975760000000  0.5008110000000  0.4462800000000 1.0
C      1  0.4630710000000  0.4640740000000  0.5547580000000 1.0
C      1  0.4752550000000  0.5404950000000  0.5789000000000 1.0
C      1  0.5814480000000  0.5552520000000  0.4937750000000 1.0
C      1  0.4766230000000  0.5112130000000  0.5629760000000 1.0
C      1  0.5582540000000  0.4222750000000  0.5024080000000 1.0
C      1  0.5442140000000  0.4532230000000  0.5011140000000 1.0
C      1  0.4207820000000  0.4547470000000  0.5185100000000 1.0
C      1  0.5100730000000  0.5840260000000  0.5749790000000 1.0
C      1  0.5124360000000  0.4351050000000  0.4455300000000 1.0
C      1  0.4103800000000  0.5492440000000  0.4531090000000 1.0
C      1  0.4393930000000  0.5082130000000  0.5940540000000 1.0
C      1  0.5432790000000  0.4878320000000  0.4548220000000 1.0
C      1  0.5031490000000  0.4962930000000  0.5675940000000 1.0
C      1  0.4781360000000  0.5706610000000  0.4293620000000 1.0
C      1  0.5224520000000  0.5803430000000  0.4490060000000 1.0
C      1  0.4427150000000  0.4905430000000  0.4919750000000 1.0
C      1  0.5271910000000  0.5049950000000  0.4300490000000 1.0
C      1  0.5083100000000  0.4148780000000  0.5267060000000 1.0
C      1  0.5663750000000  0.5576820000000  0.4382320000000 1.0
C      1  0.5092210000000  0.4689150000000  0.4436570000000 1.0
C      1  0.4406580000000  0.3985700000000  0.5072890000000 1.0
C      1  0.5595590000000  0.5334890000000  0.5631080000000 1.0
C      1  0.4278030000000  0.4604880000000  0.4925220000000 1.0
C      1  0.4427050000000  0.5103120000000  0.5376710000000 1.0
C      1  0.4952820000000  0.5901710000000  0.4383290000000 1.0
C      1  0.4227130000000  0.4466790000000  0.5798000000000 1.0
C      1  0.5061130000000  0.5310220000000  0.3916850000000 1.0
C      1  0.5038850000000  0.5394800000000  0.5914210000000 1.0
C      1  0.5204860000000  0.5934070000000  0.5153980000000 1.0
C      1  0.5449200000000  0.5860010000000  0.5048430000000 1.0
C      1  0.4662870000000  0.5094860000000  0.4360920000000 1.0
C      1  0.5947850000000  0.4616180000000  0.5185190000000 1.0
C      1  0.4518820000000  0.5321520000000  0.4849040000000 1.0
C      1  0.5287550000000  0.4998140000000  0.4816150000000 1.0
C      1  0.4641900000000  0.4392980000000  0.4275150000000 1.0
C      1  0.5212580000000  0.4132780000000  0.5579770000000 1.0
C      1  0.4718910000000  0.5468690000000  0.5081280000000 1.0
C      1  0.4211850000000  0.4732610000000  0.5727130000000 1.0
C      1  0.4973730000000  0.5347520000000  0.4484030000000 1.0
C      1  0.5273790000000  0.5282830000000  0.4630630000000 1.0
C      1  0.4826620000000  0.4325040000000  0.5321240000000 1.0
C      1  0.4427760000000  0.5391370000000  0.5557760000000 1.0
C      1  0.5294070000000  0.4919790000000  0.5481900000000 1.0
C      1  0.4527100000000  0.5719630000000  0.4827110000000 1.0
C      1  0.5093840000000  0.4863940000000  0.4078170000000 1.0
C      1  0.4374500000000  0.5268500000000  0.5095860000000 1.0
C      1  0.5321420000000  0.4168490000000  0.4591260000000 1.0
C      1  0.5465500000000  0.4668150000000  0.5498420000000 1.0
C      1  0.5708510000000  0.4229250000000  0.5398940000000 1.0
C      1  0.5299600000000  0.4926850000000  0.5881920000000 1.0
C      1  0.5776800000000  0.4854340000000  0.5665490000000 1.0
C      1  0.4443970000000  0.5349680000000  0.5879290000000 1.0
C      1  0.5414010000000  0.4127180000000  0.5305630000000 1.0
C      1  0.3988920000000  0.5243350000000  0.4541460000000 1.0
C      1  0.4858830000000  0.4486530000000  0.5748000000000 1.0
C      1  0.4667630000000  0.5624500000000  0.5543570000000 1.0
C      1  0.5093460000000  0.4659660000000  0.5925370000000 1.0
C      1  0.4455670000000  0.4589780000000  0.4480560000000 1.0
C      1  0.5003750000000  0.5576420000000  0.4943760000000 1.0
C      1  0.5702940000000  0.5666710000000  0.4653970000000 1.0
C      1  0.5343870000000  0.4669880000000  0.4202440000000 1.0
C      1  0.5394980000000  0.5620380000000  0.4294990000000 1.0
C      1  0.4679130000000  0.4253090000000  0.5614500000000 1.0
C      1  0.5098370000000  0.5485100000000  0.5421760000000 1.0
C      1  0.4918920000000  0.5080360000000  0.5088910000000 1.0
C      1  0.5952290000000  0.4729020000000  0.5499850000000 1.0
C      1  0.5191100000000  0.3976910000000  0.4755590000000 1.0
C      1  0.5355820000000  0.5230080000000  0.5056960000000 1.0
C      1  0.4931400000000  0.5058160000000  0.3913870000000 1.0
C      1  0.4473580000000  0.5077320000000  0.4643440000000 1.0
C      1  0.5303110000000  0.5575460000000  0.5677740000000 1.0
C      1  0.5590260000000  0.4763690000000  0.5866140000000 1.0
C      1  0.5118760000000  0.4428960000000  0.4986550000000 1.0
C      1  0.4787100000000  0.4633390000000  0.5181660000000 1.0
C      1  0.4818340000000  0.4282250000000  0.4924160000000 1.0
C      1  0.4099500000000  0.4954320000000  0.4996420000000 1.0
C      1  0.5764180000000  0.4862250000000  0.4494720000000 1.0
C      1  0.5295990000000  0.5247030000000  0.5765990000000 1.0
C      1  0.4596170000000  0.5431310000000  0.4372100000000 1.0
C      1  0.4681080000000  0.4471590000000  0.4677350000000 1.0
C      1  0.4791460000000  0.5360200000000  0.5395560000000 1.0
C      1  0.5140000000000  0.5822520000000  0.5412530000000 1.0
C      1  0.4712600000000  0.5939310000000  0.5009030000000 1.0
C      1  0.4939470000000  0.4246040000000  0.4193550000000 1.0
C      1  0.5148350000000  0.4691020000000  0.4771920000000 1.0
C      1  0.4815830000000  0.4222010000000  0.4512070000000 1.0
C      1  0.6006470000000  0.4785980000000  0.4931240000000 1.0
C      1  0.4928580000000  0.4752200000000  0.5461440000000 1.0
C      1  0.4572220000000  0.4782430000000  0.4261910000000 1.0
C      1  0.5678610000000  0.5292940000000  0.5081430000000 1.0
C      1  0.4025930000000  0.5386670000000  0.5305350000000 1.0
C      1  0.4865870000000  0.4639100000000  0.4192740000000 1.0
C      1  0.4885630000000  0.4985110000000  0.4781580000000 1.0
C      1  0.5555420000000  0.5592490000000  0.5445170000000 1.0
C      1  0.5593770000000  0.5248670000000  0.4597650000000 1.0
C      1  0.4981550000000  0.5873260000000  0.4995760000000 1.0
C      1  0.4443990000000  0.4437360000000  0.5348760000000 1.0
C      1  0.5606200000000  0.4783120000000  0.4204180000000 1.0
C      1  0.4095470000000  0.5076000000000  0.5306190000000 1.0
C      1  0.5896610000000  0.4292700000000  0.5131190000000 1.0
C      1  0.5576510000000  0.5086940000000  0.4153760000000 1.0
C      1  0.4937090000000  0.5469890000000  0.4169720000000 1.0
C      1  0.4358360000000  0.5571220000000  0.4570910000000 1.0
C      1  0.5247390000000  0.5372290000000  0.4194540000000 1.0
C      1  0.5550020000000  0.4595110000000  0.4692950000000 1.0
C      1  0.5093160000000  0.5344240000000  0.5136140000000 1.0
C      1  0.4440520000000  0.4887230000000  0.3966490000000 1.0
C      1  0.5577480000000  0.5036060000000  0.5226810000000 1.0
C      1  0.5813190000000  0.5221650000000  0.4805740000000 1.0
C      1  0.4669470000000  0.5077040000000  0.4013210000000 1.0
C      1  0.4577460000000  0.4223670000000  0.5137020000000 1.0
C      1  0.4018910000000  0.4757810000000  0.5268210000000 1.0
C      1  0.4830260000000  0.4677120000000  0.4871930000000 1.0
C      1  0.5633260000000  0.4542490000000  0.5292220000000 1.0
C      1  0.4386150000000  0.4303460000000  0.5637600000000 1.0
C      1  0.5438790000000  0.5796340000000  0.4753480000000 1.0
C      1  0.5162360000000  0.4378130000000  0.5747350000000 1.0
C      1  0.4486370000000  0.4920820000000  0.5657630000000 1.0
C      1  0.5616090000000  0.5673070000000  0.5186610000000 1.0
C      1  0.5704270000000  0.5279820000000  0.4320560000000 1.0
C      1  0.5538000000000  0.4289780000000  0.4709350000000 1.0
C      1  0.5200460000000  0.5570700000000  0.4723450000000 1.0
C      1  0.5901860000000  0.4937570000000  0.4731600000000 1.0
C      1  0.5597170000000  0.5050860000000  0.5527170000000 1.0
C      1  0.4234260000000  0.4693020000000  0.4642880000000 1.0
C      1  0.4838530000000  0.5871940000000  0.5533320000000 1.0
C      1  0.5428820000000  0.4531670000000  0.5755280000000 1.0
C      1  0.4730960000000  0.5493270000000  0.4669050000000 1.0
C      1  0.4620270000000  0.4929290000000  0.5156970000000 1.0
C      1  0.5096170000000  0.4882080000000  0.5225820000000 1.0
C      1  0.4251110000000  0.5549670000000  0.5348670000000 1.0
C      1  0.4612260000000  0.5940080000000  0.5304370000000 1.0
C      1  0.5376430000000  0.4833670000000  0.5100150000000 1.0
C      1  0.4459010000000  0.5674250000000  0.5157580000000 1.0
C      1  0.5038580000000  0.4041460000000  0.4968340000000 1.0
C      1  0.4141690000000  0.5004970000000  0.4661140000000 1.0
END
