TITL C-2847959-7740-282 -0.00110177536749452 125000 -1006.40888687009 0 0 195 (C1) n - 1
REM
REM in /home/bkarasulu/work/CARBON/AIRSS/Generating-Clusters/AIREBO/with-SteepDescent/Only-C1/SD-CG-opt/Try1-1.4A-POS3A/HFTN-CG
REM
REM
REM
REM
REM
REM ./C.cell (11c1c37f851c82e70ff6c80c92926a4b)
REM
REM compiler GCC version 9.2.1 20190827 (Red Hat 9.2.1-1)
REM options -cpp -mtune=generic -march=x86-64 -g -O0 -fpre-include=/usr/include/finclude/math-vector-fortran.h
REM seed -1585345425 -705630422 -1946636652 1016688442 -521195839 -557140403 816663984 -829366170 1628601121 1209045349 -321777892 969954101 1022337445 -1702918455 -875477189 582141939 -521678731 199876406 53400329 -939239035 1286567637 1214244278 -582530973 1136553934 987985034 954444578 1415424419 153530534 1998529770 528652152 1037256430 532570779 -306999818
REM
CELL 1.54180   50.00000   50.00000   50.00000   90.00000   90.00000   90.00000
LATT -1
SFAC C  
C      1  0.5188000000000  0.4403920000000  0.5715010000000 1.0
C      1  0.5239220000000  0.4575800000000  0.4752140000000 1.0
C      1  0.5589770000000  0.4196310000000  0.5597310000000 1.0
C      1  0.4127370000000  0.5310790000000  0.5386500000000 1.0
C      1  0.5752450000000  0.5921330000000  0.4583770000000 1.0
C      1  0.5936860000000  0.4770950000000  0.5605970000000 1.0
C      1  0.5025430000000  0.4513690000000  0.5321460000000 1.0
C      1  0.5665090000000  0.4811320000000  0.5136460000000 1.0
C      1  0.6036860000000  0.5001760000000  0.5409500000000 1.0
C      1  0.4084280000000  0.4837570000000  0.5556520000000 1.0
C      1  0.5024810000000  0.5375900000000  0.5704700000000 1.0
C      1  0.5908340000000  0.4360410000000  0.4925130000000 1.0
C      1  0.5117420000000  0.4995330000000  0.5783370000000 1.0
C      1  0.4836730000000  0.5562890000000  0.5058200000000 1.0
C      1  0.3771240000000  0.4800590000000  0.4730790000000 1.0
C      1  0.5191000000000  0.4961060000000  0.4248620000000 1.0
C      1  0.4675970000000  0.5493780000000  0.4161480000000 1.0
C      1  0.4579970000000  0.5772610000000  0.4308820000000 1.0
C      1  0.5273810000000  0.5535700000000  0.5536550000000 1.0
C      1  0.4803670000000  0.3929860000000  0.5210730000000 1.0
C      1  0.5013610000000  0.5271000000000  0.4424600000000 1.0
C      1  0.5009090000000  0.5912500000000  0.5253770000000 1.0
C      1  0.4649890000000  0.4452840000000  0.4220630000000 1.0
C      1  0.4131140000000  0.5203650000000  0.4289010000000 1.0
C      1  0.5257340000000  0.4290930000000  0.4605530000000 1.0
C      1  0.4710260000000  0.5245750000000  0.5681890000000 1.0
C      1  0.5253120000000  0.5059780000000  0.4687970000000 1.0
C      1  0.5454020000000  0.3964480000000  0.5170130000000 1.0
C      1  0.5396440000000  0.5745220000000  0.4616280000000 1.0
C      1  0.4508230000000  0.5193340000000  0.4546100000000 1.0
C      1  0.5407620000000  0.4490910000000  0.4400220000000 1.0
C      1  0.4907820000000  0.4230480000000  0.4430250000000 1.0
C      1  0.4528880000000  0.5007080000000  0.5842530000000 1.0
C      1  0.5281400000000  0.4784800000000  0.4496980000000 1.0
C      1  0.5165700000000  0.5320350000000  0.4858860000000 1.0
C      1  0.5866020000000  0.4691230000000  0.4889810000000 1.0
C      1  0.5388410000000  0.5419360000000  0.5019980000000 1.0
C      1  0.4190600000000  0.4257480000000  0.4804110000000 1.0
C      1  0.5255470000000  0.4099870000000  0.5611650000000 1.0
C      1  0.5814100000000  0.4409700000000  0.4611060000000 1.0
C      1  0.4086500000000  0.5133660000000  0.5654180000000 1.0
C      1  0.5353240000000  0.4823920000000  0.3993590000000 1.0
C      1  0.5942840000000  0.4431730000000  0.4162840000000 1.0
C      1  0.5097820000000  0.5729600000000  0.4643360000000 1.0
C      1  0.4848830000000  0.5929620000000  0.4337240000000 1.0
C      1  0.5639010000000  0.4972720000000  0.5434650000000 1.0
C      1  0.4014530000000  0.4479510000000  0.4826110000000 1.0
C      1  0.6036180000000  0.4558510000000  0.5392240000000 1.0
C      1  0.5787520000000  0.4134460000000  0.4462400000000 1.0
C      1  0.5629040000000  0.5371970000000  0.5454790000000 1.0
C      1  0.5762420000000  0.4992830000000  0.4254990000000 1.0
C      1  0.5128050000000  0.5565340000000  0.6047740000000 1.0
C      1  0.5047210000000  0.4030470000000  0.4667350000000 1.0
C      1  0.5558230000000  0.5547850000000  0.4798790000000 1.0
C      1  0.4530940000000  0.4901000000000  0.4950640000000 1.0
C      1  0.5032640000000  0.5702680000000  0.5805430000000 1.0
C      1  0.4775520000000  0.5126460000000  0.4281260000000 1.0
C      1  0.4930880000000  0.4718520000000  0.4735460000000 1.0
C      1  0.4917660000000  0.6077510000000  0.4563480000000 1.0
C      1  0.5106150000000  0.4420480000000  0.5023790000000 1.0
C      1  0.5032750000000  0.4717170000000  0.6055680000000 1.0
C      1  0.5338230000000  0.5221520000000  0.4397950000000 1.0
C      1  0.5646360000000  0.4787200000000  0.4065730000000 1.0
C      1  0.4613150000000  0.5388270000000  0.5325880000000 1.0
C      1  0.5714690000000  0.5617710000000  0.5821250000000 1.0
C      1  0.4380510000000  0.4782200000000  0.5399090000000 1.0
C      1  0.5469560000000  0.6051640000000  0.5064440000000 1.0
C      1  0.4276810000000  0.5213850000000  0.5852210000000 1.0
C      1  0.3985850000000  0.5115850000000  0.5161000000000 1.0
C      1  0.4122970000000  0.5144960000000  0.4785350000000 1.0
C      1  0.5478920000000  0.5767360000000  0.5689010000000 1.0
C      1  0.4374460000000  0.5338580000000  0.4910110000000 1.0
C      1  0.4485200000000  0.4370450000000  0.5445030000000 1.0
C      1  0.6194410000000  0.5269160000000  0.5266960000000 1.0
C      1  0.4385650000000  0.5107370000000  0.5159250000000 1.0
C      1  0.4995140000000  0.5589560000000  0.5349230000000 1.0
C      1  0.5133340000000  0.4256790000000  0.4227990000000 1.0
C      1  0.4710340000000  0.3983730000000  0.4661090000000 1.0
C      1  0.5196990000000  0.4573680000000  0.4158320000000 1.0
C      1  0.5013080000000  0.6296650000000  0.5353680000000 1.0
C      1  0.5427320000000  0.5176340000000  0.5263290000000 1.0
C      1  0.5821680000000  0.4851020000000  0.4526350000000 1.0
C      1  0.3990830000000  0.5430070000000  0.5031150000000 1.0
C      1  0.5522600000000  0.5485330000000  0.4161840000000 1.0
C      1  0.3995540000000  0.4707170000000  0.4492610000000 1.0
C      1  0.5001120000000  0.5903720000000  0.5593800000000 1.0
C      1  0.4004430000000  0.5523210000000  0.4753970000000 1.0
C      1  0.5224160000000  0.3883350000000  0.4919330000000 1.0
C      1  0.4632020000000  0.4039360000000  0.4952350000000 1.0
C      1  0.4915790000000  0.5046540000000  0.4646890000000 1.0
C      1  0.4337950000000  0.4542060000000  0.5061050000000 1.0
C      1  0.5489010000000  0.5374940000000  0.5745370000000 1.0
C      1  0.4841680000000  0.4950380000000  0.5331440000000 1.0
C      1  0.5179770000000  0.6129040000000  0.4620300000000 1.0
C      1  0.5428220000000  0.4073060000000  0.4775770000000 1.0
C      1  0.4588110000000  0.4168660000000  0.4398560000000 1.0
C      1  0.5534480000000  0.4035540000000  0.4476350000000 1.0
C      1  0.4928860000000  0.5596320000000  0.4373570000000 1.0
C      1  0.3979420000000  0.5282450000000  0.4559080000000 1.0
C      1  0.5113060000000  0.4826510000000  0.5422430000000 1.0
C      1  0.4628630000000  0.5784320000000  0.5014590000000 1.0
C      1  0.5595390000000  0.4623770000000  0.5904820000000 1.0
C      1  0.4913300000000  0.5481270000000  0.4755440000000 1.0
C      1  0.4395460000000  0.4892390000000  0.4638820000000 1.0
C      1  0.4741210000000  0.4755440000000  0.5099020000000 1.0
C      1  0.4759760000000  0.6078320000000  0.5415680000000 1.0
C      1  0.4436780000000  0.5205950000000  0.5481060000000 1.0
C      1  0.5082550000000  0.5571770000000  0.4071180000000 1.0
C      1  0.4350810000000  0.4322550000000  0.4540720000000 1.0
C      1  0.4912630000000  0.4617040000000  0.4339740000000 1.0
C      1  0.4302630000000  0.4580820000000  0.5640430000000 1.0
C      1  0.4688560000000  0.5617110000000  0.5493790000000 1.0
C      1  0.5888340000000  0.5066860000000  0.5110630000000 1.0
C      1  0.5775900000000  0.5632310000000  0.5025380000000 1.0
C      1  0.4803870000000  0.4293190000000  0.5032600000000 1.0
C      1  0.4505820000000  0.4668700000000  0.5869580000000 1.0
C      1  0.4988490000000  0.4207950000000  0.5430840000000 1.0
C      1  0.4697130000000  0.4223010000000  0.5605590000000 1.0
C      1  0.5465310000000  0.5013930000000  0.4950120000000 1.0
C      1  0.4772000000000  0.5231440000000  0.3962780000000 1.0
C      1  0.4723560000000  0.4408620000000  0.5842930000000 1.0
C      1  0.4467410000000  0.5167890000000  0.3877610000000 1.0
C      1  0.4843890000000  0.4389950000000  0.4724130000000 1.0
C      1  0.5436020000000  0.5167340000000  0.6105950000000 1.0
C      1  0.4679250000000  0.5536820000000  0.5824620000000 1.0
C      1  0.5930120000000  0.5311950000000  0.5468400000000 1.0
C      1  0.4338780000000  0.4105620000000  0.4996290000000 1.0
C      1  0.5623000000000  0.4954360000000  0.5969160000000 1.0
C      1  0.4390190000000  0.5914780000000  0.4725860000000 1.0
C      1  0.4866750000000  0.4812030000000  0.5771510000000 1.0
C      1  0.4650060000000  0.4687760000000  0.4544200000000 1.0
C      1  0.4181930000000  0.4836720000000  0.5128430000000 1.0
C      1  0.5712070000000  0.4197020000000  0.5123250000000 1.0
C      1  0.3802490000000  0.4654850000000  0.5010860000000 1.0
C      1  0.5996040000000  0.5219970000000  0.4818710000000 1.0
C      1  0.4646010000000  0.5549050000000  0.4556390000000 1.0
C      1  0.4411480000000  0.5737200000000  0.5640480000000 1.0
C      1  0.5752020000000  0.4507200000000  0.5261920000000 1.0
C      1  0.6033790000000  0.4916850000000  0.4752690000000 1.0
C      1  0.4520820000000  0.4480030000000  0.4780420000000 1.0
C      1  0.5340000000000  0.4082300000000  0.4274440000000 1.0
C      1  0.5116300000000  0.3983630000000  0.5205930000000 1.0
C      1  0.5715280000000  0.4595410000000  0.4343910000000 1.0
C      1  0.4839950000000  0.5251140000000  0.5195710000000 1.0
C      1  0.5948880000000  0.5400160000000  0.5080300000000 1.0
C      1  0.4265210000000  0.5531920000000  0.5167820000000 1.0
C      1  0.4383860000000  0.4654650000000  0.4156420000000 1.0
C      1  0.5651630000000  0.5068700000000  0.4688090000000 1.0
C      1  0.4611550000000  0.4868940000000  0.4267400000000 1.0
C      1  0.5299510000000  0.5399830000000  0.4012890000000 1.0
C      1  0.4188320000000  0.4497820000000  0.4356060000000 1.0
C      1  0.4289610000000  0.4163940000000  0.5264760000000 1.0
C      1  0.4979950000000  0.4962970000000  0.3981770000000 1.0
C      1  0.5643760000000  0.5258780000000  0.4326410000000 1.0
C      1  0.4223610000000  0.4892480000000  0.4345370000000 1.0
C      1  0.5322960000000  0.4814930000000  0.5956820000000 1.0
C      1  0.4125270000000  0.4410030000000  0.5291510000000 1.0
C      1  0.4460850000000  0.5235250000000  0.4212010000000 1.0
C      1  0.5249800000000  0.6149310000000  0.5213810000000 1.0
C      1  0.4354570000000  0.5498180000000  0.5872100000000 1.0
C      1  0.5696490000000  0.4519200000000  0.5597250000000 1.0
C      1  0.4400500000000  0.5810620000000  0.5178700000000 1.0
C      1  0.5343490000000  0.4720450000000  0.5199840000000 1.0
C      1  0.5119070000000  0.5232380000000  0.5998210000000 1.0
C      1  0.4330440000000  0.5583760000000  0.4678280000000 1.0
C      1  0.5478460000000  0.6038880000000  0.4748340000000 1.0
C      1  0.5778580000000  0.5047330000000  0.5725080000000 1.0
C      1  0.5610640000000  0.5840680000000  0.5181660000000 1.0
C      1  0.4704990000000  0.6021540000000  0.4797380000000 1.0
C      1  0.4468430000000  0.5941960000000  0.5423620000000 1.0
C      1  0.5497080000000  0.5712740000000  0.4315060000000 1.0
C      1  0.5380660000000  0.4252830000000  0.5334810000000 1.0
C      1  0.5885300000000  0.5366440000000  0.5775400000000 1.0
C      1  0.4991640000000  0.5899680000000  0.4913420000000 1.0
C      1  0.4682400000000  0.5238210000000  0.4804720000000 1.0
C      1  0.5420110000000  0.4324630000000  0.5004550000000 1.0
C      1  0.4991620000000  0.4456340000000  0.5903510000000 1.0
C      1  0.4721480000000  0.4852410000000  0.6076290000000 1.0
C      1  0.5180590000000  0.5149270000000  0.5501240000000 1.0
C      1  0.4635740000000  0.4869560000000  0.5549540000000 1.0
C      1  0.4635240000000  0.4489600000000  0.5184800000000 1.0
C      1  0.5855470000000  0.5695170000000  0.4524610000000 1.0
C      1  0.4104520000000  0.4808410000000  0.4798480000000 1.0
C      1  0.4226730000000  0.5522120000000  0.4360350000000 1.0
C      1  0.5772400000000  0.5378660000000  0.4617490000000 1.0
C      1  0.5259300000000  0.5139520000000  0.3901260000000 1.0
C      1  0.5573370000000  0.4547850000000  0.4816020000000 1.0
C      1  0.3879720000000  0.4816710000000  0.5283080000000 1.0
C      1  0.5466300000000  0.5574250000000  0.5269490000000 1.0
C      1  0.5422190000000  0.5480130000000  0.6052720000000 1.0
C      1  0.5036740000000  0.5108820000000  0.5021220000000 1.0
C      1  0.5065300000000  0.4816070000000  0.5028970000000 1.0
C      1  0.4834710000000  0.4662050000000  0.4014770000000 1.0
C      1  0.5382080000000  0.4553510000000  0.5493550000000 1.0
C      1  0.4699960000000  0.3933780000000  0.5466680000000 1.0
END
