TITL C-2848497-6229-254 -0.000542786095750097 125000 -495.7604714152 0 0 87 (C1) n - 1
REM
REM in /home/bkarasulu/work/CARBON/AIRSS/Generating-Clusters/AIREBO/with-SteepDescent/Only-C1/SD-CG-opt/Try1-1.4A-POS3A/HFTN-CG
REM
REM
REM
REM
REM
REM ./C.cell (11c1c37f851c82e70ff6c80c92926a4b)
REM
REM compiler GCC version 9.2.1 20190827 (Red Hat 9.2.1-1)
REM options -cpp -mtune=generic -march=x86-64 -g -O0 -fpre-include=/usr/include/finclude/math-vector-fortran.h
REM seed 1968179950 -2113467832 1042227993 1570229330 839258338 965712528 2018892339 2131994712 -1035331511 -1336266547 1753328226 862701682 788570858 270186944 -84119975 562721468 -151704626 -798507545 -705228857 -1310911949 -17165651 965039962 476372431 1189262875 -1670104003 -1788397094 2080544914 -505732145 -1248992735 -283554679 1833471314 1816017827 -905495236
REM
CELL 1.54180   50.00000   50.00000   50.00000   90.00000   90.00000   90.00000
LATT -1
SFAC C  
C      1  0.4438690000000  0.5483210000000  0.5012990000000 1.0
C      1  0.4688040000000  0.4805260000000  0.5524460000000 1.0
C      1  0.4997080000000  0.5193050000000  0.5370980000000 1.0
C      1  0.5045950000000  0.4631380000000  0.5223120000000 1.0
C      1  0.4735930000000  0.5479670000000  0.5652260000000 1.0
C      1  0.4690590000000  0.5062640000000  0.5302280000000 1.0
C      1  0.5025670000000  0.4235290000000  0.5525070000000 1.0
C      1  0.4911990000000  0.5321580000000  0.4249930000000 1.0
C      1  0.5330290000000  0.4005120000000  0.5034410000000 1.0
C      1  0.5634940000000  0.4514620000000  0.5741180000000 1.0
C      1  0.4175370000000  0.4609190000000  0.5382600000000 1.0
C      1  0.5125650000000  0.4994430000000  0.5594780000000 1.0
C      1  0.6151500000000  0.4522100000000  0.5105340000000 1.0
C      1  0.5232820000000  0.5317520000000  0.4825310000000 1.0
C      1  0.4607380000000  0.4785000000000  0.4896540000000 1.0
C      1  0.4041860000000  0.4827760000000  0.4796140000000 1.0
C      1  0.4393470000000  0.4432930000000  0.4615470000000 1.0
C      1  0.4587830000000  0.4242370000000  0.4820710000000 1.0
C      1  0.4889460000000  0.5663130000000  0.5844790000000 1.0
C      1  0.5291120000000  0.5628560000000  0.4780840000000 1.0
C      1  0.5845360000000  0.4562690000000  0.4430180000000 1.0
C      1  0.5468670000000  0.5157220000000  0.5265150000000 1.0
C      1  0.5354370000000  0.5424560000000  0.5535100000000 1.0
C      1  0.5322570000000  0.5045450000000  0.4673610000000 1.0
C      1  0.5243690000000  0.5257690000000  0.5735510000000 1.0
C      1  0.5430230000000  0.4577050000000  0.4843910000000 1.0
C      1  0.4744860000000  0.5210610000000  0.5792300000000 1.0
C      1  0.4668940000000  0.4596210000000  0.4663310000000 1.0
C      1  0.4721880000000  0.5538470000000  0.4359110000000 1.0
C      1  0.4222010000000  0.5119450000000  0.5660130000000 1.0
C      1  0.4462020000000  0.4557350000000  0.4320760000000 1.0
C      1  0.5101150000000  0.5517020000000  0.5368620000000 1.0
C      1  0.4076450000000  0.5082270000000  0.4889190000000 1.0
C      1  0.5072750000000  0.4953470000000  0.4848720000000 1.0
C      1  0.5000230000000  0.4572760000000  0.4327680000000 1.0
C      1  0.4863280000000  0.4143850000000  0.4688590000000 1.0
C      1  0.4595640000000  0.4806760000000  0.4290430000000 1.0
C      1  0.5391650000000  0.5479870000000  0.4234740000000 1.0
C      1  0.4837960000000  0.5779190000000  0.4891620000000 1.0
C      1  0.5015570000000  0.5050530000000  0.4264470000000 1.0
C      1  0.4779350000000  0.5525380000000  0.5346010000000 1.0
C      1  0.5078930000000  0.4084350000000  0.4847200000000 1.0
C      1  0.5118000000000  0.5778540000000  0.4957200000000 1.0
C      1  0.5239160000000  0.4760860000000  0.5429930000000 1.0
C      1  0.5337260000000  0.4284000000000  0.4873120000000 1.0
C      1  0.4876010000000  0.4805460000000  0.4237370000000 1.0
C      1  0.4840360000000  0.4959210000000  0.5707500000000 1.0
C      1  0.4359550000000  0.5104000000000  0.5347890000000 1.0
C      1  0.4141120000000  0.4581120000000  0.4734590000000 1.0
C      1  0.5560210000000  0.4888250000000  0.4799340000000 1.0
C      1  0.5120210000000  0.4637820000000  0.4891360000000 1.0
C      1  0.4508780000000  0.5010860000000  0.4464520000000 1.0
C      1  0.4987880000000  0.5417990000000  0.4629870000000 1.0
C      1  0.4946650000000  0.4272290000000  0.4429520000000 1.0
C      1  0.4844260000000  0.4858020000000  0.5078410000000 1.0
C      1  0.4850610000000  0.5195230000000  0.4821270000000 1.0
C      1  0.5551120000000  0.5735960000000  0.4760190000000 1.0
C      1  0.5470230000000  0.5213030000000  0.4233590000000 1.0
C      1  0.5197480000000  0.5225100000000  0.5114450000000 1.0
C      1  0.5913770000000  0.4631800000000  0.5092580000000 1.0
C      1  0.4232920000000  0.5256270000000  0.5137760000000 1.0
C      1  0.4413890000000  0.4508420000000  0.5273080000000 1.0
C      1  0.5772620000000  0.5120070000000  0.4922100000000 1.0
C      1  0.4183630000000  0.4860930000000  0.5489230000000 1.0
C      1  0.4657520000000  0.5706780000000  0.5095290000000 1.0
C      1  0.4965930000000  0.4527970000000  0.4653750000000 1.0
C      1  0.5041210000000  0.5391010000000  0.5893180000000 1.0
C      1  0.5518450000000  0.5715190000000  0.5222130000000 1.0
C      1  0.4640660000000  0.4551350000000  0.5435070000000 1.0
C      1  0.5686880000000  0.4764870000000  0.5081510000000 1.0
C      1  0.5287290000000  0.5044940000000  0.4372360000000 1.0
C      1  0.5234740000000  0.5738730000000  0.5214650000000 1.0
C      1  0.4785980000000  0.5665350000000  0.4635680000000 1.0
C      1  0.5517820000000  0.4648080000000  0.5561010000000 1.0
C      1  0.5666310000000  0.4572410000000  0.4612360000000 1.0
C      1  0.4476810000000  0.4510080000000  0.4998640000000 1.0
C      1  0.5887760000000  0.5971930000000  0.5027300000000 1.0
C      1  0.4723820000000  0.5316170000000  0.5078130000000 1.0
C      1  0.5621580000000  0.5439840000000  0.5335430000000 1.0
C      1  0.5666380000000  0.5822080000000  0.5005110000000 1.0
C      1  0.4727510000000  0.4225730000000  0.5122100000000 1.0
C      1  0.5526840000000  0.4867650000000  0.5308580000000 1.0
C      1  0.4887150000000  0.4392850000000  0.5339920000000 1.0
C      1  0.5136270000000  0.5518310000000  0.4344090000000 1.0
C      1  0.4159740000000  0.5393920000000  0.4838800000000 1.0
C      1  0.5816360000000  0.5275250000000  0.5112260000000 1.0
C      1  0.4608030000000  0.5037270000000  0.4712240000000 1.0
END
