TITL C-2847944-5688-93 0.000320323817785522 125000 -529.924225092653 0 0 98 (C1) n - 1
REM
REM in /home/bkarasulu/work/CARBON/AIRSS/Generating-Clusters/AIREBO/with-SteepDescent/Only-C1/SD-CG-opt/Try1-1.4A-POS3A/HFTN-CG
REM
REM
REM
REM
REM
REM ./C.cell (11c1c37f851c82e70ff6c80c92926a4b)
REM
REM compiler GCC version 9.2.1 20190827 (Red Hat 9.2.1-1)
REM options -cpp -mtune=generic -march=x86-64 -g -O0 -fpre-include=/usr/include/finclude/math-vector-fortran.h
REM seed -633032292 1592637005 431011675 1656528288 -1107901749 599362477 1497935901 149800 -1744658158 1243679690 -2061647996 929808114 882919808 -973139000 999876387 229191056 -667949458 1018324528 837118212 -254443796 1527691074 -1119336843 848454670 -694930743 -1375747542 -233662187 1605177804 -1723505913 -589877907 -121664567 1147613152 -331155740 1497023300
REM
CELL 1.54180   50.00000   50.00000   50.00000   90.00000   90.00000   90.00000
LATT -1
SFAC C  
C      1  0.5774830000000  0.5398550000000  0.5418170000000 1.0
C      1  0.4685290000000  0.5177570000000  0.4523670000000 1.0
C      1  0.5131830000000  0.5508830000000  0.5515730000000 1.0
C      1  0.4554570000000  0.4318060000000  0.5312890000000 1.0
C      1  0.5453380000000  0.4325950000000  0.4723710000000 1.0
C      1  0.4850510000000  0.4230440000000  0.5231600000000 1.0
C      1  0.4779620000000  0.4590140000000  0.4867510000000 1.0
C      1  0.4408620000000  0.4960500000000  0.5493100000000 1.0
C      1  0.5047250000000  0.4672100000000  0.5440580000000 1.0
C      1  0.5961080000000  0.5157590000000  0.5297360000000 1.0
C      1  0.5554160000000  0.5049430000000  0.4644430000000 1.0
C      1  0.4403520000000  0.5443130000000  0.5343760000000 1.0
C      1  0.4593970000000  0.5442890000000  0.4493950000000 1.0
C      1  0.5399590000000  0.4529230000000  0.4216550000000 1.0
C      1  0.4242580000000  0.4540500000000  0.4815640000000 1.0
C      1  0.5022120000000  0.5043170000000  0.4187260000000 1.0
C      1  0.5549510000000  0.5150110000000  0.4937300000000 1.0
C      1  0.4928510000000  0.5615770000000  0.5057700000000 1.0
C      1  0.5728180000000  0.4357080000000  0.5416390000000 1.0
C      1  0.4972280000000  0.5695290000000  0.4350350000000 1.0
C      1  0.5235730000000  0.4656630000000  0.4689760000000 1.0
C      1  0.5282280000000  0.4416480000000  0.5242600000000 1.0
C      1  0.5102410000000  0.4762300000000  0.5152380000000 1.0
C      1  0.4618070000000  0.5113220000000  0.5049860000000 1.0
C      1  0.5447810000000  0.5723440000000  0.5157760000000 1.0
C      1  0.4634940000000  0.6060430000000  0.5242560000000 1.0
C      1  0.5274450000000  0.5467400000000  0.5806530000000 1.0
C      1  0.5320040000000  0.4924810000000  0.4575100000000 1.0
C      1  0.6253870000000  0.4956960000000  0.4968780000000 1.0
C      1  0.5076130000000  0.5163780000000  0.5037020000000 1.0
C      1  0.4547100000000  0.4367180000000  0.4976540000000 1.0
C      1  0.5580010000000  0.4740750000000  0.5165360000000 1.0
C      1  0.5385390000000  0.5044630000000  0.5470580000000 1.0
C      1  0.5495810000000  0.4575960000000  0.4489220000000 1.0
C      1  0.4736150000000  0.5370310000000  0.4995970000000 1.0
C      1  0.4392440000000  0.5177730000000  0.5246390000000 1.0
C      1  0.4931890000000  0.4714890000000  0.4232980000000 1.0
C      1  0.4731750000000  0.4977300000000  0.4314940000000 1.0
C      1  0.4897740000000  0.5089050000000  0.4765590000000 1.0
C      1  0.5292200000000  0.5751220000000  0.5370600000000 1.0
C      1  0.4159000000000  0.4797290000000  0.4390220000000 1.0
C      1  0.5636100000000  0.5150770000000  0.5583100000000 1.0
C      1  0.5817830000000  0.4965290000000  0.5735230000000 1.0
C      1  0.4762810000000  0.5427900000000  0.4027410000000 1.0
C      1  0.4654780000000  0.4635660000000  0.5244370000000 1.0
C      1  0.4358920000000  0.4609950000000  0.5124180000000 1.0
C      1  0.4903150000000  0.5673260000000  0.5355710000000 1.0
C      1  0.5628430000000  0.4608710000000  0.4794780000000 1.0
C      1  0.4281850000000  0.5551120000000  0.4866380000000 1.0
C      1  0.4095030000000  0.5094560000000  0.5126300000000 1.0
C      1  0.5286310000000  0.4803280000000  0.5643660000000 1.0
C      1  0.4389230000000  0.4213670000000  0.5499900000000 1.0
C      1  0.4938770000000  0.4298070000000  0.4938700000000 1.0
C      1  0.4610270000000  0.4992950000000  0.5684320000000 1.0
C      1  0.4203250000000  0.4830720000000  0.5269130000000 1.0
C      1  0.4643000000000  0.4868950000000  0.4814420000000 1.0
C      1  0.4762040000000  0.5775400000000  0.4833490000000 1.0
C      1  0.5164740000000  0.4537770000000  0.4960750000000 1.0
C      1  0.5085060000000  0.5061050000000  0.4505220000000 1.0
C      1  0.6008050000000  0.4997660000000  0.5082740000000 1.0
C      1  0.5761120000000  0.4884010000000  0.4943970000000 1.0
C      1  0.4663030000000  0.6039870000000  0.4970840000000 1.0
C      1  0.5183460000000  0.5452600000000  0.5003650000000 1.0
C      1  0.5759720000000  0.5125290000000  0.4480180000000 1.0
C      1  0.5023730000000  0.4405270000000  0.5762510000000 1.0
C      1  0.4900010000000  0.5165810000000  0.5327290000000 1.0
C      1  0.5031830000000  0.5307660000000  0.4053410000000 1.0
C      1  0.4952990000000  0.5843840000000  0.4588380000000 1.0
C      1  0.5054600000000  0.4260900000000  0.4431110000000 1.0
C      1  0.4778710000000  0.5903920000000  0.5417080000000 1.0
C      1  0.5065730000000  0.4669490000000  0.5836650000000 1.0
C      1  0.4649380000000  0.5242870000000  0.5851560000000 1.0
C      1  0.4714050000000  0.5578010000000  0.4271600000000 1.0
C      1  0.5542160000000  0.4497560000000  0.5283630000000 1.0
C      1  0.4682760000000  0.4639790000000  0.4451910000000 1.0
C      1  0.4814110000000  0.4877370000000  0.5178430000000 1.0
C      1  0.5496210000000  0.5445830000000  0.4966940000000 1.0
C      1  0.5161940000000  0.5176050000000  0.5928930000000 1.0
C      1  0.5340840000000  0.4981870000000  0.5149200000000 1.0
C      1  0.5166020000000  0.5534370000000  0.4196060000000 1.0
C      1  0.4205590000000  0.5279090000000  0.4907880000000 1.0
C      1  0.4539660000000  0.4095670000000  0.4838840000000 1.0
C      1  0.5181170000000  0.4227580000000  0.4710770000000 1.0
C      1  0.4958570000000  0.4535480000000  0.4589850000000 1.0
C      1  0.4409170000000  0.4515400000000  0.4520120000000 1.0
C      1  0.5123190000000  0.4480730000000  0.4229650000000 1.0
C      1  0.5043850000000  0.4344230000000  0.5438890000000 1.0
C      1  0.4524190000000  0.5607000000000  0.4722800000000 1.0
C      1  0.4939210000000  0.5421290000000  0.5852410000000 1.0
C      1  0.4368190000000  0.4838440000000  0.4616140000000 1.0
C      1  0.5548330000000  0.4569690000000  0.3991950000000 1.0
C      1  0.4763480000000  0.5366860000000  0.5566420000000 1.0
C      1  0.4331990000000  0.4302410000000  0.4362640000000 1.0
C      1  0.5718240000000  0.5574210000000  0.5187050000000 1.0
C      1  0.4347020000000  0.5122540000000  0.4726460000000 1.0
C      1  0.5572040000000  0.5454150000000  0.5688860000000 1.0
C      1  0.4906400000000  0.4905710000000  0.5645100000000 1.0
C      1  0.5111100000000  0.5172310000000  0.5592680000000 1.0
END
