TITL C-2847955-7945-314 0.00167225201921615 125000 -366.941238793901 0 0 65 (C1) n - 1
REM
REM in /home/bkarasulu/work/CARBON/AIRSS/Generating-Clusters/AIREBO/with-SteepDescent/Only-C1/SD-CG-opt/Try1-1.4A-POS3A/HFTN-CG
REM
REM
REM
REM
REM
REM ./C.cell (11c1c37f851c82e70ff6c80c92926a4b)
REM
REM compiler GCC version 9.2.1 20190827 (Red Hat 9.2.1-1)
REM options -cpp -mtune=generic -march=x86-64 -g -O0 -fpre-include=/usr/include/finclude/math-vector-fortran.h
REM seed 433408280 1539127919 -1869693492 1614708548 1868744948 360371496 156874411 -792811592 -2031273127 -393088119 327054274 -1508403395 1803219711 1739928370 -1136485674 -1146078168 -1382577887 94225584 1160417546 -480050640 -1938315996 -612570252 -1305263550 -883102773 -224193442 -1397414291 -1390933459 850459771 -1538030531 -1516594573 1209531887 -494511182 -1784099674
REM
CELL 1.54180   50.00000   50.00000   50.00000   90.00000   90.00000   90.00000
LATT -1
SFAC C  
C      1  0.4257670000000  0.4988610000000  0.4957860000000 1.0
C      1  0.5328720000000  0.4294420000000  0.4756200000000 1.0
C      1  0.5496360000000  0.5228100000000  0.5451420000000 1.0
C      1  0.4206850000000  0.4762660000000  0.5199240000000 1.0
C      1  0.5787500000000  0.4899120000000  0.4332250000000 1.0
C      1  0.4485260000000  0.4955820000000  0.5770170000000 1.0
C      1  0.4902110000000  0.4713370000000  0.5694480000000 1.0
C      1  0.4708260000000  0.5243250000000  0.5001150000000 1.0
C      1  0.5648890000000  0.5061390000000  0.5259900000000 1.0
C      1  0.5367480000000  0.4909660000000  0.5248410000000 1.0
C      1  0.4431080000000  0.4397480000000  0.4714500000000 1.0
C      1  0.5345890000000  0.5482410000000  0.5148880000000 1.0
C      1  0.5178960000000  0.4843170000000  0.5747960000000 1.0
C      1  0.5003590000000  0.5411930000000  0.5548570000000 1.0
C      1  0.4944840000000  0.5336520000000  0.4794290000000 1.0
C      1  0.4593810000000  0.4853330000000  0.4099880000000 1.0
C      1  0.4538430000000  0.5689150000000  0.4857400000000 1.0
C      1  0.5477240000000  0.4380960000000  0.5172020000000 1.0
C      1  0.4761660000000  0.5694210000000  0.4412830000000 1.0
C      1  0.4906950000000  0.4983930000000  0.4976900000000 1.0
C      1  0.5498360000000  0.5548040000000  0.4939190000000 1.0
C      1  0.5172950000000  0.4454430000000  0.5213120000000 1.0
C      1  0.4529880000000  0.5808430000000  0.5115190000000 1.0
C      1  0.5251160000000  0.5098150000000  0.5828370000000 1.0
C      1  0.4625760000000  0.4870860000000  0.4371430000000 1.0
C      1  0.4436780000000  0.5107300000000  0.5561410000000 1.0
C      1  0.5040110000000  0.5001140000000  0.5257260000000 1.0
C      1  0.4768390000000  0.5753840000000  0.4693520000000 1.0
C      1  0.5305100000000  0.5058670000000  0.4968370000000 1.0
C      1  0.4263010000000  0.5250270000000  0.4804020000000 1.0
C      1  0.5263140000000  0.4599080000000  0.4378410000000 1.0
C      1  0.4610800000000  0.4438170000000  0.5304190000000 1.0
C      1  0.5422190000000  0.4819760000000  0.4671450000000 1.0
C      1  0.4864930000000  0.4472270000000  0.5356030000000 1.0
C      1  0.5643940000000  0.4989820000000  0.4771200000000 1.0
C      1  0.4994440000000  0.5618120000000  0.4811290000000 1.0
C      1  0.5051630000000  0.5304760000000  0.5808170000000 1.0
C      1  0.4430910000000  0.4832640000000  0.4552820000000 1.0
C      1  0.5115480000000  0.4376960000000  0.4911380000000 1.0
C      1  0.5631430000000  0.4430950000000  0.4978620000000 1.0
C      1  0.5135540000000  0.4963940000000  0.4724800000000 1.0
C      1  0.4761010000000  0.5490400000000  0.5433900000000 1.0
C      1  0.4418080000000  0.4700240000000  0.4865740000000 1.0
C      1  0.5558870000000  0.4720100000000  0.4387250000000 1.0
C      1  0.4899730000000  0.4939990000000  0.4480830000000 1.0
C      1  0.5193220000000  0.5281940000000  0.5348320000000 1.0
C      1  0.5909140000000  0.5061710000000  0.4481290000000 1.0
C      1  0.5847290000000  0.5248940000000  0.4744100000000 1.0
C      1  0.4479780000000  0.5407510000000  0.4854560000000 1.0
C      1  0.5109020000000  0.4713130000000  0.5424480000000 1.0
C      1  0.5727870000000  0.5527630000000  0.4794220000000 1.0
C      1  0.4901360000000  0.4505350000000  0.4747410000000 1.0
C      1  0.4614540000000  0.5257700000000  0.5312960000000 1.0
C      1  0.5539590000000  0.4512310000000  0.4690600000000 1.0
C      1  0.4929430000000  0.5245070000000  0.4530140000000 1.0
C      1  0.5797630000000  0.5073590000000  0.5032990000000 1.0
C      1  0.4652440000000  0.4741560000000  0.5796240000000 1.0
C      1  0.4748020000000  0.4734870000000  0.4896370000000 1.0
C      1  0.4362610000000  0.5044910000000  0.5259030000000 1.0
C      1  0.4395510000000  0.4538680000000  0.5164120000000 1.0
C      1  0.4662620000000  0.5737290000000  0.5345980000000 1.0
C      1  0.4666770000000  0.4312010000000  0.4669460000000 1.0
C      1  0.5028480000000  0.4647960000000  0.4507360000000 1.0
C      1  0.5502450000000  0.5185030000000  0.5729650000000 1.0
C      1  0.4867050000000  0.5444990000000  0.4338470000000 1.0
END
