TITL C-2847944-5688-210 -52.2659566380559 125000 -490.253006489243 0 0 88 (C1) n - 1
REM
REM in /home/bkarasulu/work/CARBON/AIRSS/Generating-Clusters/AIREBO/with-SteepDescent/Only-C1/SD-CG-opt/Try1-1.4A-POS3A/HFTN-CG
REM
REM
REM
REM
REM
REM ./C.cell (11c1c37f851c82e70ff6c80c92926a4b)
REM
REM compiler GCC version 9.2.1 20190827 (Red Hat 9.2.1-1)
REM options -cpp -mtune=generic -march=x86-64 -g -O0 -fpre-include=/usr/include/finclude/math-vector-fortran.h
REM seed -358888139 -470477693 -1322329678 -2085866268 -500036585 1484272906 787193813 1427274826 1735999498 1395219079 -1463697772 1448459770 367789756 -723316828 -513501460 206549415 -1897700337 -98604097 -364156330 629586574 1253843899 -576392137 -323299286 914174396 1597756791 -1907310338 -30247817 -1472787462 1493396672 1597376267 840984308 -678031597 -1599811873
REM
CELL 1.54180   50.00000   50.00000   50.00000   90.00000   90.00000   90.00000
LATT -1
SFAC C  
C      1  0.5294930000000  0.5873370000000  0.5399340000000 1.0
C      1  0.5100300000000  0.5232860000000  0.5447160000000 1.0
C      1  0.5252880000000  0.4862350000000  0.4051140000000 1.0
C      1  0.4857740000000  0.5530340000000  0.4878990000000 1.0
C      1  0.4603490000000  0.5362370000000  0.5351310000000 1.0
C      1  0.5223630000000  0.5046550000000  0.4585020000000 1.0
C      1  0.4365380000000  0.4847680000000  0.5719810000000 1.0
C      1  0.5621240000000  0.4960970000000  0.5421790000000 1.0
C      1  0.5602110000000  0.4526520000000  0.5130420000000 1.0
C      1  0.4799070000000  0.5211890000000  0.4992330000000 1.0
C      1  0.4476710000000  0.4400280000000  0.4698580000000 1.0
C      1  0.4974560000000  0.4069710000000  0.4704570000000 1.0
C      1  0.4878960000000  0.5516890000000  0.5275750000000 1.0
C      1  0.4364420000000  0.4577480000000  0.4941790000000 1.0
C      1  0.5384350000000  0.5914860000000  0.4905930000000 1.0
C      1  0.4502180000000  0.4601530000000  0.5539990000000 1.0
C      1  0.5092320000000  0.5299470000000  0.5124150000000 1.0
C      1  0.4616390000000  0.4868530000000  0.5368580000000 1.0
C      1  0.5327650000000  0.5093520000000  0.4263870000000 1.0
C      1  0.4980110000000  0.4409050000000  0.5454860000000 1.0
C      1  0.5422440000000  0.4489560000000  0.5581900000000 1.0
C      1  0.5501920000000  0.5436180000000  0.5506700000000 1.0
C      1  0.4884880000000  0.4372320000000  0.4464150000000 1.0
C      1  0.4682040000000  0.4225030000000  0.4626990000000 1.0
C      1  0.4989220000000  0.5354980000000  0.5811190000000 1.0
C      1  0.4748700000000  0.4937390000000  0.5674160000000 1.0
C      1  0.5533730000000  0.4352680000000  0.4188900000000 1.0
C      1  0.5229200000000  0.5058180000000  0.4924850000000 1.0
C      1  0.5193280000000  0.4671020000000  0.5755960000000 1.0
C      1  0.5673180000000  0.5213890000000  0.5497800000000 1.0
C      1  0.5050920000000  0.4248320000000  0.4986200000000 1.0
C      1  0.5438510000000  0.5627540000000  0.5299750000000 1.0
C      1  0.4671510000000  0.5412380000000  0.5770590000000 1.0
C      1  0.5138240000000  0.4662010000000  0.5360420000000 1.0
C      1  0.4512750000000  0.4672280000000  0.4537280000000 1.0
C      1  0.5161510000000  0.5609340000000  0.4777880000000 1.0
C      1  0.5983240000000  0.4928880000000  0.4702730000000 1.0
C      1  0.4685610000000  0.5333090000000  0.4343360000000 1.0
C      1  0.5256660000000  0.5390030000000  0.5648850000000 1.0
C      1  0.5431150000000  0.4383640000000  0.5309320000000 1.0
C      1  0.5392770000000  0.4812840000000  0.5528420000000 1.0
C      1  0.4956200000000  0.5766900000000  0.5082510000000 1.0
C      1  0.4322220000000  0.4417590000000  0.5434190000000 1.0
C      1  0.5110120000000  0.4196400000000  0.4403120000000 1.0
C      1  0.5311380000000  0.5525080000000  0.5071300000000 1.0
C      1  0.5494080000000  0.5676300000000  0.4754480000000 1.0
C      1  0.5281110000000  0.4204620000000  0.4763220000000 1.0
C      1  0.4920520000000  0.4705860000000  0.5766200000000 1.0
C      1  0.5210950000000  0.4733280000000  0.4825270000000 1.0
C      1  0.5606730000000  0.5458900000000  0.4625490000000 1.0
C      1  0.5025520000000  0.4752830000000  0.5099280000000 1.0
C      1  0.4181180000000  0.5018520000000  0.4914120000000 1.0
C      1  0.5593660000000  0.4617860000000  0.4838820000000 1.0
C      1  0.5195200000000  0.5904560000000  0.5119500000000 1.0
C      1  0.4307880000000  0.5524380000000  0.5301190000000 1.0
C      1  0.5696080000000  0.4853410000000  0.5137130000000 1.0
C      1  0.5007290000000  0.4981760000000  0.4255650000000 1.0
C      1  0.4898700000000  0.5592460000000  0.5586820000000 1.0
C      1  0.5399200000000  0.5357310000000  0.4413180000000 1.0
C      1  0.5692620000000  0.4395530000000  0.3984940000000 1.0
C      1  0.4900220000000  0.4503460000000  0.4917770000000 1.0
C      1  0.5093800000000  0.5840330000000  0.5600860000000 1.0
C      1  0.4830400000000  0.5181750000000  0.5487890000000 1.0
C      1  0.4655730000000  0.4727660000000  0.4840840000000 1.0
C      1  0.4917640000000  0.4923000000000  0.4568670000000 1.0
C      1  0.4295460000000  0.5018430000000  0.4660030000000 1.0
C      1  0.5481200000000  0.5093090000000  0.5072760000000 1.0
C      1  0.4511130000000  0.5280530000000  0.4866870000000 1.0
C      1  0.4635060000000  0.5025840000000  0.4678610000000 1.0
C      1  0.4161990000000  0.4755560000000  0.5019120000000 1.0
C      1  0.4312580000000  0.5207650000000  0.5424770000000 1.0
C      1  0.5167620000000  0.4277450000000  0.5257330000000 1.0
C      1  0.5721120000000  0.4921180000000  0.4804020000000 1.0
C      1  0.4532910000000  0.4857510000000  0.4330710000000 1.0
C      1  0.4620840000000  0.5629350000000  0.4708420000000 1.0
C      1  0.5354000000000  0.4329260000000  0.4392850000000 1.0
C      1  0.4967220000000  0.4619840000000  0.4614650000000 1.0
C      1  0.4923800000000  0.5490840000000  0.4331590000000 1.0
C      1  0.5536660000000  0.5139720000000  0.4679620000000 1.0
C      1  0.4775340000000  0.4490480000000  0.5637530000000 1.0
C      1  0.5383890000000  0.4490040000000  0.4662200000000 1.0
C      1  0.4286820000000  0.5261010000000  0.5087160000000 1.0
C      1  0.4709740000000  0.5066930000000  0.4259640000000 1.0
C      1  0.5153240000000  0.5507580000000  0.4475690000000 1.0
C      1  0.4754250000000  0.4917270000000  0.5105340000000 1.0
C      1  0.4494470000000  0.5161820000000  0.5699190000000 1.0
C      1  0.4515480000000  0.5408880000000  0.4552010000000 1.0
C      1  0.4196870000000  0.5792200000000  0.5334650000000 1.0
END
