TITL C-2848503-6230-160 -0.000396285855757222 125000 -231.447291953751 0 0 43 (C1) n - 1
REM
REM in /home/bkarasulu/work/CARBON/AIRSS/Generating-Clusters/AIREBO/with-SteepDescent/Only-C1/SD-CG-opt/Try1-1.4A-POS3A/HFTN-CG
REM
REM
REM
REM
REM
REM ./C.cell (11c1c37f851c82e70ff6c80c92926a4b)
REM
REM compiler GCC version 9.2.1 20190827 (Red Hat 9.2.1-1)
REM options -cpp -mtune=generic -march=x86-64 -g -O0 -fpre-include=/usr/include/finclude/math-vector-fortran.h
REM seed -349655917 1207687163 1364400277 -157922354 1595066668 -1573902518 -145531748 722372988 -1527433828 -1334502426 853023633 713162289 -1451615413 409046974 1230478433 1023741493 -493992216 -1101478373 1845600044 -792953643 687245155 -1294179837 458801886 -1545754395 36513283 59067235 -1707268866 900450653 177548730 -1735146686 1240693667 -1918944983 631276505
REM
CELL 1.54180   50.00000   50.00000   50.00000   90.00000   90.00000   90.00000
LATT -1
SFAC C  
C      1  0.5273460000000  0.4946950000000  0.4500950000000 1.0
C      1  0.4560240000000  0.4702730000000  0.5405460000000 1.0
C      1  0.5015020000000  0.4743670000000  0.4412100000000 1.0
C      1  0.4985880000000  0.4496090000000  0.5495660000000 1.0
C      1  0.5183490000000  0.5051460000000  0.5573140000000 1.0
C      1  0.5030110000000  0.5258470000000  0.5467420000000 1.0
C      1  0.4834210000000  0.4662040000000  0.4995990000000 1.0
C      1  0.4899390000000  0.5010460000000  0.4252300000000 1.0
C      1  0.4998880000000  0.5566870000000  0.4756400000000 1.0
C      1  0.5229550000000  0.5275470000000  0.4452720000000 1.0
C      1  0.4659970000000  0.5254800000000  0.5186930000000 1.0
C      1  0.4777270000000  0.4586430000000  0.5294100000000 1.0
C      1  0.5170810000000  0.4659620000000  0.4982380000000 1.0
C      1  0.5028150000000  0.5553150000000  0.5541800000000 1.0
C      1  0.5277770000000  0.5244840000000  0.4947300000000 1.0
C      1  0.5133730000000  0.4908210000000  0.5171960000000 1.0
C      1  0.5233880000000  0.4726890000000  0.5524470000000 1.0
C      1  0.4965260000000  0.5541060000000  0.5037060000000 1.0
C      1  0.4482300000000  0.5215340000000  0.4966100000000 1.0
C      1  0.5223630000000  0.4405150000000  0.4764490000000 1.0
C      1  0.5545740000000  0.5071410000000  0.4885570000000 1.0
C      1  0.4717760000000  0.5143130000000  0.4651800000000 1.0
C      1  0.4807810000000  0.4628430000000  0.4658560000000 1.0
C      1  0.4993410000000  0.5215570000000  0.5132060000000 1.0
C      1  0.5501690000000  0.4873260000000  0.4694210000000 1.0
C      1  0.4861000000000  0.4372440000000  0.5717500000000 1.0
C      1  0.5313630000000  0.4401740000000  0.5490390000000 1.0
C      1  0.4781260000000  0.5460630000000  0.4560530000000 1.0
C      1  0.5019760000000  0.5027960000000  0.4680630000000 1.0
C      1  0.5578560000000  0.5150350000000  0.5189060000000 1.0
C      1  0.5045110000000  0.4433590000000  0.4543240000000 1.0
C      1  0.5234620000000  0.5416500000000  0.4696800000000 1.0
C      1  0.4497090000000  0.5392110000000  0.4722090000000 1.0
C      1  0.4560270000000  0.5189360000000  0.5440550000000 1.0
C      1  0.5361330000000  0.5382590000000  0.5231360000000 1.0
C      1  0.5161550000000  0.5580100000000  0.5270470000000 1.0
C      1  0.4954640000000  0.5261030000000  0.4352450000000 1.0
C      1  0.5402500000000  0.4945830000000  0.5339520000000 1.0
C      1  0.4539100000000  0.4735280000000  0.4837490000000 1.0
C      1  0.4399550000000  0.4948450000000  0.4913350000000 1.0
C      1  0.4487590000000  0.4937910000000  0.5522350000000 1.0
C      1  0.4826930000000  0.4996050000000  0.4932720000000 1.0
C      1  0.5446100000000  0.4626580000000  0.4808560000000 1.0
END
