TITL C-2847958-8115-256 -0.000226412906180831 125000 -470.406582777286 0 0 87 (C1) n - 1
REM
REM in /home/bkarasulu/work/CARBON/AIRSS/Generating-Clusters/AIREBO/with-SteepDescent/Only-C1/SD-CG-opt/Try1-1.4A-POS3A/HFTN-CG
REM
REM
REM
REM
REM
REM ./C.cell (11c1c37f851c82e70ff6c80c92926a4b)
REM
REM compiler GCC version 9.2.1 20190827 (Red Hat 9.2.1-1)
REM options -cpp -mtune=generic -march=x86-64 -g -O0 -fpre-include=/usr/include/finclude/math-vector-fortran.h
REM seed -1005031270 1773337057 -1013336609 1526062666 -785034526 846062506 2066574487 1577067261 -1632870487 804845419 261099592 950610290 -1029992689 184092452 -1118028067 2104272601 -1690937193 -946178292 -1596520524 -564560313 -733353587 666088136 1924881714 1059204456 -44789225 -2061022810 806650074 475457431 758342908 -653188789 -1151823513 1269020650 -658784634
REM
CELL 1.54180   50.00000   50.00000   50.00000   90.00000   90.00000   90.00000
LATT -1
SFAC C  
C      1  0.4631500000000  0.5403990000000  0.5583860000000 1.0
C      1  0.5756300000000  0.5264370000000  0.4649350000000 1.0
C      1  0.5106170000000  0.4802600000000  0.4815430000000 1.0
C      1  0.4284790000000  0.4823910000000  0.5026250000000 1.0
C      1  0.4640800000000  0.4326290000000  0.5397370000000 1.0
C      1  0.4424730000000  0.4883000000000  0.5629580000000 1.0
C      1  0.4642310000000  0.5264920000000  0.4500240000000 1.0
C      1  0.5417160000000  0.5087370000000  0.4511760000000 1.0
C      1  0.5338720000000  0.5447870000000  0.4361650000000 1.0
C      1  0.5734320000000  0.4350310000000  0.4948210000000 1.0
C      1  0.4518720000000  0.5736160000000  0.4761150000000 1.0
C      1  0.4456630000000  0.5529540000000  0.5249130000000 1.0
C      1  0.4722290000000  0.4711030000000  0.4765630000000 1.0
C      1  0.4481750000000  0.5207800000000  0.5349910000000 1.0
C      1  0.5206640000000  0.4940970000000  0.4302300000000 1.0
C      1  0.4973410000000  0.5443240000000  0.4633790000000 1.0
C      1  0.5672370000000  0.5077700000000  0.5110830000000 1.0
C      1  0.4389000000000  0.4791390000000  0.4530360000000 1.0
C      1  0.5149980000000  0.4341540000000  0.4801790000000 1.0
C      1  0.4972400000000  0.5175130000000  0.5180890000000 1.0
C      1  0.4858560000000  0.5572840000000  0.5537420000000 1.0
C      1  0.5005740000000  0.4790040000000  0.5845170000000 1.0
C      1  0.4806720000000  0.5612230000000  0.4850150000000 1.0
C      1  0.4592250000000  0.4336620000000  0.4715670000000 1.0
C      1  0.5174180000000  0.4411080000000  0.5454420000000 1.0
C      1  0.5428420000000  0.4781360000000  0.4915250000000 1.0
C      1  0.4689960000000  0.5892430000000  0.4590070000000 1.0
C      1  0.5842360000000  0.5001070000000  0.4654420000000 1.0
C      1  0.5553580000000  0.5365280000000  0.5574610000000 1.0
C      1  0.5471170000000  0.4246530000000  0.4861860000000 1.0
C      1  0.5020600000000  0.4130980000000  0.5070140000000 1.0
C      1  0.4654550000000  0.5088550000000  0.5687520000000 1.0
C      1  0.4609040000000  0.4707750000000  0.4382040000000 1.0
C      1  0.4206570000000  0.4575130000000  0.4585120000000 1.0
C      1  0.5311520000000  0.4187840000000  0.5127860000000 1.0
C      1  0.4926860000000  0.4830150000000  0.4368850000000 1.0
C      1  0.4472650000000  0.4916250000000  0.4810300000000 1.0
C      1  0.5754430000000  0.4525750000000  0.5187070000000 1.0
C      1  0.5166650000000  0.5244820000000  0.4226240000000 1.0
C      1  0.4218230000000  0.5066860000000  0.5196200000000 1.0
C      1  0.5109010000000  0.5747570000000  0.5137220000000 1.0
C      1  0.5117130000000  0.5750850000000  0.4841630000000 1.0
C      1  0.4309110000000  0.5342490000000  0.5017050000000 1.0
C      1  0.4827610000000  0.4702380000000  0.5384330000000 1.0
C      1  0.5363800000000  0.5642510000000  0.5263030000000 1.0
C      1  0.5402030000000  0.4701870000000  0.4426320000000 1.0
C      1  0.5463470000000  0.4696370000000  0.5580400000000 1.0
C      1  0.4813380000000  0.5006190000000  0.4623270000000 1.0
C      1  0.4732940000000  0.5518040000000  0.4299910000000 1.0
C      1  0.4531910000000  0.4633330000000  0.5510500000000 1.0
C      1  0.5163790000000  0.5056680000000  0.5436120000000 1.0
C      1  0.4361630000000  0.4443640000000  0.5294990000000 1.0
C      1  0.4428710000000  0.5429890000000  0.4707690000000 1.0
C      1  0.4834510000000  0.4434440000000  0.4896630000000 1.0
C      1  0.4284720000000  0.4543760000000  0.5050650000000 1.0
C      1  0.4657400000000  0.4402800000000  0.4442440000000 1.0
C      1  0.4887980000000  0.5641200000000  0.5266000000000 1.0
C      1  0.5105510000000  0.5489760000000  0.5660850000000 1.0
C      1  0.5253560000000  0.5363100000000  0.5145670000000 1.0
C      1  0.5509710000000  0.4423640000000  0.5400650000000 1.0
C      1  0.5027240000000  0.5100390000000  0.4853140000000 1.0
C      1  0.5363170000000  0.5571320000000  0.5559490000000 1.0
C      1  0.5477330000000  0.5133670000000  0.5384540000000 1.0
C      1  0.5788240000000  0.4812640000000  0.5258470000000 1.0
C      1  0.4324340000000  0.4413380000000  0.4795360000000 1.0
C      1  0.5150250000000  0.4573350000000  0.4578620000000 1.0
C      1  0.4908630000000  0.5050700000000  0.5844430000000 1.0
C      1  0.4871140000000  0.5717890000000  0.4461230000000 1.0
C      1  0.4734020000000  0.5401540000000  0.5093560000000 1.0
C      1  0.4887240000000  0.5265680000000  0.4249290000000 1.0
C      1  0.5698550000000  0.4838120000000  0.5537510000000 1.0
C      1  0.5314210000000  0.5630780000000  0.4644540000000 1.0
C      1  0.5269280000000  0.5304060000000  0.4728220000000 1.0
C      1  0.5347800000000  0.5045950000000  0.5082660000000 1.0
C      1  0.5621870000000  0.5331800000000  0.4393360000000 1.0
C      1  0.4193640000000  0.4984290000000  0.5511490000000 1.0
C      1  0.5095520000000  0.5211460000000  0.5703500000000 1.0
C      1  0.5125980000000  0.4735490000000  0.5544090000000 1.0
C      1  0.5591970000000  0.5587170000000  0.5047870000000 1.0
C      1  0.4936050000000  0.4490240000000  0.4366800000000 1.0
C      1  0.5364480000000  0.4523740000000  0.5123160000000 1.0
C      1  0.5093770000000  0.4664400000000  0.5089230000000 1.0
C      1  0.4916710000000  0.4414770000000  0.5226180000000 1.0
C      1  0.5567680000000  0.5316680000000  0.4891940000000 1.0
C      1  0.5581120000000  0.4828120000000  0.4656900000000 1.0
C      1  0.4572320000000  0.5186370000000  0.4885720000000 1.0
C      1  0.4735510000000  0.5002800000000  0.5353480000000 1.0
END
