TITL C-2847948-6138-35 -0.00386934018294156 125000 -331.137313757992 0 0 62 (C1) n - 1
REM
REM in /home/bkarasulu/work/CARBON/AIRSS/Generating-Clusters/AIREBO/with-SteepDescent/Only-C1/SD-CG-opt/Try1-1.4A-POS3A/HFTN-CG
REM
REM
REM
REM
REM
REM ./C.cell (11c1c37f851c82e70ff6c80c92926a4b)
REM
REM compiler GCC version 9.2.1 20190827 (Red Hat 9.2.1-1)
REM options -cpp -mtune=generic -march=x86-64 -g -O0 -fpre-include=/usr/include/finclude/math-vector-fortran.h
REM seed 1783664146 624389553 211461625 1971862221 -1410132536 -239772255 -639573337 -1034679279 1092243580 193703493 -1240525061 -1744698799 -1538128803 -486530164 -1323050412 -747833411 -49474994 1536911706 1935406388 -99851112 -972925582 606185619 -340828587 -1753672694 297619389 958805103 1727416303 -1530070281 1965659717 -1883171812 835858792 -605905968 -186185190
REM
CELL 1.54180   50.00000   50.00000   50.00000   90.00000   90.00000   90.00000
LATT -1
SFAC C  
C      1  0.4484710000000  0.4966620000000  0.4732190000000 1.0
C      1  0.5779930000000  0.4653990000000  0.4786460000000 1.0
C      1  0.4943850000000  0.5525740000000  0.5104680000000 1.0
C      1  0.4702640000000  0.4926490000000  0.5870170000000 1.0
C      1  0.5617640000000  0.5111340000000  0.4772790000000 1.0
C      1  0.5364560000000  0.5000580000000  0.5391660000000 1.0
C      1  0.4688050000000  0.4493160000000  0.4827820000000 1.0
C      1  0.5524100000000  0.4374340000000  0.5363560000000 1.0
C      1  0.4660940000000  0.4747010000000  0.5655660000000 1.0
C      1  0.4209180000000  0.4983640000000  0.5261940000000 1.0
C      1  0.5413710000000  0.5509380000000  0.4971020000000 1.0
C      1  0.4856300000000  0.5216850000000  0.5125830000000 1.0
C      1  0.5365760000000  0.4888010000000  0.4317510000000 1.0
C      1  0.5066610000000  0.4957290000000  0.4188700000000 1.0
C      1  0.5631580000000  0.5027040000000  0.5579550000000 1.0
C      1  0.5584200000000  0.5233120000000  0.4531220000000 1.0
C      1  0.4737590000000  0.5662020000000  0.4964460000000 1.0
C      1  0.4243870000000  0.5091580000000  0.4879180000000 1.0
C      1  0.5392060000000  0.5308120000000  0.5244780000000 1.0
C      1  0.4534550000000  0.5488820000000  0.4868150000000 1.0
C      1  0.5566720000000  0.4794580000000  0.4149520000000 1.0
C      1  0.4976280000000  0.4348610000000  0.4934640000000 1.0
C      1  0.4644020000000  0.4770470000000  0.4937020000000 1.0
C      1  0.4790350000000  0.4522700000000  0.4531860000000 1.0
C      1  0.5063140000000  0.5047860000000  0.5542060000000 1.0
C      1  0.4647240000000  0.5386360000000  0.5333670000000 1.0
C      1  0.4738550000000  0.5147100000000  0.4849320000000 1.0
C      1  0.4533200000000  0.4964840000000  0.5193040000000 1.0
C      1  0.5429210000000  0.4807530000000  0.5117420000000 1.0
C      1  0.4794930000000  0.5635450000000  0.5528240000000 1.0
C      1  0.5320020000000  0.4735820000000  0.4582250000000 1.0
C      1  0.5255920000000  0.4349010000000  0.4650490000000 1.0
C      1  0.4695140000000  0.5195210000000  0.4376510000000 1.0
C      1  0.5551560000000  0.4822030000000  0.4809480000000 1.0
C      1  0.5636570000000  0.4562950000000  0.5193000000000 1.0
C      1  0.5318660000000  0.4509130000000  0.4879250000000 1.0
C      1  0.4908290000000  0.4882020000000  0.5094790000000 1.0
C      1  0.5032620000000  0.5621990000000  0.5354490000000 1.0
C      1  0.4567470000000  0.4940290000000  0.4438380000000 1.0
C      1  0.5311600000000  0.5223790000000  0.4338020000000 1.0
C      1  0.5354430000000  0.5918640000000  0.4727790000000 1.0
C      1  0.5065440000000  0.4524880000000  0.4502660000000 1.0
C      1  0.4048030000000  0.4919390000000  0.5013040000000 1.0
C      1  0.4704180000000  0.5369960000000  0.5662060000000 1.0
C      1  0.4624410000000  0.4676930000000  0.4363410000000 1.0
C      1  0.5255330000000  0.5483050000000  0.5457750000000 1.0
C      1  0.5607530000000  0.5268380000000  0.4995080000000 1.0
C      1  0.4493320000000  0.4276410000000  0.5008970000000 1.0
C      1  0.5194190000000  0.5317960000000  0.5671060000000 1.0
C      1  0.5412770000000  0.5497010000000  0.4508120000000 1.0
C      1  0.4836430000000  0.5152840000000  0.5758460000000 1.0
C      1  0.5276000000000  0.4712000000000  0.5548400000000 1.0
C      1  0.4780490000000  0.4913750000000  0.5408530000000 1.0
C      1  0.5128710000000  0.4678190000000  0.5099040000000 1.0
C      1  0.5269740000000  0.4459600000000  0.5451790000000 1.0
C      1  0.5035100000000  0.4397240000000  0.5266170000000 1.0
C      1  0.4427940000000  0.5274350000000  0.5099140000000 1.0
C      1  0.4972400000000  0.5203310000000  0.4353180000000 1.0
C      1  0.4752450000000  0.4254950000000  0.5141770000000 1.0
C      1  0.5390450000000  0.5652050000000  0.4736490000000 1.0
C      1  0.4613670000000  0.5340330000000  0.4620240000000 1.0
C      1  0.4173670000000  0.5275950000000  0.5336040000000 1.0
END
