TITL C-2848494-1720-566 -0.00555538935704906 125000 -306.41602450428 0 0 55 (C1) n - 1
REM
REM in /home/bkarasulu/work/CARBON/AIRSS/Generating-Clusters/AIREBO/with-SteepDescent/Only-C1/SD-CG-opt/Try1-1.4A-POS3A/HFTN-CG
REM
REM
REM
REM
REM
REM ./C.cell (11c1c37f851c82e70ff6c80c92926a4b)
REM
REM compiler GCC version 9.2.1 20190827 (Red Hat 9.2.1-1)
REM options -cpp -mtune=generic -march=x86-64 -g -O0 -fpre-include=/usr/include/finclude/math-vector-fortran.h
REM seed -643578400 -1670707869 -218491680 232224808 2079390905 -1403676611 -1757406620 -2033581049 127540296 -418196280 1563097092 -319002474 -636449850 -1421262664 1907909636 53449238 -483466925 1256872920 1664496079 2091373954 963087811 -877594577 224033394 -267444775 -904123454 363786004 -1455150809 277221329 -312717073 -1956908497 -1016623523 864656178 1494687254
REM
CELL 1.54180   50.00000   50.00000   50.00000   90.00000   90.00000   90.00000
LATT -1
SFAC C  
C      1  0.5603600000000  0.4954400000000  0.5369170000000 1.0
C      1  0.5290240000000  0.5093280000000  0.4468250000000 1.0
C      1  0.5607500000000  0.4669870000000  0.4979910000000 1.0
C      1  0.4568190000000  0.4937920000000  0.4581230000000 1.0
C      1  0.5159400000000  0.5251230000000  0.5022780000000 1.0
C      1  0.4231820000000  0.4948260000000  0.5108220000000 1.0
C      1  0.5295510000000  0.4722720000000  0.5104320000000 1.0
C      1  0.5142050000000  0.4809880000000  0.4584660000000 1.0
C      1  0.5599660000000  0.5104580000000  0.4861390000000 1.0
C      1  0.4872420000000  0.5183480000000  0.5290670000000 1.0
C      1  0.5185930000000  0.4590800000000  0.4841640000000 1.0
C      1  0.4849260000000  0.4923930000000  0.5593090000000 1.0
C      1  0.4117900000000  0.4848890000000  0.4876610000000 1.0
C      1  0.5355570000000  0.5504580000000  0.5115350000000 1.0
C      1  0.5408960000000  0.5347440000000  0.4727400000000 1.0
C      1  0.4894460000000  0.5215990000000  0.5625340000000 1.0
C      1  0.4620460000000  0.5097810000000  0.5142850000000 1.0
C      1  0.4247410000000  0.4562370000000  0.4806440000000 1.0
C      1  0.4982170000000  0.5082270000000  0.4343960000000 1.0
C      1  0.4364660000000  0.5061890000000  0.5363990000000 1.0
C      1  0.4727910000000  0.4430790000000  0.4799080000000 1.0
C      1  0.4737420000000  0.4504150000000  0.4537180000000 1.0
C      1  0.5709060000000  0.5169500000000  0.5166840000000 1.0
C      1  0.4878660000000  0.5528270000000  0.5378260000000 1.0
C      1  0.5477580000000  0.4772570000000  0.4544070000000 1.0
C      1  0.4796740000000  0.5287500000000  0.4334360000000 1.0
C      1  0.5091410000000  0.4787440000000  0.5530080000000 1.0
C      1  0.5206240000000  0.5598940000000  0.4840300000000 1.0
C      1  0.5651990000000  0.4687470000000  0.5280710000000 1.0
C      1  0.4841520000000  0.5061740000000  0.4741220000000 1.0
C      1  0.4961900000000  0.5512990000000  0.5062550000000 1.0
C      1  0.4963350000000  0.4424020000000  0.4943700000000 1.0
C      1  0.4587320000000  0.5251230000000  0.4852220000000 1.0
C      1  0.5854430000000  0.5395870000000  0.4957620000000 1.0
C      1  0.4309840000000  0.4812170000000  0.4620080000000 1.0
C      1  0.5132300000000  0.5005850000000  0.5198260000000 1.0
C      1  0.5334490000000  0.4971610000000  0.5447540000000 1.0
C      1  0.5115360000000  0.4530050000000  0.5404260000000 1.0
C      1  0.5365550000000  0.4481900000000  0.4574250000000 1.0
C      1  0.4636940000000  0.4395840000000  0.5259880000000 1.0
C      1  0.4922330000000  0.4416910000000  0.5226060000000 1.0
C      1  0.4529960000000  0.4767680000000  0.5159050000000 1.0
C      1  0.4848210000000  0.4790670000000  0.4456350000000 1.0
C      1  0.5105510000000  0.5194170000000  0.4719240000000 1.0
C      1  0.5582640000000  0.5455050000000  0.5243390000000 1.0
C      1  0.5725330000000  0.5463070000000  0.4743850000000 1.0
C      1  0.4519710000000  0.5697060000000  0.5101500000000 1.0
C      1  0.4976770000000  0.5484510000000  0.5694110000000 1.0
C      1  0.5636080000000  0.4849090000000  0.4768360000000 1.0
C      1  0.4671340000000  0.5526580000000  0.4950300000000 1.0
C      1  0.4617860000000  0.5707900000000  0.5361950000000 1.0
C      1  0.5407150000000  0.4494740000000  0.5331670000000 1.0
C      1  0.4486080000000  0.4503790000000  0.4981960000000 1.0
C      1  0.4588190000000  0.5257370000000  0.4511290000000 1.0
C      1  0.4605670000000  0.4869910000000  0.5471200000000 1.0
END
