TITL C-2847956-8218-148 -0.000859901503386325 125000 -312.567580452849 0 0 55 (C1) n - 1
REM
REM in /home/bkarasulu/work/CARBON/AIRSS/Generating-Clusters/AIREBO/with-SteepDescent/Only-C1/SD-CG-opt/Try1-1.4A-POS3A/HFTN-CG
REM
REM
REM
REM
REM
REM ./C.cell (11c1c37f851c82e70ff6c80c92926a4b)
REM
REM compiler GCC version 9.2.1 20190827 (Red Hat 9.2.1-1)
REM options -cpp -mtune=generic -march=x86-64 -g -O0 -fpre-include=/usr/include/finclude/math-vector-fortran.h
REM seed -937150111 1563149891 1952268033 1936065806 -280635635 1797665206 -336770913 1190834740 -1337247875 633386536 272748459 -2029818263 -973268241 1430302461 646311119 233099550 -148894329 714201285 919662982 -1343160174 -1796772013 -1161237924 788265942 -1109113245 105869625 58142139 -14662251 1531204398 -1415849766 730141157 1034263653 -325726609 1296897459
REM
CELL 1.54180   50.00000   50.00000   50.00000   90.00000   90.00000   90.00000
LATT -1
SFAC C  
C      1  0.5302980000000  0.4524060000000  0.4502480000000 1.0
C      1  0.4901280000000  0.4910880000000  0.5670560000000 1.0
C      1  0.5483650000000  0.4765670000000  0.5412640000000 1.0
C      1  0.5659690000000  0.4479100000000  0.4752450000000 1.0
C      1  0.4312390000000  0.5110030000000  0.4615860000000 1.0
C      1  0.5173750000000  0.4383730000000  0.4915340000000 1.0
C      1  0.4283140000000  0.4871050000000  0.5106990000000 1.0
C      1  0.5247820000000  0.5362450000000  0.5473760000000 1.0
C      1  0.4836970000000  0.4366480000000  0.4856370000000 1.0
C      1  0.4649130000000  0.5496870000000  0.4766960000000 1.0
C      1  0.5057740000000  0.5615940000000  0.4992580000000 1.0
C      1  0.4442720000000  0.5235780000000  0.5132130000000 1.0
C      1  0.4478260000000  0.4629220000000  0.5093240000000 1.0
C      1  0.5765780000000  0.4785840000000  0.4650970000000 1.0
C      1  0.4654640000000  0.5453550000000  0.4471040000000 1.0
C      1  0.4358900000000  0.5536720000000  0.5176930000000 1.0
C      1  0.5036240000000  0.4552810000000  0.5147340000000 1.0
C      1  0.5239360000000  0.5058230000000  0.4807680000000 1.0
C      1  0.4899570000000  0.5061420000000  0.4792870000000 1.0
C      1  0.4727750000000  0.4733880000000  0.5529170000000 1.0
C      1  0.4594410000000  0.5701390000000  0.5184970000000 1.0
C      1  0.4997380000000  0.4827860000000  0.5020940000000 1.0
C      1  0.4512770000000  0.5185780000000  0.4435210000000 1.0
C      1  0.5559220000000  0.4845900000000  0.4914420000000 1.0
C      1  0.4770850000000  0.5627660000000  0.5415790000000 1.0
C      1  0.4928620000000  0.4597810000000  0.4383500000000 1.0
C      1  0.5344830000000  0.5079380000000  0.5437570000000 1.0
C      1  0.4657940000000  0.5236490000000  0.4891620000000 1.0
C      1  0.5180530000000  0.4872970000000  0.5645620000000 1.0
C      1  0.5566880000000  0.4655920000000  0.4407710000000 1.0
C      1  0.5470800000000  0.4458040000000  0.4949130000000 1.0
C      1  0.4825860000000  0.5178750000000  0.5628420000000 1.0
C      1  0.5528610000000  0.4652580000000  0.5170800000000 1.0
C      1  0.4679270000000  0.5188410000000  0.5361780000000 1.0
C      1  0.5410760000000  0.5493510000000  0.4654850000000 1.0
C      1  0.5032280000000  0.5371800000000  0.5663770000000 1.0
C      1  0.4845690000000  0.4508620000000  0.5426130000000 1.0
C      1  0.4903440000000  0.4837750000000  0.4332270000000 1.0
C      1  0.5142070000000  0.4432250000000  0.5447190000000 1.0
C      1  0.5485470000000  0.5226900000000  0.4682820000000 1.0
C      1  0.5726160000000  0.5106040000000  0.4662270000000 1.0
C      1  0.5040650000000  0.4392080000000  0.4602550000000 1.0
C      1  0.4605380000000  0.4423230000000  0.4965590000000 1.0
C      1  0.5139670000000  0.5539630000000  0.4701720000000 1.0
C      1  0.4296920000000  0.5065750000000  0.4887150000000 1.0
C      1  0.5238180000000  0.5541840000000  0.5267900000000 1.0
C      1  0.5369300000000  0.4810420000000  0.4645170000000 1.0
C      1  0.4874030000000  0.5402240000000  0.5182940000000 1.0
C      1  0.4745420000000  0.5695910000000  0.4944960000000 1.0
C      1  0.5307160000000  0.4602380000000  0.5595450000000 1.0
C      1  0.5341180000000  0.5002170000000  0.5123400000000 1.0
C      1  0.4828810000000  0.5094920000000  0.4477420000000 1.0
C      1  0.4962850000000  0.5402590000000  0.4538820000000 1.0
C      1  0.4545910000000  0.4877410000000  0.5319880000000 1.0
C      1  0.5028930000000  0.5129900000000  0.5162910000000 1.0
END
