TITL C-2847957-7266-178 -0.00081270790848281 125000 -1026.47944265484 0 0 193 (C1) n - 1
REM
REM in /home/bkarasulu/work/CARBON/AIRSS/Generating-Clusters/AIREBO/with-SteepDescent/Only-C1/SD-CG-opt/Try1-1.4A-POS3A/HFTN-CG
REM
REM
REM
REM
REM
REM ./C.cell (11c1c37f851c82e70ff6c80c92926a4b)
REM
REM compiler GCC version 9.2.1 20190827 (Red Hat 9.2.1-1)
REM options -cpp -mtune=generic -march=x86-64 -g -O0 -fpre-include=/usr/include/finclude/math-vector-fortran.h
REM seed 1703768490 874903264 1025139031 825818955 -903258895 -1847075964 -1657704667 -2029272660 -934947173 361329253 -765975711 -44210970 741487885 1100949338 -484730997 -1918186118 1135692724 1924942014 927011332 -959926627 -517956367 -425340098 1703983087 554921764 -44330860 -529748667 1048333174 962195860 1960177397 581271716 1847817250 2064403701 -97575437
REM
CELL 1.54180   50.00000   50.00000   50.00000   90.00000   90.00000   90.00000
LATT -1
SFAC C  
C      1  0.4752640000000  0.5112340000000  0.5659950000000 1.0
C      1  0.5946420000000  0.5685740000000  0.5322900000000 1.0
C      1  0.4140060000000  0.4895160000000  0.5617740000000 1.0
C      1  0.4464420000000  0.4344350000000  0.4324050000000 1.0
C      1  0.5082250000000  0.4568060000000  0.5994830000000 1.0
C      1  0.5205990000000  0.5784830000000  0.5643110000000 1.0
C      1  0.5580400000000  0.4781550000000  0.4224410000000 1.0
C      1  0.4750610000000  0.5276580000000  0.4139460000000 1.0
C      1  0.5297620000000  0.4629580000000  0.4339020000000 1.0
C      1  0.5092480000000  0.4826540000000  0.6136820000000 1.0
C      1  0.4307780000000  0.4427390000000  0.5652600000000 1.0
C      1  0.5637180000000  0.5127020000000  0.4861890000000 1.0
C      1  0.5789000000000  0.5205150000000  0.4395020000000 1.0
C      1  0.5592350000000  0.5093220000000  0.4218000000000 1.0
C      1  0.4721450000000  0.5232050000000  0.5369080000000 1.0
C      1  0.5534600000000  0.4670450000000  0.3934860000000 1.0
C      1  0.4637150000000  0.4624870000000  0.5498290000000 1.0
C      1  0.4839040000000  0.5524400000000  0.5635720000000 1.0
C      1  0.5389040000000  0.5977430000000  0.5336510000000 1.0
C      1  0.5440370000000  0.4623280000000  0.4712370000000 1.0
C      1  0.5075970000000  0.5311140000000  0.5547600000000 1.0
C      1  0.4629180000000  0.5559350000000  0.5370400000000 1.0
C      1  0.4322950000000  0.5007250000000  0.4607210000000 1.0
C      1  0.4516800000000  0.4520820000000  0.5891040000000 1.0
C      1  0.6006820000000  0.4673510000000  0.5049270000000 1.0
C      1  0.4799680000000  0.5687010000000  0.4412090000000 1.0
C      1  0.5934580000000  0.4973040000000  0.4920860000000 1.0
C      1  0.4840490000000  0.4036970000000  0.5430790000000 1.0
C      1  0.5196470000000  0.5777170000000  0.4738470000000 1.0
C      1  0.5150570000000  0.4151340000000  0.5032300000000 1.0
C      1  0.4624340000000  0.5011650000000  0.4742980000000 1.0
C      1  0.6012900000000  0.5431110000000  0.5534550000000 1.0
C      1  0.4965100000000  0.5955740000000  0.5500630000000 1.0
C      1  0.4690790000000  0.4136280000000  0.5680340000000 1.0
C      1  0.5872940000000  0.5518620000000  0.4860070000000 1.0
C      1  0.4021640000000  0.5188040000000  0.5700990000000 1.0
C      1  0.5776950000000  0.4691160000000  0.4445340000000 1.0
C      1  0.5014020000000  0.5092530000000  0.4648570000000 1.0
C      1  0.4951470000000  0.5140850000000  0.3742300000000 1.0
C      1  0.4931550000000  0.4678630000000  0.4606870000000 1.0
C      1  0.4826120000000  0.4399540000000  0.5847670000000 1.0
C      1  0.4651870000000  0.3961090000000  0.4749310000000 1.0
C      1  0.5050960000000  0.3865840000000  0.4958880000000 1.0
C      1  0.5304640000000  0.5068960000000  0.6059030000000 1.0
C      1  0.5432440000000  0.4106650000000  0.4487770000000 1.0
C      1  0.4516500000000  0.4725940000000  0.4813480000000 1.0
C      1  0.4272040000000  0.5843180000000  0.5020280000000 1.0
C      1  0.5282080000000  0.4951170000000  0.4909080000000 1.0
C      1  0.4898400000000  0.5508990000000  0.4071280000000 1.0
C      1  0.4414310000000  0.4159800000000  0.5664010000000 1.0
C      1  0.4677300000000  0.4826080000000  0.4094170000000 1.0
C      1  0.5533160000000  0.5320600000000  0.6069270000000 1.0
C      1  0.5145780000000  0.5354070000000  0.6000790000000 1.0
C      1  0.4025430000000  0.4387630000000  0.5205290000000 1.0
C      1  0.4891150000000  0.5428790000000  0.4819500000000 1.0
C      1  0.5201470000000  0.5580530000000  0.4160780000000 1.0
C      1  0.4211860000000  0.4726950000000  0.4887680000000 1.0
C      1  0.5504780000000  0.5583090000000  0.5852230000000 1.0
C      1  0.4249850000000  0.5008680000000  0.5033190000000 1.0
C      1  0.5444220000000  0.4868020000000  0.5821990000000 1.0
C      1  0.4474120000000  0.5374580000000  0.4677350000000 1.0
C      1  0.5299510000000  0.4677490000000  0.3843380000000 1.0
C      1  0.6235590000000  0.4655120000000  0.5197090000000 1.0
C      1  0.5179260000000  0.3995020000000  0.5432350000000 1.0
C      1  0.5836010000000  0.5034040000000  0.5240560000000 1.0
C      1  0.5133180000000  0.4757980000000  0.5548110000000 1.0
C      1  0.4512470000000  0.6126560000000  0.4650670000000 1.0
C      1  0.5640330000000  0.5754450000000  0.5388930000000 1.0
C      1  0.5770090000000  0.4398560000000  0.5698700000000 1.0
C      1  0.4757750000000  0.5076760000000  0.3946850000000 1.0
C      1  0.5088480000000  0.6109030000000  0.5242700000000 1.0
C      1  0.4449340000000  0.5257690000000  0.5660420000000 1.0
C      1  0.4449770000000  0.5065800000000  0.5914310000000 1.0
C      1  0.4222270000000  0.5620720000000  0.4490520000000 1.0
C      1  0.5502190000000  0.5858840000000  0.5653020000000 1.0
C      1  0.5766490000000  0.4925930000000  0.5730110000000 1.0
C      1  0.5165830000000  0.5646050000000  0.5350980000000 1.0
C      1  0.5275230000000  0.4353630000000  0.4789060000000 1.0
C      1  0.4643290000000  0.5186670000000  0.4449570000000 1.0
C      1  0.4974960000000  0.3897430000000  0.4320120000000 1.0
C      1  0.6002100000000  0.4934260000000  0.5484990000000 1.0
C      1  0.4832140000000  0.4826220000000  0.5690960000000 1.0
C      1  0.4923080000000  0.5376930000000  0.4485000000000 1.0
C      1  0.3983590000000  0.5001110000000  0.4380590000000 1.0
C      1  0.4188880000000  0.5243580000000  0.4808560000000 1.0
C      1  0.5153800000000  0.5910680000000  0.4226610000000 1.0
C      1  0.5602900000000  0.5425170000000  0.4701530000000 1.0
C      1  0.5037310000000  0.4940610000000  0.4221340000000 1.0
C      1  0.5452220000000  0.5503550000000  0.5274750000000 1.0
C      1  0.5401300000000  0.4249240000000  0.5388370000000 1.0
C      1  0.5808980000000  0.5720620000000  0.5030790000000 1.0
C      1  0.4939810000000  0.4474370000000  0.5535940000000 1.0
C      1  0.4686630000000  0.4710280000000  0.5107470000000 1.0
C      1  0.5228940000000  0.5061770000000  0.5667370000000 1.0
C      1  0.4280160000000  0.4265330000000  0.5053100000000 1.0
C      1  0.5295130000000  0.5640130000000  0.4482290000000 1.0
C      1  0.4437550000000  0.4515550000000  0.4048290000000 1.0
C      1  0.4911170000000  0.5812440000000  0.4922210000000 1.0
C      1  0.5750020000000  0.4382610000000  0.4923150000000 1.0
C      1  0.5362060000000  0.5294770000000  0.4067900000000 1.0
C      1  0.5443430000000  0.5564280000000  0.4967660000000 1.0
C      1  0.4096290000000  0.5052720000000  0.5333320000000 1.0
C      1  0.5215660000000  0.4837090000000  0.4595680000000 1.0
C      1  0.4474720000000  0.5823950000000  0.4597830000000 1.0
C      1  0.4435740000000  0.4798200000000  0.5725090000000 1.0
C      1  0.4455740000000  0.4893170000000  0.5265230000000 1.0
C      1  0.5689840000000  0.4819260000000  0.4727200000000 1.0
C      1  0.5314510000000  0.5333400000000  0.4545680000000 1.0
C      1  0.5225160000000  0.4666940000000  0.5076030000000 1.0
C      1  0.4138520000000  0.5298760000000  0.4416440000000 1.0
C      1  0.4651840000000  0.3906340000000  0.5215190000000 1.0
C      1  0.5708510000000  0.4666530000000  0.5517930000000 1.0
C      1  0.4396730000000  0.3999550000000  0.5190620000000 1.0
C      1  0.5023260000000  0.4456070000000  0.4235680000000 1.0
C      1  0.5024710000000  0.4355070000000  0.4559180000000 1.0
C      1  0.4744480000000  0.4283140000000  0.4144080000000 1.0
C      1  0.3862190000000  0.4975580000000  0.5122380000000 1.0
C      1  0.6083180000000  0.5277540000000  0.4890980000000 1.0
C      1  0.4842990000000  0.5126020000000  0.4912390000000 1.0
C      1  0.4867150000000  0.5306250000000  0.5887770000000 1.0
C      1  0.5159570000000  0.4070490000000  0.4437680000000 1.0
C      1  0.4809760000000  0.4351120000000  0.4983870000000 1.0
C      1  0.5053380000000  0.6137880000000  0.4684040000000 1.0
C      1  0.4677090000000  0.5141840000000  0.6070570000000 1.0
C      1  0.6032570000000  0.5381510000000  0.5197420000000 1.0
C      1  0.5218580000000  0.5208710000000  0.3790380000000 1.0
C      1  0.4580280000000  0.6196010000000  0.4911110000000 1.0
C      1  0.5290850000000  0.5209650000000  0.5304390000000 1.0
C      1  0.5304740000000  0.4577180000000  0.5781550000000 1.0
C      1  0.5103470000000  0.5636120000000  0.5913210000000 1.0
C      1  0.4530680000000  0.3985380000000  0.4486310000000 1.0
C      1  0.5346700000000  0.6053120000000  0.4809780000000 1.0
C      1  0.4784360000000  0.4880690000000  0.4402260000000 1.0
C      1  0.5434840000000  0.4467590000000  0.5153620000000 1.0
C      1  0.4871730000000  0.5762820000000  0.5246380000000 1.0
C      1  0.5507150000000  0.5013060000000  0.5156440000000 1.0
C      1  0.5460110000000  0.3948440000000  0.5246450000000 1.0
C      1  0.5057120000000  0.4699660000000  0.4027680000000 1.0
C      1  0.5508060000000  0.5879310000000  0.5032770000000 1.0
C      1  0.4846260000000  0.5820810000000  0.5789200000000 1.0
C      1  0.5788370000000  0.4440010000000  0.4649940000000 1.0
C      1  0.6232210000000  0.4803700000000  0.5430960000000 1.0
C      1  0.5544830000000  0.3989880000000  0.4711160000000 1.0
C      1  0.5713480000000  0.5326170000000  0.5295650000000 1.0
C      1  0.4023170000000  0.4702660000000  0.5154980000000 1.0
C      1  0.4104920000000  0.4727720000000  0.4422150000000 1.0
C      1  0.4717730000000  0.4005240000000  0.4276020000000 1.0
C      1  0.3992500000000  0.5512920000000  0.4798260000000 1.0
C      1  0.4555320000000  0.4554200000000  0.4560010000000 1.0
C      1  0.5480810000000  0.4368410000000  0.5654450000000 1.0
C      1  0.4365600000000  0.6109230000000  0.5077820000000 1.0
C      1  0.4468120000000  0.5646150000000  0.5092190000000 1.0
C      1  0.4423390000000  0.4740910000000  0.4303830000000 1.0
C      1  0.4479650000000  0.5689880000000  0.4297260000000 1.0
C      1  0.4363080000000  0.5075480000000  0.4292330000000 1.0
C      1  0.5509230000000  0.4396590000000  0.4467750000000 1.0
C      1  0.4979320000000  0.4822690000000  0.5251840000000 1.0
C      1  0.5272570000000  0.5286840000000  0.4879300000000 1.0
C      1  0.5584450000000  0.5746460000000  0.4354260000000 1.0
C      1  0.5786080000000  0.5097760000000  0.6022920000000 1.0
C      1  0.4481850000000  0.4471710000000  0.5236960000000 1.0
C      1  0.5740300000000  0.4578560000000  0.5200840000000 1.0
C      1  0.5115320000000  0.4211900000000  0.5662060000000 1.0
C      1  0.4729560000000  0.4754760000000  0.5987400000000 1.0
C      1  0.4761170000000  0.4551110000000  0.3950030000000 1.0
C      1  0.5063850000000  0.5453030000000  0.5090300000000 1.0
C      1  0.4639300000000  0.5636430000000  0.4818050000000 1.0
C      1  0.5151680000000  0.5209670000000  0.4296600000000 1.0
C      1  0.4714840000000  0.5750170000000  0.4080440000000 1.0
C      1  0.4181320000000  0.4297480000000  0.4728110000000 1.0
C      1  0.5950050000000  0.5115430000000  0.4612300000000 1.0
C      1  0.3882150000000  0.5117200000000  0.4883820000000 1.0
C      1  0.4879200000000  0.6133530000000  0.4974960000000 1.0
C      1  0.4821490000000  0.4927080000000  0.6219390000000 1.0
C      1  0.5757350000000  0.5494680000000  0.4406610000000 1.0
C      1  0.4354170000000  0.5554240000000  0.5570260000000 1.0
C      1  0.5487450000000  0.4173210000000  0.4991700000000 1.0
C      1  0.4973820000000  0.5140780000000  0.5201840000000 1.0
C      1  0.4097840000000  0.4567950000000  0.4662740000000 1.0
C      1  0.5484000000000  0.5260790000000  0.5745810000000 1.0
C      1  0.5754180000000  0.5238370000000  0.5598200000000 1.0
C      1  0.4988200000000  0.5966680000000  0.4455690000000 1.0
C      1  0.4386620000000  0.5203330000000  0.5351240000000 1.0
C      1  0.4721820000000  0.4280970000000  0.4676280000000 1.0
C      1  0.4292010000000  0.4160300000000  0.4509740000000 1.0
C      1  0.4772370000000  0.3847800000000  0.4968330000000 1.0
C      1  0.4127950000000  0.5764640000000  0.4784340000000 1.0
C      1  0.4095710000000  0.5441340000000  0.5627370000000 1.0
C      1  0.4248300000000  0.4653020000000  0.5404910000000 1.0
C      1  0.5435050000000  0.4786040000000  0.5393800000000 1.0
C      1  0.4957790000000  0.4282590000000  0.5255550000000 1.0
C      1  0.5623960000000  0.5763700000000  0.4668000000000 1.0
C      1  0.4948210000000  0.4618000000000  0.4910780000000 1.0
END
