TITL C-2847945-6269-551 0.0603850005292394 125000 -760.5556669331 0 0 140 (C1) n - 1
REM
REM in /home/bkarasulu/work/CARBON/AIRSS/Generating-Clusters/AIREBO/with-SteepDescent/Only-C1/SD-CG-opt/Try1-1.4A-POS3A/HFTN-CG
REM
REM
REM
REM
REM
REM ./C.cell (11c1c37f851c82e70ff6c80c92926a4b)
REM
REM compiler GCC version 9.2.1 20190827 (Red Hat 9.2.1-1)
REM options -cpp -mtune=generic -march=x86-64 -g -O0 -fpre-include=/usr/include/finclude/math-vector-fortran.h
REM seed -799185295 373790767 -435546557 -2118064857 197085416 -279941432 259790459 1959258286 1113458246 1200422865 310747726 -990436663 1195357652 -2147442454 1497763812 1678744296 -1079856587 48582374 -602708980 26784397 138943797 -197785168 1822895069 -2140873419 -902142873 1244915848 -1256908416 -1132124459 2052375712 1170935388 437104128 -1505199554 1409893817
REM
CELL 1.54180   50.00000   50.00000   50.00000   90.00000   90.00000   90.00000
LATT -1
SFAC C  
C      1  0.4863910000000  0.5517090000000  0.4165140000000 1.0
C      1  0.5016870000000  0.4167730000000  0.5232600000000 1.0
C      1  0.4220550000000  0.4800170000000  0.5628990000000 1.0
C      1  0.5775110000000  0.5279750000000  0.4159740000000 1.0
C      1  0.5641620000000  0.4194920000000  0.4708660000000 1.0
C      1  0.4583220000000  0.4202180000000  0.4951670000000 1.0
C      1  0.4378440000000  0.5440390000000  0.4336650000000 1.0
C      1  0.5442660000000  0.4439560000000  0.4835890000000 1.0
C      1  0.4499100000000  0.4381940000000  0.5550310000000 1.0
C      1  0.4873480000000  0.5750290000000  0.4319630000000 1.0
C      1  0.4556410000000  0.5430240000000  0.5358170000000 1.0
C      1  0.5360810000000  0.5749010000000  0.4577840000000 1.0
C      1  0.5125140000000  0.5325730000000  0.5232050000000 1.0
C      1  0.5124180000000  0.5237480000000  0.4691060000000 1.0
C      1  0.5401610000000  0.5676480000000  0.5383550000000 1.0
C      1  0.5337270000000  0.4472160000000  0.5466870000000 1.0
C      1  0.5420010000000  0.4727990000000  0.5874530000000 1.0
C      1  0.4943810000000  0.4835640000000  0.3823970000000 1.0
C      1  0.4768270000000  0.4051910000000  0.5116160000000 1.0
C      1  0.5294320000000  0.4899110000000  0.5676700000000 1.0
C      1  0.4623560000000  0.4246350000000  0.4460540000000 1.0
C      1  0.4821400000000  0.5267310000000  0.4745540000000 1.0
C      1  0.5689670000000  0.4672910000000  0.4822030000000 1.0
C      1  0.4497920000000  0.4608490000000  0.4352690000000 1.0
C      1  0.4589930000000  0.4508590000000  0.5846200000000 1.0
C      1  0.4409700000000  0.5672210000000  0.4524470000000 1.0
C      1  0.4929460000000  0.4515880000000  0.5863560000000 1.0
C      1  0.4699160000000  0.5028160000000  0.4455530000000 1.0
C      1  0.5002800000000  0.4138500000000  0.5534440000000 1.0
C      1  0.5113700000000  0.5459070000000  0.4937470000000 1.0
C      1  0.4610830000000  0.5846570000000  0.5276930000000 1.0
C      1  0.5185630000000  0.4643700000000  0.6036730000000 1.0
C      1  0.4404260000000  0.5751790000000  0.5130330000000 1.0
C      1  0.6305050000000  0.5573350000000  0.4930910000000 1.0
C      1  0.5584450000000  0.5658550000000  0.5097140000000 1.0
C      1  0.5045350000000  0.5046970000000  0.4017690000000 1.0
C      1  0.4680390000000  0.5750440000000  0.5563060000000 1.0
C      1  0.4421810000000  0.4670340000000  0.5387650000000 1.0
C      1  0.4852150000000  0.5613660000000  0.4955620000000 1.0
C      1  0.5396630000000  0.4667440000000  0.5194900000000 1.0
C      1  0.4370730000000  0.5626130000000  0.5508300000000 1.0
C      1  0.5082250000000  0.4487390000000  0.4203590000000 1.0
C      1  0.5845090000000  0.4728330000000  0.5326860000000 1.0
C      1  0.5056970000000  0.4597320000000  0.5566750000000 1.0
C      1  0.4187830000000  0.5261390000000  0.4234810000000 1.0
C      1  0.4882420000000  0.4475440000000  0.4933020000000 1.0
C      1  0.4783910000000  0.4265630000000  0.5697380000000 1.0
C      1  0.4223920000000  0.4619210000000  0.4641530000000 1.0
C      1  0.4372100000000  0.4943920000000  0.4860310000000 1.0
C      1  0.5652240000000  0.5509330000000  0.4244820000000 1.0
C      1  0.5864780000000  0.5494330000000  0.4729230000000 1.0
C      1  0.5970180000000  0.5024420000000  0.5391650000000 1.0
C      1  0.5799320000000  0.4801370000000  0.4331510000000 1.0
C      1  0.4156420000000  0.5154870000000  0.5206650000000 1.0
C      1  0.5132620000000  0.5843600000000  0.4396130000000 1.0
C      1  0.4331800000000  0.4405080000000  0.5057640000000 1.0
C      1  0.4563180000000  0.5120770000000  0.5426390000000 1.0
C      1  0.4773890000000  0.4029990000000  0.4559830000000 1.0
C      1  0.4335620000000  0.5241880000000  0.4799630000000 1.0
C      1  0.4530880000000  0.3982440000000  0.5280750000000 1.0
C      1  0.5052080000000  0.4769570000000  0.4952980000000 1.0
C      1  0.4223030000000  0.5620380000000  0.4767340000000 1.0
C      1  0.4551900000000  0.5301690000000  0.4569750000000 1.0
C      1  0.5155860000000  0.4436470000000  0.4734620000000 1.0
C      1  0.5138670000000  0.4664590000000  0.4001580000000 1.0
C      1  0.5681420000000  0.5660030000000  0.4507720000000 1.0
C      1  0.5884960000000  0.5540690000000  0.5199690000000 1.0
C      1  0.4882980000000  0.6111190000000  0.4914140000000 1.0
C      1  0.4261950000000  0.4993020000000  0.4231510000000 1.0
C      1  0.4338270000000  0.4666510000000  0.5879650000000 1.0
C      1  0.5137340000000  0.4469640000000  0.5131510000000 1.0
C      1  0.4665890000000  0.5797520000000  0.4507100000000 1.0
C      1  0.4895540000000  0.5202320000000  0.4239120000000 1.0
C      1  0.5208910000000  0.5010880000000  0.5134510000000 1.0
C      1  0.5193290000000  0.5348040000000  0.4314770000000 1.0
C      1  0.5311870000000  0.4956250000000  0.4654840000000 1.0
C      1  0.5349310000000  0.4909090000000  0.4090370000000 1.0
C      1  0.5412040000000  0.5403120000000  0.5091780000000 1.0
C      1  0.5597750000000  0.4927470000000  0.5284730000000 1.0
C      1  0.4397100000000  0.4887960000000  0.4525520000000 1.0
C      1  0.5618160000000  0.5333400000000  0.4757090000000 1.0
C      1  0.5648800000000  0.5009650000000  0.4188480000000 1.0
C      1  0.5695930000000  0.4325810000000  0.5019160000000 1.0
C      1  0.5730130000000  0.4497890000000  0.5507210000000 1.0
C      1  0.4891420000000  0.5001290000000  0.5232840000000 1.0
C      1  0.4159770000000  0.4609760000000  0.4913580000000 1.0
C      1  0.5357600000000  0.5071430000000  0.5434550000000 1.0
C      1  0.4580490000000  0.5430830000000  0.5811880000000 1.0
C      1  0.4923590000000  0.4891740000000  0.4654810000000 1.0
C      1  0.4419090000000  0.4951570000000  0.5197600000000 1.0
C      1  0.5584790000000  0.4381550000000  0.4467180000000 1.0
C      1  0.4619340000000  0.5421030000000  0.5050760000000 1.0
C      1  0.4411020000000  0.5259220000000  0.5686870000000 1.0
C      1  0.4966950000000  0.4865250000000  0.6051510000000 1.0
C      1  0.4091630000000  0.5369580000000  0.4605620000000 1.0
C      1  0.5565010000000  0.4275070000000  0.5309740000000 1.0
C      1  0.5371490000000  0.5422770000000  0.4594690000000 1.0
C      1  0.4986470000000  0.4885110000000  0.5725840000000 1.0
C      1  0.4086560000000  0.5011060000000  0.4589740000000 1.0
C      1  0.4383100000000  0.4209180000000  0.5328520000000 1.0
C      1  0.5593430000000  0.5771950000000  0.4821270000000 1.0
C      1  0.5733870000000  0.4623370000000  0.4519740000000 1.0
C      1  0.4338440000000  0.4370530000000  0.4488020000000 1.0
C      1  0.4625500000000  0.4554700000000  0.5141140000000 1.0
C      1  0.4839310000000  0.5048220000000  0.5545610000000 1.0
C      1  0.5024930000000  0.3969810000000  0.4662630000000 1.0
C      1  0.5165990000000  0.4685630000000  0.4539760000000 1.0
C      1  0.4727360000000  0.5102820000000  0.4997890000000 1.0
C      1  0.6035800000000  0.5530290000000  0.4941660000000 1.0
C      1  0.5332520000000  0.5075950000000  0.4368290000000 1.0
C      1  0.5323040000000  0.4434230000000  0.4373190000000 1.0
C      1  0.5596510000000  0.5151310000000  0.5026050000000 1.0
C      1  0.5266170000000  0.4194200000000  0.5625300000000 1.0
C      1  0.4776690000000  0.5869750000000  0.4747390000000 1.0
C      1  0.5402430000000  0.5375280000000  0.5542320000000 1.0
C      1  0.4636440000000  0.4788680000000  0.4904860000000 1.0
C      1  0.4050510000000  0.4855310000000  0.5083340000000 1.0
C      1  0.5917240000000  0.5286340000000  0.5424800000000 1.0
C      1  0.5278360000000  0.5528460000000  0.6011680000000 1.0
C      1  0.5194850000000  0.5867240000000  0.5507460000000 1.0
C      1  0.4972540000000  0.5317370000000  0.5478430000000 1.0
C      1  0.4090280000000  0.4663210000000  0.5312390000000 1.0
C      1  0.4970990000000  0.5901020000000  0.5610850000000 1.0
C      1  0.4881240000000  0.5521250000000  0.5692810000000 1.0
C      1  0.5893400000000  0.4588790000000  0.5057830000000 1.0
C      1  0.5191950000000  0.4129520000000  0.4830150000000 1.0
C      1  0.5331560000000  0.4126780000000  0.5110520000000 1.0
C      1  0.5439630000000  0.4871960000000  0.4926400000000 1.0
C      1  0.5634700000000  0.4570880000000  0.5757590000000 1.0
C      1  0.4855050000000  0.4703870000000  0.5342780000000 1.0
C      1  0.4280160000000  0.5440840000000  0.5069770000000 1.0
C      1  0.5709340000000  0.5620990000000  0.5470690000000 1.0
C      1  0.5721810000000  0.5365390000000  0.5649250000000 1.0
C      1  0.4817110000000  0.4491570000000  0.4343230000000 1.0
C      1  0.4184430000000  0.5096470000000  0.5543270000000 1.0
C      1  0.4847800000000  0.5894380000000  0.5133350000000 1.0
C      1  0.4131350000000  0.5568270000000  0.5347930000000 1.0
C      1  0.5192620000000  0.5471840000000  0.5769970000000 1.0
C      1  0.4763240000000  0.4606390000000  0.4646640000000 1.0
C      1  0.5393120000000  0.5532610000000  0.4152480000000 1.0
END
