TITL C-2847950-6905-513 -0.000221871455554049 125000 -524.99605786403 0 0 100 (C1) n - 1
REM
REM in /home/bkarasulu/work/CARBON/AIRSS/Generating-Clusters/AIREBO/with-SteepDescent/Only-C1/SD-CG-opt/Try1-1.4A-POS3A/HFTN-CG
REM
REM
REM
REM
REM
REM ./C.cell (11c1c37f851c82e70ff6c80c92926a4b)
REM
REM compiler GCC version 9.2.1 20190827 (Red Hat 9.2.1-1)
REM options -cpp -mtune=generic -march=x86-64 -g -O0 -fpre-include=/usr/include/finclude/math-vector-fortran.h
REM seed -317351057 1046755910 -52096958 -633509905 641814028 1538528463 1768868168 -1445909347 804109196 379187717 2110141915 334950561 645120408 1613088860 2052626117 709394681 -2077263630 1857520079 585189118 689784059 716876296 -1968953059 4918919 2018106378 2004017127 1734632759 -2015690140 313549830 2142597360 1202701048 402716761 43505615 217218951
REM
CELL 1.54180   50.00000   50.00000   50.00000   90.00000   90.00000   90.00000
LATT -1
SFAC C  
C      1  0.5137950000000  0.5116420000000  0.4221140000000 1.0
C      1  0.5475600000000  0.4594950000000  0.4397170000000 1.0
C      1  0.4850430000000  0.4695470000000  0.4273250000000 1.0
C      1  0.4309730000000  0.5183290000000  0.5316890000000 1.0
C      1  0.4442190000000  0.4904100000000  0.5380420000000 1.0
C      1  0.5082070000000  0.4823670000000  0.4139180000000 1.0
C      1  0.4314020000000  0.4667390000000  0.5225640000000 1.0
C      1  0.4895830000000  0.5713630000000  0.5751430000000 1.0
C      1  0.4720910000000  0.5087570000000  0.5643780000000 1.0
C      1  0.4551200000000  0.5329260000000  0.5566570000000 1.0
C      1  0.5533550000000  0.4207940000000  0.4954410000000 1.0
C      1  0.4718740000000  0.4483470000000  0.4495560000000 1.0
C      1  0.4754350000000  0.5018740000000  0.4259450000000 1.0
C      1  0.5310080000000  0.4625300000000  0.5072480000000 1.0
C      1  0.4448740000000  0.4423540000000  0.5389750000000 1.0
C      1  0.5080930000000  0.5480130000000  0.5284680000000 1.0
C      1  0.4902960000000  0.5619210000000  0.4870910000000 1.0
C      1  0.4966960000000  0.4115940000000  0.4851790000000 1.0
C      1  0.4783770000000  0.5767360000000  0.5509050000000 1.0
C      1  0.4558920000000  0.4589290000000  0.5027970000000 1.0
C      1  0.5834240000000  0.4888370000000  0.4695860000000 1.0
C      1  0.4539320000000  0.5812150000000  0.5049030000000 1.0
C      1  0.4986710000000  0.5923480000000  0.5114900000000 1.0
C      1  0.4971210000000  0.4265360000000  0.4561560000000 1.0
C      1  0.5542770000000  0.4828460000000  0.5328000000000 1.0
C      1  0.5291210000000  0.5066200000000  0.5536280000000 1.0
C      1  0.5126930000000  0.4550660000000  0.5561600000000 1.0
C      1  0.5476250000000  0.5240200000000  0.4592620000000 1.0
C      1  0.4590760000000  0.5231390000000  0.4064220000000 1.0
C      1  0.5223890000000  0.4828860000000  0.5712600000000 1.0
C      1  0.5140360000000  0.5845640000000  0.4876580000000 1.0
C      1  0.5111480000000  0.4688900000000  0.4664060000000 1.0
C      1  0.4853430000000  0.5078650000000  0.5106560000000 1.0
C      1  0.4517510000000  0.4265230000000  0.4661330000000 1.0
C      1  0.5376990000000  0.5564000000000  0.4562220000000 1.0
C      1  0.4374740000000  0.5637840000000  0.4819320000000 1.0
C      1  0.5250490000000  0.4303420000000  0.4842790000000 1.0
C      1  0.5394160000000  0.5664380000000  0.5121510000000 1.0
C      1  0.5507560000000  0.4747190000000  0.4874430000000 1.0
C      1  0.4316200000000  0.5116490000000  0.5004350000000 1.0
C      1  0.4767810000000  0.4159430000000  0.5047650000000 1.0
C      1  0.5298360000000  0.4214970000000  0.5430650000000 1.0
C      1  0.5052690000000  0.5277240000000  0.5528840000000 1.0
C      1  0.4946470000000  0.4978220000000  0.4732460000000 1.0
C      1  0.4554620000000  0.5411610000000  0.5257190000000 1.0
C      1  0.4412100000000  0.4597440000000  0.4402620000000 1.0
C      1  0.4555270000000  0.4296990000000  0.4929100000000 1.0
C      1  0.5755720000000  0.5430260000000  0.4971320000000 1.0
C      1  0.4187660000000  0.5365290000000  0.4899480000000 1.0
C      1  0.4939060000000  0.5244420000000  0.4434810000000 1.0
C      1  0.5135910000000  0.5591820000000  0.4429940000000 1.0
C      1  0.5144280000000  0.5250420000000  0.5066470000000 1.0
C      1  0.4715300000000  0.4761690000000  0.5744130000000 1.0
C      1  0.4978280000000  0.4900870000000  0.5877880000000 1.0
C      1  0.4593540000000  0.4919790000000  0.4955420000000 1.0
C      1  0.5337970000000  0.4942050000000  0.4679980000000 1.0
C      1  0.5306620000000  0.4997460000000  0.5229180000000 1.0
C      1  0.5341600000000  0.5531950000000  0.5749630000000 1.0
C      1  0.4110940000000  0.4953410000000  0.4651240000000 1.0
C      1  0.5085140000000  0.4859340000000  0.5019810000000 1.0
C      1  0.4670380000000  0.5735150000000  0.4682290000000 1.0
C      1  0.5455520000000  0.5275900000000  0.4930130000000 1.0
C      1  0.5426570000000  0.5123990000000  0.4287630000000 1.0
C      1  0.5249490000000  0.4437500000000  0.4530830000000 1.0
C      1  0.5387290000000  0.4807010000000  0.4234270000000 1.0
C      1  0.5075320000000  0.5517110000000  0.5846180000000 1.0
C      1  0.4801990000000  0.5555050000000  0.4453020000000 1.0
C      1  0.4387560000000  0.5114530000000  0.4517650000000 1.0
C      1  0.5370350000000  0.5584590000000  0.5423120000000 1.0
C      1  0.5444870000000  0.4587010000000  0.5676530000000 1.0
C      1  0.4808860000000  0.4610220000000  0.4798010000000 1.0
C      1  0.5663440000000  0.4664730000000  0.4586600000000 1.0
C      1  0.4939060000000  0.4619530000000  0.5304440000000 1.0
C      1  0.4248620000000  0.4847920000000  0.4358720000000 1.0
C      1  0.5694890000000  0.5682820000000  0.5056600000000 1.0
C      1  0.4745550000000  0.4262770000000  0.5342340000000 1.0
C      1  0.4761370000000  0.4901390000000  0.5372610000000 1.0
C      1  0.4688410000000  0.4965090000000  0.4571240000000 1.0
C      1  0.4796290000000  0.5642160000000  0.5193110000000 1.0
C      1  0.4554760000000  0.5354020000000  0.4343450000000 1.0
C      1  0.5738820000000  0.5164740000000  0.5417630000000 1.0
C      1  0.4219090000000  0.4799820000000  0.4927270000000 1.0
C      1  0.4054520000000  0.5241570000000  0.5427400000000 1.0
C      1  0.5835970000000  0.4867240000000  0.5495730000000 1.0
C      1  0.4728390000000  0.4537070000000  0.5542770000000 1.0
C      1  0.4949580000000  0.5225740000000  0.5844500000000 1.0
C      1  0.4997290000000  0.5309550000000  0.4765580000000 1.0
C      1  0.5016410000000  0.4471480000000  0.5023610000000 1.0
C      1  0.5403330000000  0.5737870000000  0.4791060000000 1.0
C      1  0.5504100000000  0.5301280000000  0.5559910000000 1.0
C      1  0.4457120000000  0.4760980000000  0.4687360000000 1.0
C      1  0.4674190000000  0.5332000000000  0.4967640000000 1.0
C      1  0.5794960000000  0.5137150000000  0.4586090000000 1.0
C      1  0.5813460000000  0.4645700000000  0.5233480000000 1.0
C      1  0.4520660000000  0.5371000000000  0.4685940000000 1.0
C      1  0.5014400000000  0.4252440000000  0.5499690000000 1.0
C      1  0.5677930000000  0.4355610000000  0.5142170000000 1.0
C      1  0.5460900000000  0.4497130000000  0.5348940000000 1.0
C      1  0.5776330000000  0.4877800000000  0.5007640000000 1.0
C      1  0.5707500000000  0.5147100000000  0.5117670000000 1.0
END
