TITL C-2848497-6229-17 0.001013014201012 125000 -626.585062209359 0 0 113 (C1) n - 1
REM
REM in /home/bkarasulu/work/CARBON/AIRSS/Generating-Clusters/AIREBO/with-SteepDescent/Only-C1/SD-CG-opt/Try1-1.4A-POS3A/HFTN-CG
REM
REM
REM
REM
REM
REM ./C.cell (11c1c37f851c82e70ff6c80c92926a4b)
REM
REM compiler GCC version 9.2.1 20190827 (Red Hat 9.2.1-1)
REM options -cpp -mtune=generic -march=x86-64 -g -O0 -fpre-include=/usr/include/finclude/math-vector-fortran.h
REM seed -36358398 2087045525 -460643730 432710699 31379580 -394524128 -918253776 2132102204 -1628162737 -1591213789 2139492843 870318294 994531329 742012763 497306323 -188025106 1870744291 549550865 -638592796 749754266 433560450 1437401311 -181929658 495014568 -1808160764 567219230 620070303 851352601 -1731610260 1379807926 1519407278 -249199833 -1431798932
REM
CELL 1.54180   50.00000   50.00000   50.00000   90.00000   90.00000   90.00000
LATT -1
SFAC C  
C      1  0.4848370000000  0.4623780000000  0.5369510000000 1.0
C      1  0.5126200000000  0.5460260000000  0.4183450000000 1.0
C      1  0.5241410000000  0.4978500000000  0.5204890000000 1.0
C      1  0.4456210000000  0.5226850000000  0.5250570000000 1.0
C      1  0.4502440000000  0.4866610000000  0.4960530000000 1.0
C      1  0.5501080000000  0.5406660000000  0.4310150000000 1.0
C      1  0.4948050000000  0.4083500000000  0.5140800000000 1.0
C      1  0.4289870000000  0.4799080000000  0.4638750000000 1.0
C      1  0.5421150000000  0.4746450000000  0.4147060000000 1.0
C      1  0.5008870000000  0.4510740000000  0.4244870000000 1.0
C      1  0.4466430000000  0.4545950000000  0.4781500000000 1.0
C      1  0.5435310000000  0.4112690000000  0.4497630000000 1.0
C      1  0.5372610000000  0.4444500000000  0.5754010000000 1.0
C      1  0.5166480000000  0.5435320000000  0.5501250000000 1.0
C      1  0.4132010000000  0.4569220000000  0.5144060000000 1.0
C      1  0.4280040000000  0.5710170000000  0.5089430000000 1.0
C      1  0.4275700000000  0.5383580000000  0.4370110000000 1.0
C      1  0.5329580000000  0.4455880000000  0.5416880000000 1.0
C      1  0.5184610000000  0.4126980000000  0.4472200000000 1.0
C      1  0.5739250000000  0.4511480000000  0.5154100000000 1.0
C      1  0.4923950000000  0.5744610000000  0.5563640000000 1.0
C      1  0.5267020000000  0.4509900000000  0.4153650000000 1.0
C      1  0.4829040000000  0.4724140000000  0.4117460000000 1.0
C      1  0.5840770000000  0.5178240000000  0.5485200000000 1.0
C      1  0.4951980000000  0.4360830000000  0.4544790000000 1.0
C      1  0.5649410000000  0.5071810000000  0.4999730000000 1.0
C      1  0.5622010000000  0.4991310000000  0.5328930000000 1.0
C      1  0.5982230000000  0.5069370000000  0.5692600000000 1.0
C      1  0.5952610000000  0.4962950000000  0.5108490000000 1.0
C      1  0.4726980000000  0.5539420000000  0.5056860000000 1.0
C      1  0.5367620000000  0.5866560000000  0.5832550000000 1.0
C      1  0.4855810000000  0.5448280000000  0.5638940000000 1.0
C      1  0.5478200000000  0.5658280000000  0.4412640000000 1.0
C      1  0.5845130000000  0.4734290000000  0.5283690000000 1.0
C      1  0.4516940000000  0.5875530000000  0.4939370000000 1.0
C      1  0.5266150000000  0.4969840000000  0.4084900000000 1.0
C      1  0.4943930000000  0.5333110000000  0.4634660000000 1.0
C      1  0.4747840000000  0.5129730000000  0.5294860000000 1.0
C      1  0.5542310000000  0.4322980000000  0.5235430000000 1.0
C      1  0.4658860000000  0.4494390000000  0.4435650000000 1.0
C      1  0.4696050000000  0.5660870000000  0.4436950000000 1.0
C      1  0.5391090000000  0.4763620000000  0.5405940000000 1.0
C      1  0.4842590000000  0.5842600000000  0.5294960000000 1.0
C      1  0.4822510000000  0.4285050000000  0.5351860000000 1.0
C      1  0.5280610000000  0.4994810000000  0.4867400000000 1.0
C      1  0.4775420000000  0.5033510000000  0.4235840000000 1.0
C      1  0.5863960000000  0.5436600000000  0.5384870000000 1.0
C      1  0.5424170000000  0.5762750000000  0.5341110000000 1.0
C      1  0.4699830000000  0.4153120000000  0.4639220000000 1.0
C      1  0.4208810000000  0.4915780000000  0.5490520000000 1.0
C      1  0.4970850000000  0.4918830000000  0.5401310000000 1.0
C      1  0.4472150000000  0.5489050000000  0.5170620000000 1.0
C      1  0.5157930000000  0.5217160000000  0.5761940000000 1.0
C      1  0.4546660000000  0.4562880000000  0.5514800000000 1.0
C      1  0.5144720000000  0.4180570000000  0.4980460000000 1.0
C      1  0.4650170000000  0.4974180000000  0.5745580000000 1.0
C      1  0.5064950000000  0.4481870000000  0.4844360000000 1.0
C      1  0.4178810000000  0.4832820000000  0.4966620000000 1.0
C      1  0.5653500000000  0.4792620000000  0.4289950000000 1.0
C      1  0.5262550000000  0.5184120000000  0.4291800000000 1.0
C      1  0.4699910000000  0.5147320000000  0.4765810000000 1.0
C      1  0.5001860000000  0.4807260000000  0.4920890000000 1.0
C      1  0.4721260000000  0.4637220000000  0.4973920000000 1.0
C      1  0.4752990000000  0.4480110000000  0.5956590000000 1.0
C      1  0.4714460000000  0.5546520000000  0.4746270000000 1.0
C      1  0.4770210000000  0.5936180000000  0.5034180000000 1.0
C      1  0.5710100000000  0.5630820000000  0.5278860000000 1.0
C      1  0.4731670000000  0.5203090000000  0.5604480000000 1.0
C      1  0.4266090000000  0.5359360000000  0.4651470000000 1.0
C      1  0.4389020000000  0.5104150000000  0.4745200000000 1.0
C      1  0.5068270000000  0.5696490000000  0.4229870000000 1.0
C      1  0.4568500000000  0.4386290000000  0.5772090000000 1.0
C      1  0.4955520000000  0.5840040000000  0.4511050000000 1.0
C      1  0.5058460000000  0.4486620000000  0.5849930000000 1.0
C      1  0.3717690000000  0.4876490000000  0.5704680000000 1.0
C      1  0.5590780000000  0.4442890000000  0.5892830000000 1.0
C      1  0.5959890000000  0.5071500000000  0.4542910000000 1.0
C      1  0.4826750000000  0.4966640000000  0.4534320000000 1.0
C      1  0.5428110000000  0.4183330000000  0.5014370000000 1.0
C      1  0.5103880000000  0.5328070000000  0.5000030000000 1.0
C      1  0.5732030000000  0.4920350000000  0.4522120000000 1.0
C      1  0.4896430000000  0.5108200000000  0.5011580000000 1.0
C      1  0.5024420000000  0.5895200000000  0.4839400000000 1.0
C      1  0.4445380000000  0.4829070000000  0.5621390000000 1.0
C      1  0.4526930000000  0.5536770000000  0.4255960000000 1.0
C      1  0.5377000000000  0.5218770000000  0.5393230000000 1.0
C      1  0.5576880000000  0.4855710000000  0.4774670000000 1.0
C      1  0.5560890000000  0.4264660000000  0.4731650000000 1.0
C      1  0.4259680000000  0.5027420000000  0.5233790000000 1.0
C      1  0.5141860000000  0.5090420000000  0.4570490000000 1.0
C      1  0.5685220000000  0.4554830000000  0.4861400000000 1.0
C      1  0.5045980000000  0.4972700000000  0.5692910000000 1.0
C      1  0.4884260000000  0.4778990000000  0.5878740000000 1.0
C      1  0.3955540000000  0.4883630000000  0.5594870000000 1.0
C      1  0.5045170000000  0.4337570000000  0.5564810000000 1.0
C      1  0.5289140000000  0.5282690000000  0.5992770000000 1.0
C      1  0.5505950000000  0.5584190000000  0.5031010000000 1.0
C      1  0.4482170000000  0.4264990000000  0.4714770000000 1.0
C      1  0.5366720000000  0.4536680000000  0.4761110000000 1.0
C      1  0.4394380000000  0.5591550000000  0.4791990000000 1.0
C      1  0.4497010000000  0.4872100000000  0.4126580000000 1.0
C      1  0.4564970000000  0.4764030000000  0.4441730000000 1.0
C      1  0.4503180000000  0.5203540000000  0.4205470000000 1.0
C      1  0.5419970000000  0.5290890000000  0.4970050000000 1.0
C      1  0.4600770000000  0.4402450000000  0.5153650000000 1.0
C      1  0.5111000000000  0.5571840000000  0.4763050000000 1.0
C      1  0.5282280000000  0.5760170000000  0.4560620000000 1.0
C      1  0.4341360000000  0.4469120000000  0.5281260000000 1.0
C      1  0.5093430000000  0.4521070000000  0.5181080000000 1.0
C      1  0.5032030000000  0.4913350000000  0.3955070000000 1.0
C      1  0.5261120000000  0.5749770000000  0.5607140000000 1.0
C      1  0.5235770000000  0.5785760000000  0.5073200000000 1.0
C      1  0.5023870000000  0.5564600000000  0.5220810000000 1.0
END
