TITL C-2847949-8115-443 -0.00593377930144528 125000 -356.789176197519 0 0 64 (C1) n - 1
REM
REM in /home/bkarasulu/work/CARBON/AIRSS/Generating-Clusters/AIREBO/with-SteepDescent/Only-C1/SD-CG-opt/Try1-1.4A-POS3A/HFTN-CG
REM
REM
REM
REM
REM
REM ./C.cell (11c1c37f851c82e70ff6c80c92926a4b)
REM
REM compiler GCC version 9.2.1 20190827 (Red Hat 9.2.1-1)
REM options -cpp -mtune=generic -march=x86-64 -g -O0 -fpre-include=/usr/include/finclude/math-vector-fortran.h
REM seed -1326574622 -1385602807 1452939997 -1413726422 1187067132 -1336452977 1696434781 -571528660 1741837731 -1718396441 602210584 872099346 -1576900687 -681528082 823906180 578385666 1827226577 -160042986 -278148194 561860699 671184551 -816391888 -1736966828 -44814744 1071813060 205203517 -166489923 1189262478 1712824828 -783656239 585581498 1065724967 -1696351383
REM
CELL 1.54180   50.00000   50.00000   50.00000   90.00000   90.00000   90.00000
LATT -1
SFAC C  
C      1  0.4918880000000  0.5362980000000  0.5009760000000 1.0
C      1  0.4795210000000  0.5682750000000  0.4978580000000 1.0
C      1  0.4767450000000  0.4527210000000  0.5747030000000 1.0
C      1  0.4534040000000  0.5269170000000  0.4611880000000 1.0
C      1  0.4923670000000  0.4571680000000  0.4533970000000 1.0
C      1  0.4640740000000  0.5022800000000  0.5553850000000 1.0
C      1  0.4424360000000  0.5322070000000  0.4913560000000 1.0
C      1  0.5307480000000  0.5093810000000  0.4916170000000 1.0
C      1  0.4764530000000  0.4854280000000  0.5076800000000 1.0
C      1  0.4637550000000  0.5898920000000  0.4840470000000 1.0
C      1  0.5556430000000  0.5229990000000  0.4636480000000 1.0
C      1  0.5676810000000  0.4991140000000  0.5343540000000 1.0
C      1  0.5311860000000  0.5748520000000  0.4854600000000 1.0
C      1  0.5337710000000  0.4291330000000  0.5215920000000 1.0
C      1  0.4887170000000  0.5405820000000  0.4333150000000 1.0
C      1  0.5371450000000  0.4020620000000  0.5239520000000 1.0
C      1  0.4213540000000  0.5151710000000  0.5341080000000 1.0
C      1  0.4678650000000  0.5143240000000  0.4961590000000 1.0
C      1  0.5053950000000  0.5594940000000  0.4801030000000 1.0
C      1  0.4819490000000  0.4771550000000  0.5658150000000 1.0
C      1  0.4954690000000  0.4879520000000  0.4390130000000 1.0
C      1  0.5436040000000  0.5216800000000  0.4415130000000 1.0
C      1  0.5922770000000  0.4884350000000  0.5166440000000 1.0
C      1  0.5099400000000  0.5109680000000  0.4741660000000 1.0
C      1  0.5159210000000  0.4958830000000  0.5190880000000 1.0
C      1  0.5076710000000  0.5374150000000  0.4596360000000 1.0
C      1  0.4918420000000  0.4879530000000  0.4786620000000 1.0
C      1  0.5660840000000  0.4846650000000  0.4679690000000 1.0
C      1  0.4688110000000  0.4996780000000  0.4565600000000 1.0
C      1  0.4914850000000  0.4497640000000  0.3976790000000 1.0
C      1  0.5605590000000  0.5182250000000  0.5600330000000 1.0
C      1  0.4372930000000  0.4932680000000  0.5445300000000 1.0
C      1  0.5505870000000  0.5251320000000  0.5222250000000 1.0
C      1  0.5572480000000  0.5348920000000  0.4931270000000 1.0
C      1  0.4659560000000  0.4568230000000  0.4993400000000 1.0
C      1  0.4737950000000  0.5660410000000  0.5279110000000 1.0
C      1  0.4539940000000  0.5487410000000  0.5360100000000 1.0
C      1  0.4485830000000  0.4770160000000  0.4616460000000 1.0
C      1  0.4846150000000  0.4351570000000  0.5126550000000 1.0
C      1  0.4943480000000  0.4606800000000  0.4203570000000 1.0
C      1  0.5415120000000  0.5392870000000  0.5528280000000 1.0
C      1  0.5484730000000  0.4724010000000  0.4943460000000 1.0
C      1  0.4569530000000  0.4448010000000  0.5299190000000 1.0
C      1  0.5124410000000  0.4401810000000  0.5034900000000 1.0
C      1  0.5703830000000  0.4526820000000  0.4766330000000 1.0
C      1  0.5495820000000  0.4482260000000  0.5350560000000 1.0
C      1  0.5172190000000  0.4719050000000  0.4950090000000 1.0
C      1  0.5110540000000  0.5148250000000  0.4344490000000 1.0
C      1  0.5534960000000  0.5645950000000  0.4914050000000 1.0
C      1  0.4336020000000  0.5368860000000  0.5189230000000 1.0
C      1  0.5880640000000  0.4770180000000  0.4918260000000 1.0
C      1  0.4651990000000  0.4546740000000  0.4684880000000 1.0
C      1  0.4623330000000  0.5433680000000  0.4395130000000 1.0
C      1  0.4607360000000  0.5326790000000  0.5587510000000 1.0
C      1  0.4433990000000  0.4926930000000  0.4864450000000 1.0
C      1  0.5566500000000  0.4716790000000  0.5236720000000 1.0
C      1  0.5135880000000  0.4410600000000  0.4699760000000 1.0
C      1  0.5168550000000  0.5296370000000  0.5230750000000 1.0
C      1  0.4373970000000  0.4706280000000  0.5287970000000 1.0
C      1  0.4615990000000  0.4357540000000  0.5591260000000 1.0
C      1  0.4892350000000  0.4898630000000  0.5359640000000 1.0
C      1  0.5154180000000  0.5514070000000  0.5477490000000 1.0
C      1  0.4954350000000  0.5703180000000  0.5453130000000 1.0
C      1  0.4271980000000  0.4776130000000  0.5037680000000 1.0
END
