TITL C-2848496-4490-703 -0.000885941594076383 125000 -940.437430444367 0 0 173 (C1) n - 1
REM
REM in /home/bkarasulu/work/CARBON/AIRSS/Generating-Clusters/AIREBO/with-SteepDescent/Only-C1/SD-CG-opt/Try1-1.4A-POS3A/HFTN-CG
REM
REM
REM
REM
REM
REM ./C.cell (11c1c37f851c82e70ff6c80c92926a4b)
REM
REM compiler GCC version 9.2.1 20190827 (Red Hat 9.2.1-1)
REM options -cpp -mtune=generic -march=x86-64 -g -O0 -fpre-include=/usr/include/finclude/math-vector-fortran.h
REM seed -1311483198 618841327 2095375520 996904701 -1557770657 -1044788188 1357464211 -348125759 -1245840902 -1443871105 1005717595 -142565397 965309770 -169373055 863232549 -1854050004 -2147230338 -1868984763 1011818963 1324671628 1505905271 -1427149004 -1551436753 1435164510 -621641383 -543711319 1014110570 2097346363 656401909 1452015561 666262690 871058655 -182863858
REM
CELL 1.54180   50.00000   50.00000   50.00000   90.00000   90.00000   90.00000
LATT -1
SFAC C  
C      1  0.5408660000000  0.3878660000000  0.4768330000000 1.0
C      1  0.4448870000000  0.4497010000000  0.5465460000000 1.0
C      1  0.4246720000000  0.5146430000000  0.4133350000000 1.0
C      1  0.5552510000000  0.5639730000000  0.4185970000000 1.0
C      1  0.5363430000000  0.5527300000000  0.5633910000000 1.0
C      1  0.4343950000000  0.4817450000000  0.5421370000000 1.0
C      1  0.4763460000000  0.5551200000000  0.4079320000000 1.0
C      1  0.5693040000000  0.4979310000000  0.5333900000000 1.0
C      1  0.4396680000000  0.4257380000000  0.4886870000000 1.0
C      1  0.5514250000000  0.5726400000000  0.5513280000000 1.0
C      1  0.4390290000000  0.5957730000000  0.4929960000000 1.0
C      1  0.4426400000000  0.4753630000000  0.4633020000000 1.0
C      1  0.4939800000000  0.4720800000000  0.5547950000000 1.0
C      1  0.5629150000000  0.4276260000000  0.5391700000000 1.0
C      1  0.4765910000000  0.5527510000000  0.5879770000000 1.0
C      1  0.4644180000000  0.4824630000000  0.5581210000000 1.0
C      1  0.4886950000000  0.5818790000000  0.4248970000000 1.0
C      1  0.4339430000000  0.5625840000000  0.4441730000000 1.0
C      1  0.4350840000000  0.5464500000000  0.5017160000000 1.0
C      1  0.4374510000000  0.5328890000000  0.4363620000000 1.0
C      1  0.4868970000000  0.4484710000000  0.5996720000000 1.0
C      1  0.3979890000000  0.5222120000000  0.5432140000000 1.0
C      1  0.4273860000000  0.5245640000000  0.5270210000000 1.0
C      1  0.4216270000000  0.5065550000000  0.5846390000000 1.0
C      1  0.6139880000000  0.4526070000000  0.5009230000000 1.0
C      1  0.4411000000000  0.4497300000000  0.5127410000000 1.0
C      1  0.5067920000000  0.3972110000000  0.4344360000000 1.0
C      1  0.6133940000000  0.4709150000000  0.4748440000000 1.0
C      1  0.4688890000000  0.5897980000000  0.4778190000000 1.0
C      1  0.4960240000000  0.4476260000000  0.4337220000000 1.0
C      1  0.4287370000000  0.5748190000000  0.5142640000000 1.0
C      1  0.5497840000000  0.4784020000000  0.4741700000000 1.0
C      1  0.5189870000000  0.4862140000000  0.4620600000000 1.0
C      1  0.4365120000000  0.5354390000000  0.5893800000000 1.0
C      1  0.5377560000000  0.4629950000000  0.4074310000000 1.0
C      1  0.5292190000000  0.5036570000000  0.5518690000000 1.0
C      1  0.4713810000000  0.4339130000000  0.4828420000000 1.0
C      1  0.4003790000000  0.4540450000000  0.5480250000000 1.0
C      1  0.4639910000000  0.5405910000000  0.4907470000000 1.0
C      1  0.4999460000000  0.5167160000000  0.4040470000000 1.0
C      1  0.5708000000000  0.4736380000000  0.4325970000000 1.0
C      1  0.5514200000000  0.5726720000000  0.5115910000000 1.0
C      1  0.5143060000000  0.6147110000000  0.4911200000000 1.0
C      1  0.4740040000000  0.3821460000000  0.5472080000000 1.0
C      1  0.4032430000000  0.4730340000000  0.4695520000000 1.0
C      1  0.4702410000000  0.5803180000000  0.5705920000000 1.0
C      1  0.4609530000000  0.4317780000000  0.4442880000000 1.0
C      1  0.5689310000000  0.5518120000000  0.4676490000000 1.0
C      1  0.5442370000000  0.4304800000000  0.4913880000000 1.0
C      1  0.5087040000000  0.6020170000000  0.5224280000000 1.0
C      1  0.4143270000000  0.5470790000000  0.4793360000000 1.0
C      1  0.5806560000000  0.5223530000000  0.4434590000000 1.0
C      1  0.5253000000000  0.4417260000000  0.4237950000000 1.0
C      1  0.5991630000000  0.5406950000000  0.4589970000000 1.0
C      1  0.5494260000000  0.4489120000000  0.5171950000000 1.0
C      1  0.4668310000000  0.5431220000000  0.5574340000000 1.0
C      1  0.4558550000000  0.3972690000000  0.4862430000000 1.0
C      1  0.4447940000000  0.5942160000000  0.4542260000000 1.0
C      1  0.5357850000000  0.5084060000000  0.4819000000000 1.0
C      1  0.6103360000000  0.5329350000000  0.4850270000000 1.0
C      1  0.5383680000000  0.4248560000000  0.4472980000000 1.0
C      1  0.5417420000000  0.4954440000000  0.5135190000000 1.0
C      1  0.5339420000000  0.5160200000000  0.4056620000000 1.0
C      1  0.4354640000000  0.5084190000000  0.4593480000000 1.0
C      1  0.4407140000000  0.4925290000000  0.4091700000000 1.0
C      1  0.4700420000000  0.5005210000000  0.4012520000000 1.0
C      1  0.5098620000000  0.4721270000000  0.4981300000000 1.0
C      1  0.4869750000000  0.5128320000000  0.4352420000000 1.0
C      1  0.4092720000000  0.5209090000000  0.4709970000000 1.0
C      1  0.5789200000000  0.4230440000000  0.5095060000000 1.0
C      1  0.4393240000000  0.4416260000000  0.4605140000000 1.0
C      1  0.5655690000000  0.4743810000000  0.5014850000000 1.0
C      1  0.5477030000000  0.4743640000000  0.5841270000000 1.0
C      1  0.4478340000000  0.6202410000000  0.5126760000000 1.0
C      1  0.5453430000000  0.5128700000000  0.5934810000000 1.0
C      1  0.4272970000000  0.4711760000000  0.4933610000000 1.0
C      1  0.6102850000000  0.4993230000000  0.4842720000000 1.0
C      1  0.4949880000000  0.4159340000000  0.4214110000000 1.0
C      1  0.5116830000000  0.5160670000000  0.5701800000000 1.0
C      1  0.4199070000000  0.4940750000000  0.5139490000000 1.0
C      1  0.3999020000000  0.4989770000000  0.4867330000000 1.0
C      1  0.5508650000000  0.5238670000000  0.5398480000000 1.0
C      1  0.5096710000000  0.4620800000000  0.5831630000000 1.0
C      1  0.4845460000000  0.5912820000000  0.5417210000000 1.0
C      1  0.4832330000000  0.5168170000000  0.4653930000000 1.0
C      1  0.5414830000000  0.4648660000000  0.5454000000000 1.0
C      1  0.5084720000000  0.4204750000000  0.5608700000000 1.0
C      1  0.5310540000000  0.5890710000000  0.4918900000000 1.0
C      1  0.4851740000000  0.4739390000000  0.4057940000000 1.0
C      1  0.4417440000000  0.4412570000000  0.5785650000000 1.0
C      1  0.4463060000000  0.4831060000000  0.5868910000000 1.0
C      1  0.5137220000000  0.5625090000000  0.4838450000000 1.0
C      1  0.5147780000000  0.4975420000000  0.4353600000000 1.0
C      1  0.5086250000000  0.5564970000000  0.4140020000000 1.0
C      1  0.5121020000000  0.4778300000000  0.4129710000000 1.0
C      1  0.5928390000000  0.4497330000000  0.5253460000000 1.0
C      1  0.5065390000000  0.4442370000000  0.5434990000000 1.0
C      1  0.4866850000000  0.5428890000000  0.5104210000000 1.0
C      1  0.4721840000000  0.4632220000000  0.5097540000000 1.0
C      1  0.5575550000000  0.4048250000000  0.4906530000000 1.0
C      1  0.4800130000000  0.3957900000000  0.4932310000000 1.0
C      1  0.4848890000000  0.4925390000000  0.5216480000000 1.0
C      1  0.5566580000000  0.4338720000000  0.5657680000000 1.0
C      1  0.4397800000000  0.4694930000000  0.4299160000000 1.0
C      1  0.5982070000000  0.5072190000000  0.5344020000000 1.0
C      1  0.4611000000000  0.5128580000000  0.5838600000000 1.0
C      1  0.3954570000000  0.5167810000000  0.5677000000000 1.0
C      1  0.5258030000000  0.5745580000000  0.4550700000000 1.0
C      1  0.4568790000000  0.5111680000000  0.5166650000000 1.0
C      1  0.4122100000000  0.4500550000000  0.5774680000000 1.0
C      1  0.5157980000000  0.4441720000000  0.5155270000000 1.0
C      1  0.5053930000000  0.4180340000000  0.4964240000000 1.0
C      1  0.4570260000000  0.5083250000000  0.4829580000000 1.0
C      1  0.5278170000000  0.5269750000000  0.4372670000000 1.0
C      1  0.4924000000000  0.5833410000000  0.5002180000000 1.0
C      1  0.5511290000000  0.5246400000000  0.4573530000000 1.0
C      1  0.4114290000000  0.4382490000000  0.5283310000000 1.0
C      1  0.4722560000000  0.4648930000000  0.4762450000000 1.0
C      1  0.4660670000000  0.4515020000000  0.4192860000000 1.0
C      1  0.4195010000000  0.5781110000000  0.4707530000000 1.0
C      1  0.5779630000000  0.5675420000000  0.5322210000000 1.0
C      1  0.6153510000000  0.5327070000000  0.5269100000000 1.0
C      1  0.4351400000000  0.4186040000000  0.5368400000000 1.0
C      1  0.4416210000000  0.5610980000000  0.5714840000000 1.0
C      1  0.5830700000000  0.4489400000000  0.4872510000000 1.0
C      1  0.4814880000000  0.4096500000000  0.5654130000000 1.0
C      1  0.4948410000000  0.6087390000000  0.4695340000000 1.0
C      1  0.5075830000000  0.5492520000000  0.4467140000000 1.0
C      1  0.4788600000000  0.4297450000000  0.5142080000000 1.0
C      1  0.5782370000000  0.5709100000000  0.4923790000000 1.0
C      1  0.5156170000000  0.5314560000000  0.4966880000000 1.0
C      1  0.5293060000000  0.4359380000000  0.5752860000000 1.0
C      1  0.5675690000000  0.4398720000000  0.4350150000000 1.0
C      1  0.4979150000000  0.4625430000000  0.4610170000000 1.0
C      1  0.4975030000000  0.5031230000000  0.4915600000000 1.0
C      1  0.5349240000000  0.5923010000000  0.5349930000000 1.0
C      1  0.4659820000000  0.4132970000000  0.5358210000000 1.0
C      1  0.6002790000000  0.5537970000000  0.5102440000000 1.0
C      1  0.5753150000000  0.4671880000000  0.5428630000000 1.0
C      1  0.4689980000000  0.4258660000000  0.5865480000000 1.0
C      1  0.4811220000000  0.5300130000000  0.6053450000000 1.0
C      1  0.5809730000000  0.5040350000000  0.4951650000000 1.0
C      1  0.4927380000000  0.5018720000000  0.5897600000000 1.0
C      1  0.5544580000000  0.4909890000000  0.4079370000000 1.0
C      1  0.5816550000000  0.5028520000000  0.4241000000000 1.0
C      1  0.5441340000000  0.5393790000000  0.5134270000000 1.0
C      1  0.6218860000000  0.5050030000000  0.5132250000000 1.0
C      1  0.5683410000000  0.4597950000000  0.5743500000000 1.0
C      1  0.4092510000000  0.4648530000000  0.4441980000000 1.0
C      1  0.4834760000000  0.4174230000000  0.4596680000000 1.0
C      1  0.4608490000000  0.5135260000000  0.5492880000000 1.0
C      1  0.5227990000000  0.4492010000000  0.4765930000000 1.0
C      1  0.5673430000000  0.5298210000000  0.4935430000000 1.0
C      1  0.4658380000000  0.5699620000000  0.4433930000000 1.0
C      1  0.4454130000000  0.5844990000000  0.5395580000000 1.0
C      1  0.4645290000000  0.5295480000000  0.4180880000000 1.0
C      1  0.4578940000000  0.6103800000000  0.5367820000000 1.0
C      1  0.5224450000000  0.4897570000000  0.5982640000000 1.0
C      1  0.5063460000000  0.5966830000000  0.4461350000000 1.0
C      1  0.5893750000000  0.4565540000000  0.4553860000000 1.0
C      1  0.4849880000000  0.5597410000000  0.5377400000000 1.0
C      1  0.4575090000000  0.4590880000000  0.6027350000000 1.0
C      1  0.4125410000000  0.4808570000000  0.5656480000000 1.0
C      1  0.5363580000000  0.5492230000000  0.4051960000000 1.0
C      1  0.5537860000000  0.5692760000000  0.4455850000000 1.0
C      1  0.5157860000000  0.4812770000000  0.5303460000000 1.0
C      1  0.5508760000000  0.5294100000000  0.5734020000000 1.0
C      1  0.4790610000000  0.5488920000000  0.4612090000000 1.0
C      1  0.4316350000000  0.5546610000000  0.5415020000000 1.0
C      1  0.4965900000000  0.5220530000000  0.5338470000000 1.0
C      1  0.5154580000000  0.4075110000000  0.4656650000000 1.0
C      1  0.5067450000000  0.5443630000000  0.5575400000000 1.0
C      1  0.5497240000000  0.4528290000000  0.4590260000000 1.0
END
