TITL C-2847953-8112-416 0.00202970890891849 125000 -600.13379561005 0 0 114 (C1) n - 1
REM
REM in /home/bkarasulu/work/CARBON/AIRSS/Generating-Clusters/AIREBO/with-SteepDescent/Only-C1/SD-CG-opt/Try1-1.4A-POS3A/HFTN-CG
REM
REM
REM
REM
REM
REM ./C.cell (11c1c37f851c82e70ff6c80c92926a4b)
REM
REM compiler GCC version 9.2.1 20190827 (Red Hat 9.2.1-1)
REM options -cpp -mtune=generic -march=x86-64 -g -O0 -fpre-include=/usr/include/finclude/math-vector-fortran.h
REM seed -1563699477 424046609 1269777048 1451099270 1270565329 -143029048 -789190027 -1065136347 1090793408 -553562745 220539549 818077286 -2000077259 706728609 259512541 782857733 -214343319 -1619427653 -1107214414 79116137 -1421799686 687538311 2025550945 -1806119176 -738666003 1498347263 1240031003 -584166918 503279553 -1036694472 233890475 558144228 1819485777
REM
CELL 1.54180   50.00000   50.00000   50.00000   90.00000   90.00000   90.00000
LATT -1
SFAC C  
C      1  0.5846250000000  0.5429940000000  0.4967500000000 1.0
C      1  0.4870190000000  0.5325050000000  0.4871110000000 1.0
C      1  0.4500110000000  0.5862690000000  0.4676580000000 1.0
C      1  0.4209980000000  0.5539960000000  0.4836750000000 1.0
C      1  0.5681630000000  0.4247380000000  0.4699460000000 1.0
C      1  0.4476690000000  0.5368670000000  0.4906290000000 1.0
C      1  0.5148920000000  0.5762960000000  0.5524430000000 1.0
C      1  0.5446210000000  0.5584470000000  0.4377300000000 1.0
C      1  0.5285600000000  0.5096640000000  0.5115220000000 1.0
C      1  0.4354280000000  0.4830580000000  0.5613250000000 1.0
C      1  0.5504070000000  0.4706750000000  0.4500770000000 1.0
C      1  0.5069790000000  0.5670190000000  0.4274730000000 1.0
C      1  0.5315520000000  0.5071130000000  0.4265950000000 1.0
C      1  0.4714430000000  0.5000020000000  0.5105030000000 1.0
C      1  0.4813930000000  0.5031950000000  0.5871510000000 1.0
C      1  0.4654180000000  0.5189470000000  0.5380980000000 1.0
C      1  0.5072790000000  0.5931290000000  0.4766880000000 1.0
C      1  0.5265340000000  0.4516860000000  0.4658090000000 1.0
C      1  0.4573950000000  0.4605440000000  0.5726450000000 1.0
C      1  0.4991370000000  0.4885630000000  0.4408230000000 1.0
C      1  0.5480230000000  0.4571070000000  0.5581380000000 1.0
C      1  0.5874680000000  0.4864170000000  0.5282650000000 1.0
C      1  0.5409190000000  0.4992360000000  0.4814620000000 1.0
C      1  0.5567810000000  0.5286740000000  0.5107910000000 1.0
C      1  0.5456080000000  0.4809720000000  0.4147520000000 1.0
C      1  0.4760210000000  0.4491120000000  0.4308270000000 1.0
C      1  0.4951880000000  0.4369660000000  0.5369650000000 1.0
C      1  0.5564990000000  0.5612530000000  0.5010690000000 1.0
C      1  0.5270490000000  0.5325130000000  0.5687600000000 1.0
C      1  0.5302210000000  0.4636790000000  0.5775500000000 1.0
C      1  0.4731410000000  0.4139080000000  0.4648800000000 1.0
C      1  0.5783200000000  0.5380050000000  0.5353920000000 1.0
C      1  0.4490840000000  0.4226770000000  0.5311790000000 1.0
C      1  0.5005520000000  0.5193660000000  0.4264630000000 1.0
C      1  0.4362590000000  0.5021600000000  0.5331940000000 1.0
C      1  0.4660540000000  0.5520800000000  0.5611860000000 1.0
C      1  0.5004510000000  0.5027910000000  0.4936470000000 1.0
C      1  0.4756560000000  0.4171520000000  0.5256750000000 1.0
C      1  0.5254690000000  0.4762360000000  0.5169990000000 1.0
C      1  0.4059250000000  0.4702600000000  0.4857090000000 1.0
C      1  0.4989790000000  0.5516870000000  0.5698240000000 1.0
C      1  0.4813690000000  0.4069430000000  0.4971300000000 1.0
C      1  0.4509110000000  0.5245630000000  0.5683520000000 1.0
C      1  0.5693790000000  0.5606100000000  0.5501380000000 1.0
C      1  0.5819190000000  0.4654470000000  0.4953940000000 1.0
C      1  0.3788270000000  0.4922120000000  0.4464380000000 1.0
C      1  0.5156680000000  0.5959810000000  0.5035500000000 1.0
C      1  0.5225840000000  0.5725450000000  0.4563560000000 1.0
C      1  0.3990070000000  0.4938310000000  0.4647360000000 1.0
C      1  0.4985640000000  0.4967480000000  0.5396490000000 1.0
C      1  0.5104820000000  0.5552430000000  0.5095360000000 1.0
C      1  0.5136660000000  0.4818610000000  0.4708610000000 1.0
C      1  0.4688470000000  0.5589520000000  0.4758030000000 1.0
C      1  0.5250180000000  0.4315960000000  0.5269220000000 1.0
C      1  0.4437640000000  0.4155840000000  0.4622220000000 1.0
C      1  0.4865980000000  0.5474140000000  0.3880120000000 1.0
C      1  0.5025110000000  0.3902780000000  0.4798840000000 1.0
C      1  0.4371920000000  0.5518710000000  0.5431240000000 1.0
C      1  0.4733650000000  0.4540560000000  0.4627130000000 1.0
C      1  0.5441880000000  0.5736890000000  0.5471040000000 1.0
C      1  0.4578220000000  0.5178500000000  0.4643170000000 1.0
C      1  0.4788180000000  0.4406480000000  0.4933550000000 1.0
C      1  0.5107630000000  0.4950740000000  0.5923580000000 1.0
C      1  0.5001530000000  0.5875360000000  0.5303320000000 1.0
C      1  0.5021730000000  0.5272130000000  0.5248760000000 1.0
C      1  0.4897530000000  0.5199370000000  0.5618350000000 1.0
C      1  0.5760610000000  0.5629670000000  0.4733770000000 1.0
C      1  0.5461490000000  0.4488050000000  0.4243920000000 1.0
C      1  0.5616340000000  0.4881620000000  0.5060990000000 1.0
C      1  0.5664750000000  0.4427310000000  0.4919450000000 1.0
C      1  0.4829090000000  0.4519070000000  0.5649410000000 1.0
C      1  0.4460130000000  0.4362320000000  0.4855850000000 1.0
C      1  0.4574560000000  0.4894460000000  0.5862890000000 1.0
C      1  0.4913580000000  0.4665620000000  0.4203580000000 1.0
C      1  0.4597910000000  0.5468780000000  0.5207450000000 1.0
C      1  0.5020120000000  0.4757530000000  0.5667130000000 1.0
C      1  0.5338770000000  0.4486950000000  0.4988900000000 1.0
C      1  0.5962860000000  0.5169120000000  0.5242140000000 1.0
C      1  0.5110970000000  0.5534580000000  0.4780940000000 1.0
C      1  0.4516060000000  0.4856960000000  0.4868790000000 1.0
C      1  0.5507750000000  0.4816700000000  0.5376930000000 1.0
C      1  0.4970930000000  0.5460720000000  0.4132430000000 1.0
C      1  0.5686170000000  0.5027840000000  0.4652520000000 1.0
C      1  0.5352070000000  0.5734610000000  0.5172560000000 1.0
C      1  0.5445030000000  0.4322340000000  0.5458710000000 1.0
C      1  0.4977990000000  0.5604580000000  0.5981860000000 1.0
C      1  0.5109710000000  0.4027960000000  0.4592660000000 1.0
C      1  0.5485980000000  0.4308930000000  0.4504070000000 1.0
C      1  0.4100790000000  0.4623040000000  0.5139740000000 1.0
C      1  0.5283400000000  0.5225650000000  0.5429910000000 1.0
C      1  0.5338170000000  0.5100200000000  0.5846110000000 1.0
C      1  0.4813340000000  0.5660360000000  0.5207080000000 1.0
C      1  0.4546500000000  0.4742360000000  0.5250180000000 1.0
C      1  0.4337460000000  0.4636570000000  0.4799620000000 1.0
C      1  0.5533670000000  0.4950740000000  0.5688740000000 1.0
C      1  0.5771050000000  0.5255370000000  0.4442540000000 1.0
C      1  0.4113760000000  0.4792990000000  0.5371110000000 1.0
C      1  0.4805170000000  0.5901590000000  0.4725940000000 1.0
C      1  0.5243420000000  0.5177390000000  0.4582150000000 1.0
C      1  0.4195800000000  0.5296430000000  0.5442790000000 1.0
C      1  0.5003450000000  0.4337740000000  0.4585650000000 1.0
C      1  0.4283360000000  0.5100020000000  0.4584300000000 1.0
C      1  0.4908550000000  0.5238480000000  0.4569180000000 1.0
C      1  0.4065310000000  0.5097010000000  0.4919470000000 1.0
C      1  0.4380860000000  0.4481300000000  0.5164250000000 1.0
C      1  0.4745340000000  0.4881630000000  0.4635280000000 1.0
C      1  0.5010680000000  0.4571370000000  0.5029900000000 1.0
C      1  0.5687260000000  0.4943430000000  0.4338550000000 1.0
C      1  0.6004960000000  0.4936800000000  0.4991340000000 1.0
C      1  0.5358500000000  0.5395340000000  0.4202460000000 1.0
C      1  0.5691860000000  0.5518750000000  0.4490030000000 1.0
C      1  0.4873620000000  0.4692400000000  0.5296520000000 1.0
C      1  0.4238030000000  0.4049400000000  0.4477680000000 1.0
C      1  0.4337490000000  0.5091500000000  0.5008800000000 1.0
END
