TITL C-2847952-8118-428 0.000140279184781023 125000 -178.734425263771 0 0 33 (C1) n - 1
REM
REM in /home/bkarasulu/work/CARBON/AIRSS/Generating-Clusters/AIREBO/with-SteepDescent/Only-C1/SD-CG-opt/Try1-1.4A-POS3A/HFTN-CG
REM
REM
REM
REM
REM
REM ./C.cell (11c1c37f851c82e70ff6c80c92926a4b)
REM
REM compiler GCC version 9.2.1 20190827 (Red Hat 9.2.1-1)
REM options -cpp -mtune=generic -march=x86-64 -g -O0 -fpre-include=/usr/include/finclude/math-vector-fortran.h
REM seed -320134052 -1102535631 616106379 1481063209 -1301512650 1909393132 1938776581 2146776341 -267566014 -454654026 -1436378275 1191602195 -1586085893 913325836 1985154727 -588722714 -1803640187 1913242322 136144630 -58266839 -595716658 1562472109 53989211 1405869384 -713102619 628070522 -99413810 -2074555871 -2079140659 -220459851 -572484350 246799442 788681902
REM
CELL 1.54180   50.00000   50.00000   50.00000   90.00000   90.00000   90.00000
LATT -1
SFAC C  
C      1  0.5004380000000  0.4811210000000  0.5438590000000 1.0
C      1  0.5166300000000  0.5514630000000  0.5421970000000 1.0
C      1  0.4757760000000  0.4547020000000  0.4798600000000 1.0
C      1  0.4690190000000  0.4640580000000  0.5043730000000 1.0
C      1  0.5720430000000  0.4408110000000  0.4888730000000 1.0
C      1  0.5476210000000  0.5034870000000  0.4471220000000 1.0
C      1  0.4663220000000  0.5767780000000  0.4548590000000 1.0
C      1  0.5057290000000  0.4970350000000  0.5671090000000 1.0
C      1  0.5122330000000  0.5294930000000  0.4857560000000 1.0
C      1  0.5076140000000  0.5244600000000  0.5608480000000 1.0
C      1  0.4731210000000  0.4704570000000  0.5370150000000 1.0
C      1  0.4972890000000  0.5294880000000  0.5315060000000 1.0
C      1  0.4632680000000  0.5213490000000  0.5012430000000 1.0
C      1  0.5303770000000  0.5624570000000  0.5201280000000 1.0
C      1  0.5089950000000  0.5135140000000  0.5114390000000 1.0
C      1  0.5153720000000  0.4881590000000  0.5204070000000 1.0
C      1  0.4860750000000  0.4731370000000  0.4624990000000 1.0
C      1  0.5095170000000  0.4918210000000  0.4481120000000 1.0
C      1  0.5358110000000  0.4834060000000  0.4284020000000 1.0
C      1  0.4361230000000  0.5179350000000  0.5179550000000 1.0
C      1  0.4743280000000  0.4278750000000  0.4733710000000 1.0
C      1  0.4803100000000  0.5043480000000  0.4585290000000 1.0
C      1  0.5276050000000  0.5157610000000  0.4643170000000 1.0
C      1  0.5239220000000  0.5768740000000  0.4735240000000 1.0
C      1  0.5070390000000  0.4869470000000  0.5919830000000 1.0
C      1  0.4810230000000  0.5277110000000  0.4780380000000 1.0
C      1  0.5535880000000  0.4555720000000  0.5002030000000 1.0
C      1  0.4610350000000  0.4533910000000  0.5551840000000 1.0
C      1  0.4753560000000  0.4022120000000  0.4681470000000 1.0
C      1  0.4726990000000  0.5539110000000  0.4642290000000 1.0
C      1  0.5339010000000  0.4710130000000  0.5093260000000 1.0
C      1  0.5228080000000  0.5576200000000  0.4930280000000 1.0
C      1  0.4570140000000  0.4916360000000  0.5165570000000 1.0
END
