TITL C-2848503-6230-157 0.00303742548813682 125000 -870.882411315991 0 0 164 (C1) n - 1
REM
REM in /home/bkarasulu/work/CARBON/AIRSS/Generating-Clusters/AIREBO/with-SteepDescent/Only-C1/SD-CG-opt/Try1-1.4A-POS3A/HFTN-CG
REM
REM
REM
REM
REM
REM ./C.cell (11c1c37f851c82e70ff6c80c92926a4b)
REM
REM compiler GCC version 9.2.1 20190827 (Red Hat 9.2.1-1)
REM options -cpp -mtune=generic -march=x86-64 -g -O0 -fpre-include=/usr/include/finclude/math-vector-fortran.h
REM seed -366243761 -1932503468 1867988392 -414478414 -234749891 2124552400 755011828 1707714028 859181653 -592220701 58369138 -1279623992 1463264900 -813150556 2121988434 -653945377 1348123058 25419072 183228904 633334940 -705280976 -824851879 -377024925 -329084438 -500057803 -474812325 -224481965 1164736518 -774884237 649715773 -1984977574 1583512015 -603333209
REM
CELL 1.54180   50.00000   50.00000   50.00000   90.00000   90.00000   90.00000
LATT -1
SFAC C  
C      1  0.4426930000000  0.4383680000000  0.5329570000000 1.0
C      1  0.5650970000000  0.5432160000000  0.4523100000000 1.0
C      1  0.6017050000000  0.5482940000000  0.4649680000000 1.0
C      1  0.5061010000000  0.4887350000000  0.4008360000000 1.0
C      1  0.4702770000000  0.4599200000000  0.4190510000000 1.0
C      1  0.4201110000000  0.4416870000000  0.5548630000000 1.0
C      1  0.4245740000000  0.5048510000000  0.5773120000000 1.0
C      1  0.5440020000000  0.5399420000000  0.5911720000000 1.0
C      1  0.4455550000000  0.4625050000000  0.4892850000000 1.0
C      1  0.5085740000000  0.5886540000000  0.4400460000000 1.0
C      1  0.5400610000000  0.4559260000000  0.4638510000000 1.0
C      1  0.5626870000000  0.4350260000000  0.4750260000000 1.0
C      1  0.4569930000000  0.5805050000000  0.4509390000000 1.0
C      1  0.5263590000000  0.5585930000000  0.5712560000000 1.0
C      1  0.4697530000000  0.4088490000000  0.4405050000000 1.0
C      1  0.4710160000000  0.5494380000000  0.4496770000000 1.0
C      1  0.4407070000000  0.5358900000000  0.4161690000000 1.0
C      1  0.4902240000000  0.4320640000000  0.5687580000000 1.0
C      1  0.4205090000000  0.4712750000000  0.5381020000000 1.0
C      1  0.5169730000000  0.5168440000000  0.3997910000000 1.0
C      1  0.4937680000000  0.4578070000000  0.4644060000000 1.0
C      1  0.4116250000000  0.5008640000000  0.5524020000000 1.0
C      1  0.4265420000000  0.4222060000000  0.4753090000000 1.0
C      1  0.4354200000000  0.4890640000000  0.4394790000000 1.0
C      1  0.4487010000000  0.4315480000000  0.4546130000000 1.0
C      1  0.4096250000000  0.5055080000000  0.4548140000000 1.0
C      1  0.5298220000000  0.4475550000000  0.4392780000000 1.0
C      1  0.4493390000000  0.4386720000000  0.5719830000000 1.0
C      1  0.5382610000000  0.5763570000000  0.5340880000000 1.0
C      1  0.5467370000000  0.4385380000000  0.5777760000000 1.0
C      1  0.5007710000000  0.4123100000000  0.4823570000000 1.0
C      1  0.4842470000000  0.5597000000000  0.5193980000000 1.0
C      1  0.4858540000000  0.4565070000000  0.5223450000000 1.0
C      1  0.4560960000000  0.5000260000000  0.5502450000000 1.0
C      1  0.5746000000000  0.5060240000000  0.4418660000000 1.0
C      1  0.4743390000000  0.5182890000000  0.5723810000000 1.0
C      1  0.4976990000000  0.5360890000000  0.4659810000000 1.0
C      1  0.5891340000000  0.5502160000000  0.5142010000000 1.0
C      1  0.5517230000000  0.4689580000000  0.5932650000000 1.0
C      1  0.4475200000000  0.4702840000000  0.5595670000000 1.0
C      1  0.5033050000000  0.3878390000000  0.5354560000000 1.0
C      1  0.4445150000000  0.5298830000000  0.4507210000000 1.0
C      1  0.4573020000000  0.4044970000000  0.5045930000000 1.0
C      1  0.4234960000000  0.4694530000000  0.4645640000000 1.0
C      1  0.5930450000000  0.5341070000000  0.4366080000000 1.0
C      1  0.5067150000000  0.5011090000000  0.5486650000000 1.0
C      1  0.6069550000000  0.5022160000000  0.4956850000000 1.0
C      1  0.4518040000000  0.5502160000000  0.5643640000000 1.0
C      1  0.4864660000000  0.6080500000000  0.5088350000000 1.0
C      1  0.4031380000000  0.4538860000000  0.5145990000000 1.0
C      1  0.5253760000000  0.4146800000000  0.4318780000000 1.0
C      1  0.3972170000000  0.4806620000000  0.4744300000000 1.0
C      1  0.5276040000000  0.5426990000000  0.3996160000000 1.0
C      1  0.5020640000000  0.4857780000000  0.4941740000000 1.0
C      1  0.5379930000000  0.5454440000000  0.5254110000000 1.0
C      1  0.4233840000000  0.5505630000000  0.5301720000000 1.0
C      1  0.5562900000000  0.5175130000000  0.5756200000000 1.0
C      1  0.4692100000000  0.5829520000000  0.5391510000000 1.0
C      1  0.4179240000000  0.4432730000000  0.4940820000000 1.0
C      1  0.5523380000000  0.4159140000000  0.4527280000000 1.0
C      1  0.5652480000000  0.5725330000000  0.5147530000000 1.0
C      1  0.5761040000000  0.5511390000000  0.4146000000000 1.0
C      1  0.4350140000000  0.5136510000000  0.4934090000000 1.0
C      1  0.4290570000000  0.5741400000000  0.4628590000000 1.0
C      1  0.5533550000000  0.4725630000000  0.5496070000000 1.0
C      1  0.5120090000000  0.5954480000000  0.5240310000000 1.0
C      1  0.4665390000000  0.4715570000000  0.5946810000000 1.0
C      1  0.4904530000000  0.4473020000000  0.4332940000000 1.0
C      1  0.5131640000000  0.5270640000000  0.5697000000000 1.0
C      1  0.5434810000000  0.4849790000000  0.5129850000000 1.0
C      1  0.5146290000000  0.5367330000000  0.6022670000000 1.0
C      1  0.5011610000000  0.4279090000000  0.5120750000000 1.0
C      1  0.4675320000000  0.4817380000000  0.5166090000000 1.0
C      1  0.5454060000000  0.5116700000000  0.4734970000000 1.0
C      1  0.4292790000000  0.5865090000000  0.4922710000000 1.0
C      1  0.4879430000000  0.6139570000000  0.4806230000000 1.0
C      1  0.5717560000000  0.4455320000000  0.5589400000000 1.0
C      1  0.4020120000000  0.5101330000000  0.4876760000000 1.0
C      1  0.4376890000000  0.4855260000000  0.5124170000000 1.0
C      1  0.5697740000000  0.4880940000000  0.5825240000000 1.0
C      1  0.5571140000000  0.5291550000000  0.5436780000000 1.0
C      1  0.5213080000000  0.4729800000000  0.4212020000000 1.0
C      1  0.5130010000000  0.5830610000000  0.5558360000000 1.0
C      1  0.5100780000000  0.5619370000000  0.4193330000000 1.0
C      1  0.5898620000000  0.4735580000000  0.5654990000000 1.0
C      1  0.4759280000000  0.4308780000000  0.4749820000000 1.0
C      1  0.5744620000000  0.5649910000000  0.4766890000000 1.0
C      1  0.5435210000000  0.5202180000000  0.4410520000000 1.0
C      1  0.5680700000000  0.5106560000000  0.4919260000000 1.0
C      1  0.4862560000000  0.5875710000000  0.4644640000000 1.0
C      1  0.5413080000000  0.4026160000000  0.5126520000000 1.0
C      1  0.5652160000000  0.4429880000000  0.5256710000000 1.0
C      1  0.5537980000000  0.4700200000000  0.4167280000000 1.0
C      1  0.4789620000000  0.4585960000000  0.5539560000000 1.0
C      1  0.5643070000000  0.5075190000000  0.5254270000000 1.0
C      1  0.4807820000000  0.5730950000000  0.4278050000000 1.0
C      1  0.4784010000000  0.4846340000000  0.4047450000000 1.0
C      1  0.4214900000000  0.5517430000000  0.4384220000000 1.0
C      1  0.4360350000000  0.4806710000000  0.5898380000000 1.0
C      1  0.5490800000000  0.5534910000000  0.4171770000000 1.0
C      1  0.4518830000000  0.5008470000000  0.4668080000000 1.0
C      1  0.4561630000000  0.5460410000000  0.5329330000000 1.0
C      1  0.5219790000000  0.4240780000000  0.5594970000000 1.0
C      1  0.5822310000000  0.4724060000000  0.5316500000000 1.0
C      1  0.4835150000000  0.5843050000000  0.5641920000000 1.0
C      1  0.5923160000000  0.5321010000000  0.4901560000000 1.0
C      1  0.4977920000000  0.4585250000000  0.5977580000000 1.0
C      1  0.6005110000000  0.5047630000000  0.4623930000000 1.0
C      1  0.4866870000000  0.4865980000000  0.5720040000000 1.0
C      1  0.5841460000000  0.5405030000000  0.5609130000000 1.0
C      1  0.5305240000000  0.5413860000000  0.4721270000000 1.0
C      1  0.5096220000000  0.4828650000000  0.4506020000000 1.0
C      1  0.4619570000000  0.5873010000000  0.5009690000000 1.0
C      1  0.5320630000000  0.4426950000000  0.5181000000000 1.0
C      1  0.5216100000000  0.4609980000000  0.5822780000000 1.0
C      1  0.5620290000000  0.4211630000000  0.5035360000000 1.0
C      1  0.5974290000000  0.4752280000000  0.4772310000000 1.0
C      1  0.4961910000000  0.5189800000000  0.4953280000000 1.0
C      1  0.4359510000000  0.3990560000000  0.4891720000000 1.0
C      1  0.5795620000000  0.4587700000000  0.4590810000000 1.0
C      1  0.5300150000000  0.4860950000000  0.4747950000000 1.0
C      1  0.5204140000000  0.5810010000000  0.4954440000000 1.0
C      1  0.4190580000000  0.4866760000000  0.4124950000000 1.0
C      1  0.5252830000000  0.3905910000000  0.4919910000000 1.0
C      1  0.4627480000000  0.4380620000000  0.5055010000000 1.0
C      1  0.4792540000000  0.5067310000000  0.5293880000000 1.0
C      1  0.4109130000000  0.5519410000000  0.5004570000000 1.0
C      1  0.4713920000000  0.4376600000000  0.5965100000000 1.0
C      1  0.3893580000000  0.5180930000000  0.5144050000000 1.0
C      1  0.4889900000000  0.5063150000000  0.4520110000000 1.0
C      1  0.5123440000000  0.4534010000000  0.4925400000000 1.0
C      1  0.4859850000000  0.5397820000000  0.5960180000000 1.0
C      1  0.4937520000000  0.4196510000000  0.4322120000000 1.0
C      1  0.5527330000000  0.5882430000000  0.4873130000000 1.0
C      1  0.4889650000000  0.5217180000000  0.4153770000000 1.0
C      1  0.5244030000000  0.4035710000000  0.4628390000000 1.0
C      1  0.4661660000000  0.4212170000000  0.5479950000000 1.0
C      1  0.5745700000000  0.4791220000000  0.4995380000000 1.0
C      1  0.4465850000000  0.4573330000000  0.4344650000000 1.0
C      1  0.5127550000000  0.4771330000000  0.5253050000000 1.0
C      1  0.4598810000000  0.5557060000000  0.4883990000000 1.0
C      1  0.4931020000000  0.5627370000000  0.4866670000000 1.0
C      1  0.4650690000000  0.5272420000000  0.5062670000000 1.0
C      1  0.4909200000000  0.5375810000000  0.5498160000000 1.0
C      1  0.4736820000000  0.5617180000000  0.5788410000000 1.0
C      1  0.4724260000000  0.4795220000000  0.4772530000000 1.0
C      1  0.4385150000000  0.5806520000000  0.5246890000000 1.0
C      1  0.5960300000000  0.5333490000000  0.5357070000000 1.0
C      1  0.4801510000000  0.4066700000000  0.5263860000000 1.0
C      1  0.5303280000000  0.5868570000000  0.4634530000000 1.0
C      1  0.5135820000000  0.5332450000000  0.4360210000000 1.0
C      1  0.4612280000000  0.5293370000000  0.4006350000000 1.0
C      1  0.5270160000000  0.4022580000000  0.5380020000000 1.0
C      1  0.5389770000000  0.4968320000000  0.5585140000000 1.0
C      1  0.5392310000000  0.5619730000000  0.4464840000000 1.0
C      1  0.5973690000000  0.5023110000000  0.5258820000000 1.0
C      1  0.5083170000000  0.5367740000000  0.5213770000000 1.0
C      1  0.5257100000000  0.4561020000000  0.5486930000000 1.0
C      1  0.4059730000000  0.5231440000000  0.5359690000000 1.0
C      1  0.5503200000000  0.5492620000000  0.4947510000000 1.0
C      1  0.4317290000000  0.5442120000000  0.4787790000000 1.0
C      1  0.4417610000000  0.5262690000000  0.5780020000000 1.0
C      1  0.5709750000000  0.4753460000000  0.4369760000000 1.0
C      1  0.4653430000000  0.5015660000000  0.4292300000000 1.0
END
