TITL C-2847944-5688-436 -0.00023654510364636 125000 -444.731731078614 0 0 86 (C1) n - 1
REM
REM in /home/bkarasulu/work/CARBON/AIRSS/Generating-Clusters/AIREBO/with-SteepDescent/Only-C1/SD-CG-opt/Try1-1.4A-POS3A/HFTN-CG
REM
REM
REM
REM
REM
REM ./C.cell (11c1c37f851c82e70ff6c80c92926a4b)
REM
REM compiler GCC version 9.2.1 20190827 (Red Hat 9.2.1-1)
REM options -cpp -mtune=generic -march=x86-64 -g -O0 -fpre-include=/usr/include/finclude/math-vector-fortran.h
REM seed -886837326 -542094561 -965770185 -2090401415 -1977032530 -251878445 -966994118 -1291900420 560415254 -585296760 341458442 1963723091 1009208948 1500200971 1976254648 638585580 1797473987 -1958410031 -1688052832 1256963393 1288358671 426981486 -1487918856 -2018379509 -1575493117 886150462 786869065 -1001153051 -1942611362 -1499809787 938048616 -1578823137 -89369026
REM
CELL 1.54180   50.00000   50.00000   50.00000   90.00000   90.00000   90.00000
LATT -1
SFAC C  
C      1  0.5376950000000  0.4551860000000  0.5264410000000 1.0
C      1  0.5160950000000  0.4237680000000  0.4781070000000 1.0
C      1  0.5022280000000  0.4599600000000  0.4859730000000 1.0
C      1  0.4453150000000  0.5509730000000  0.5208830000000 1.0
C      1  0.4834330000000  0.4329550000000  0.4804190000000 1.0
C      1  0.5428990000000  0.4590400000000  0.5662300000000 1.0
C      1  0.5125610000000  0.5482460000000  0.5543850000000 1.0
C      1  0.5774500000000  0.4594430000000  0.5274450000000 1.0
C      1  0.4887330000000  0.4764170000000  0.5176980000000 1.0
C      1  0.4612760000000  0.5789070000000  0.5265640000000 1.0
C      1  0.5628190000000  0.5358530000000  0.5282390000000 1.0
C      1  0.5771880000000  0.5151330000000  0.4861100000000 1.0
C      1  0.5346210000000  0.5380870000000  0.5109820000000 1.0
C      1  0.4985410000000  0.5233960000000  0.4471020000000 1.0
C      1  0.5346950000000  0.5718670000000  0.4643170000000 1.0
C      1  0.5408170000000  0.4857100000000  0.4571440000000 1.0
C      1  0.5587610000000  0.5098690000000  0.5449820000000 1.0
C      1  0.5656010000000  0.5089310000000  0.4589460000000 1.0
C      1  0.5634400000000  0.4342440000000  0.5338630000000 1.0
C      1  0.4206980000000  0.4892980000000  0.5384020000000 1.0
C      1  0.5294460000000  0.4986240000000  0.5143140000000 1.0
C      1  0.5018550000000  0.4989970000000  0.4958830000000 1.0
C      1  0.5442510000000  0.4382720000000  0.4368120000000 1.0
C      1  0.4769600000000  0.4737320000000  0.4555230000000 1.0
C      1  0.5043590000000  0.4173900000000  0.5106700000000 1.0
C      1  0.4506280000000  0.4780470000000  0.5391810000000 1.0
C      1  0.4709810000000  0.5144810000000  0.5666670000000 1.0
C      1  0.4802430000000  0.5575370000000  0.4373680000000 1.0
C      1  0.4944320000000  0.4634260000000  0.5595820000000 1.0
C      1  0.4310710000000  0.5383460000000  0.5462680000000 1.0
C      1  0.5228420000000  0.5779670000000  0.5414600000000 1.0
C      1  0.4521240000000  0.4976730000000  0.5154060000000 1.0
C      1  0.5525160000000  0.4956710000000  0.4941330000000 1.0
C      1  0.5132850000000  0.4385700000000  0.4469880000000 1.0
C      1  0.5315030000000  0.4498490000000  0.4949090000000 1.0
C      1  0.4697890000000  0.5298260000000  0.4641060000000 1.0
C      1  0.4669420000000  0.4798400000000  0.4936900000000 1.0
C      1  0.5102040000000  0.5744970000000  0.5098800000000 1.0
C      1  0.5852970000000  0.5309210000000  0.5064500000000 1.0
C      1  0.5015440000000  0.4917220000000  0.5421190000000 1.0
C      1  0.4579970000000  0.4521250000000  0.4864630000000 1.0
C      1  0.5345440000000  0.4838560000000  0.5445150000000 1.0
C      1  0.4707680000000  0.5013420000000  0.4708880000000 1.0
C      1  0.5469940000000  0.5657950000000  0.5228470000000 1.0
C      1  0.4392650000000  0.5132040000000  0.5539090000000 1.0
C      1  0.4738760000000  0.4172110000000  0.5074910000000 1.0
C      1  0.4870290000000  0.5780470000000  0.4869090000000 1.0
C      1  0.5130540000000  0.5225010000000  0.5321500000000 1.0
C      1  0.5171160000000  0.4293440000000  0.5320560000000 1.0
C      1  0.4974740000000  0.4946980000000  0.4286150000000 1.0
C      1  0.5202920000000  0.5493470000000  0.4437380000000 1.0
C      1  0.4319320000000  0.5523940000000  0.4833550000000 1.0
C      1  0.5172650000000  0.4444290000000  0.5588920000000 1.0
C      1  0.4204310000000  0.4746840000000  0.5077010000000 1.0
C      1  0.5077570000000  0.4834730000000  0.4662140000000 1.0
C      1  0.5349750000000  0.4113700000000  0.4526850000000 1.0
C      1  0.4677570000000  0.5068400000000  0.4219710000000 1.0
C      1  0.5072470000000  0.5273190000000  0.4778300000000 1.0
C      1  0.4876600000000  0.5510120000000  0.5161920000000 1.0
C      1  0.4806800000000  0.5291560000000  0.5401790000000 1.0
C      1  0.4636230000000  0.5338520000000  0.4314260000000 1.0
C      1  0.4476150000000  0.4892360000000  0.4290010000000 1.0
C      1  0.4971430000000  0.5583720000000  0.4663770000000 1.0
C      1  0.4361450000000  0.5227650000000  0.5098050000000 1.0
C      1  0.4639470000000  0.5459570000000  0.4928550000000 1.0
C      1  0.4894980000000  0.5708580000000  0.5437390000000 1.0
C      1  0.4778780000000  0.5142650000000  0.5126450000000 1.0
C      1  0.4190930000000  0.5222430000000  0.4854970000000 1.0
C      1  0.4341220000000  0.4480600000000  0.5049600000000 1.0
C      1  0.4687470000000  0.4835450000000  0.5634730000000 1.0
C      1  0.5257830000000  0.5021950000000  0.5718020000000 1.0
C      1  0.4977550000000  0.4612300000000  0.4348480000000 1.0
C      1  0.5283180000000  0.5019420000000  0.4298800000000 1.0
C      1  0.4440880000000  0.4834380000000  0.4611620000000 1.0
C      1  0.5552560000000  0.4626070000000  0.4367970000000 1.0
C      1  0.4536000000000  0.5783490000000  0.4931130000000 1.0
C      1  0.4227500000000  0.4915870000000  0.4832200000000 1.0
C      1  0.5382150000000  0.5250530000000  0.4509550000000 1.0
C      1  0.4710130000000  0.4542580000000  0.5366880000000 1.0
C      1  0.4562520000000  0.4334040000000  0.5217000000000 1.0
C      1  0.5674810000000  0.4773810000000  0.5499770000000 1.0
C      1  0.5043460000000  0.5209520000000  0.5710800000000 1.0
C      1  0.5535110000000  0.4668560000000  0.4824400000000 1.0
C      1  0.5800490000000  0.4647090000000  0.5008690000000 1.0
C      1  0.5364110000000  0.5727990000000  0.4913010000000 1.0
C      1  0.5381120000000  0.5232670000000  0.4841510000000 1.0
END
