TITL C-2847948-6138-430 0.000345116830000118 125000 -460.376964495151 0 0 86 (C1) n - 1
REM
REM in /home/bkarasulu/work/CARBON/AIRSS/Generating-Clusters/AIREBO/with-SteepDescent/Only-C1/SD-CG-opt/Try1-1.4A-POS3A/HFTN-CG
REM
REM
REM
REM
REM
REM ./C.cell (11c1c37f851c82e70ff6c80c92926a4b)
REM
REM compiler GCC version 9.2.1 20190827 (Red Hat 9.2.1-1)
REM options -cpp -mtune=generic -march=x86-64 -g -O0 -fpre-include=/usr/include/finclude/math-vector-fortran.h
REM seed 1536254740 -1039529690 375152971 2135775676 1644321849 485588834 -1293727529 427058378 737278199 -702685716 48061006 -824940015 1910439924 1646844445 -1372283284 -4127895 -557233516 -493339080 473415755 -1197187953 137347847 -1566233046 285989497 391764831 961846161 1621883914 1486738191 97344433 1906743459 1337408907 -803054479 -933251770 -1518903181
REM
CELL 1.54180   50.00000   50.00000   50.00000   90.00000   90.00000   90.00000
LATT -1
SFAC C  
C      1  0.5572570000000  0.5212760000000  0.5249310000000 1.0
C      1  0.4921280000000  0.5596500000000  0.4662890000000 1.0
C      1  0.4750680000000  0.4579320000000  0.4817450000000 1.0
C      1  0.5150740000000  0.5347890000000  0.4628380000000 1.0
C      1  0.4415510000000  0.4996540000000  0.4358220000000 1.0
C      1  0.4205790000000  0.5431020000000  0.4956060000000 1.0
C      1  0.4028820000000  0.5085180000000  0.4861390000000 1.0
C      1  0.4507450000000  0.5325420000000  0.5027010000000 1.0
C      1  0.4953680000000  0.4863780000000  0.5372820000000 1.0
C      1  0.4538860000000  0.4984800000000  0.5605910000000 1.0
C      1  0.4898900000000  0.5209880000000  0.4761990000000 1.0
C      1  0.4680580000000  0.5147160000000  0.4298180000000 1.0
C      1  0.5441410000000  0.5339010000000  0.5604060000000 1.0
C      1  0.4595810000000  0.5224310000000  0.4669470000000 1.0
C      1  0.5870500000000  0.5028980000000  0.4894950000000 1.0
C      1  0.5250430000000  0.4560180000000  0.4850460000000 1.0
C      1  0.4546490000000  0.5748600000000  0.5344470000000 1.0
C      1  0.4420610000000  0.5033820000000  0.4869670000000 1.0
C      1  0.5605740000000  0.4829650000000  0.4973490000000 1.0
C      1  0.4619270000000  0.4384430000000  0.5050540000000 1.0
C      1  0.5335530000000  0.5205900000000  0.5043740000000 1.0
C      1  0.5754850000000  0.4727010000000  0.4619310000000 1.0
C      1  0.5056580000000  0.5082140000000  0.5822420000000 1.0
C      1  0.4909590000000  0.4952730000000  0.4138760000000 1.0
C      1  0.5024130000000  0.4850850000000  0.4503730000000 1.0
C      1  0.5055650000000  0.4668440000000  0.4204390000000 1.0
C      1  0.5428820000000  0.5272360000000  0.4746690000000 1.0
C      1  0.4779370000000  0.4394020000000  0.5497250000000 1.0
C      1  0.4941310000000  0.4160280000000  0.4558810000000 1.0
C      1  0.5259170000000  0.5711520000000  0.5431380000000 1.0
C      1  0.5600810000000  0.5072230000000  0.5557970000000 1.0
C      1  0.5443090000000  0.4789180000000  0.5643030000000 1.0
C      1  0.4237940000000  0.5114380000000  0.4594430000000 1.0
C      1  0.4974010000000  0.5499600000000  0.5612700000000 1.0
C      1  0.4605640000000  0.4671460000000  0.5573340000000 1.0
C      1  0.5159050000000  0.4827000000000  0.5762580000000 1.0
C      1  0.5139940000000  0.4156400000000  0.4831830000000 1.0
C      1  0.5771130000000  0.4969730000000  0.5212340000000 1.0
C      1  0.5533000000000  0.5736970000000  0.4654680000000 1.0
C      1  0.4154580000000  0.5171190000000  0.5132870000000 1.0
C      1  0.5726250000000  0.4763920000000  0.5456360000000 1.0
C      1  0.4147570000000  0.5421210000000  0.4684580000000 1.0
C      1  0.5678110000000  0.4533440000000  0.4893650000000 1.0
C      1  0.4806760000000  0.4288520000000  0.5239810000000 1.0
C      1  0.5276270000000  0.4884720000000  0.4949100000000 1.0
C      1  0.4872620000000  0.5750610000000  0.5695120000000 1.0
C      1  0.4304020000000  0.4770190000000  0.4993440000000 1.0
C      1  0.4989320000000  0.4440850000000  0.4727310000000 1.0
C      1  0.4951560000000  0.5337940000000  0.4221850000000 1.0
C      1  0.5620580000000  0.4522060000000  0.5228750000000 1.0
C      1  0.5557770000000  0.4786390000000  0.4362350000000 1.0
C      1  0.5486040000000  0.5562620000000  0.5421410000000 1.0
C      1  0.5454450000000  0.4222180000000  0.4788680000000 1.0
C      1  0.5339180000000  0.4802230000000  0.4625160000000 1.0
C      1  0.5160320000000  0.5094150000000  0.4319790000000 1.0
C      1  0.4432030000000  0.4722700000000  0.4376760000000 1.0
C      1  0.4728970000000  0.4832770000000  0.5043530000000 1.0
C      1  0.5185760000000  0.5535070000000  0.4370380000000 1.0
C      1  0.4845970000000  0.5310050000000  0.5050620000000 1.0
C      1  0.5550030000000  0.4457370000000  0.4587970000000 1.0
C      1  0.5368270000000  0.5728420000000  0.4426800000000 1.0
C      1  0.5066120000000  0.4218390000000  0.5149500000000 1.0
C      1  0.4370210000000  0.4493390000000  0.4870590000000 1.0
C      1  0.5112560000000  0.5366500000000  0.5124280000000 1.0
C      1  0.4493850000000  0.4569380000000  0.4597600000000 1.0
C      1  0.4698500000000  0.5888630000000  0.5528500000000 1.0
C      1  0.5300050000000  0.4565610000000  0.4384090000000 1.0
C      1  0.5175040000000  0.4792260000000  0.5231730000000 1.0
C      1  0.5600320000000  0.5517110000000  0.5139630000000 1.0
C      1  0.4936580000000  0.4665150000000  0.5618210000000 1.0
C      1  0.4382310000000  0.5082360000000  0.5318530000000 1.0
C      1  0.4156270000000  0.4710450000000  0.5297630000000 1.0
C      1  0.5362860000000  0.4372550000000  0.5079600000000 1.0
C      1  0.5551780000000  0.5541870000000  0.4863340000000 1.0
C      1  0.5451130000000  0.5094490000000  0.4371750000000 1.0
C      1  0.4491620000000  0.4763050000000  0.5276940000000 1.0
C      1  0.5359190000000  0.4644070000000  0.5372740000000 1.0
C      1  0.5175630000000  0.5316510000000  0.5711560000000 1.0
C      1  0.4777380000000  0.5088450000000  0.5830860000000 1.0
C      1  0.4747110000000  0.5436340000000  0.4469310000000 1.0
C      1  0.4578340000000  0.5485810000000  0.5288520000000 1.0
C      1  0.4731490000000  0.5324970000000  0.5511900000000 1.0
C      1  0.4721770000000  0.5088930000000  0.5267190000000 1.0
C      1  0.5650480000000  0.5051440000000  0.4643950000000 1.0
C      1  0.4521630000000  0.5278490000000  0.5775410000000 1.0
C      1  0.4966630000000  0.4913800000000  0.4814280000000 1.0
END
