TITL C-2848496-4490-453 -0.000886254177245798 125000 -240.399009655159 0 0 43 (C1) n - 1
REM
REM in /home/bkarasulu/work/CARBON/AIRSS/Generating-Clusters/AIREBO/with-SteepDescent/Only-C1/SD-CG-opt/Try1-1.4A-POS3A/HFTN-CG
REM
REM
REM
REM
REM
REM ./C.cell (11c1c37f851c82e70ff6c80c92926a4b)
REM
REM compiler GCC version 9.2.1 20190827 (Red Hat 9.2.1-1)
REM options -cpp -mtune=generic -march=x86-64 -g -O0 -fpre-include=/usr/include/finclude/math-vector-fortran.h
REM seed -1799602401 -379856831 -2118592301 -1175315362 501115065 275758928 1802682103 1313397797 1693827096 -894083352 -791882049 -943495640 1048945843 -405701020 -420591378 49933119 -733112687 1193210419 -1681845641 1209481613 48804238 260806066 -1099349045 1460100172 -941769381 -1192291745 786872202 1395665713 -1769346183 -730079684 -1667310149 -1878394795 1430931604
REM
CELL 1.54180   50.00000   50.00000   50.00000   90.00000   90.00000   90.00000
LATT -1
SFAC C  
C      1  0.4780580000000  0.5364950000000  0.5596780000000 1.0
C      1  0.5886550000000  0.5011180000000  0.4534960000000 1.0
C      1  0.4437500000000  0.4954460000000  0.5497970000000 1.0
C      1  0.5246640000000  0.4463150000000  0.4881430000000 1.0
C      1  0.5344910000000  0.5298030000000  0.5109190000000 1.0
C      1  0.4410950000000  0.5441280000000  0.5309450000000 1.0
C      1  0.4577820000000  0.4477040000000  0.5475100000000 1.0
C      1  0.5404290000000  0.5682590000000  0.5020740000000 1.0
C      1  0.4470930000000  0.4709450000000  0.5371310000000 1.0
C      1  0.4779290000000  0.4729300000000  0.4936110000000 1.0
C      1  0.5422020000000  0.4856660000000  0.4563020000000 1.0
C      1  0.5276760000000  0.4182760000000  0.4928550000000 1.0
C      1  0.5110730000000  0.4096990000000  0.5137900000000 1.0
C      1  0.5591480000000  0.5431340000000  0.4931280000000 1.0
C      1  0.4309980000000  0.4657330000000  0.4605670000000 1.0
C      1  0.4547900000000  0.4748190000000  0.4498420000000 1.0
C      1  0.4573660000000  0.5862880000000  0.4714900000000 1.0
C      1  0.5402080000000  0.4634520000000  0.4731370000000 1.0
C      1  0.4590570000000  0.5014250000000  0.4967430000000 1.0
C      1  0.5269350000000  0.5399370000000  0.4562050000000 1.0
C      1  0.4513010000000  0.5221110000000  0.5511680000000 1.0
C      1  0.4889650000000  0.4193810000000  0.5701820000000 1.0
C      1  0.4811410000000  0.4324610000000  0.5479240000000 1.0
C      1  0.5526140000000  0.5320920000000  0.4653890000000 1.0
C      1  0.5618870000000  0.5064130000000  0.4579930000000 1.0
C      1  0.5182140000000  0.4920600000000  0.4426750000000 1.0
C      1  0.4967010000000  0.5034860000000  0.4573740000000 1.0
C      1  0.5058520000000  0.4840720000000  0.5199960000000 1.0
C      1  0.4762780000000  0.4855420000000  0.4644510000000 1.0
C      1  0.4468990000000  0.4719570000000  0.5074730000000 1.0
C      1  0.4958780000000  0.4314300000000  0.5244800000000 1.0
C      1  0.4874910000000  0.5584440000000  0.5095860000000 1.0
C      1  0.5017070000000  0.5077830000000  0.5161950000000 1.0
C      1  0.4268110000000  0.4601370000000  0.4872240000000 1.0
C      1  0.5042550000000  0.5281330000000  0.4687380000000 1.0
C      1  0.5177220000000  0.5690780000000  0.5118170000000 1.0
C      1  0.5010480000000  0.4561890000000  0.5063110000000 1.0
C      1  0.4718570000000  0.5747120000000  0.4890230000000 1.0
C      1  0.4944680000000  0.5377200000000  0.5802560000000 1.0
C      1  0.5041690000000  0.5338980000000  0.4985340000000 1.0
C      1  0.5858650000000  0.5439920000000  0.5004730000000 1.0
C      1  0.4712670000000  0.5517810000000  0.5336240000000 1.0
C      1  0.6142100000000  0.4955570000000  0.4517530000000 1.0
END
