TITL C-2848495-5024-481 0.000644286083975863 125000 -272.492670462457 0 0 52 (C1) n - 1
REM
REM in /home/bkarasulu/work/CARBON/AIRSS/Generating-Clusters/AIREBO/with-SteepDescent/Only-C1/SD-CG-opt/Try1-1.4A-POS3A/HFTN-CG
REM
REM
REM
REM
REM
REM ./C.cell (11c1c37f851c82e70ff6c80c92926a4b)
REM
REM compiler GCC version 9.2.1 20190827 (Red Hat 9.2.1-1)
REM options -cpp -mtune=generic -march=x86-64 -g -O0 -fpre-include=/usr/include/finclude/math-vector-fortran.h
REM seed 2137523803 -2076898212 549209160 -562374963 -471624362 -1859527568 1402478726 -1950172718 -1448177386 1833841919 1337233222 -1520267309 453031240 -2127152670 -563952420 -1441765040 -1890838210 -2006897159 -271700959 -233596186 1186949423 254568527 -1695296747 -1240100584 -1295221144 -251976494 2127698977 -1192604001 44014214 108635165 -679017318 203049446 -1534605614
REM
CELL 1.54180   50.00000   50.00000   50.00000   90.00000   90.00000   90.00000
LATT -1
SFAC C  
C      1  0.4522150000000  0.4522070000000  0.4597440000000 1.0
C      1  0.5041040000000  0.6044850000000  0.5642110000000 1.0
C      1  0.5384110000000  0.4480470000000  0.4622450000000 1.0
C      1  0.4749240000000  0.5240270000000  0.5055620000000 1.0
C      1  0.5555090000000  0.5442280000000  0.4947320000000 1.0
C      1  0.4853240000000  0.4564690000000  0.5492170000000 1.0
C      1  0.4954840000000  0.5384340000000  0.4566550000000 1.0
C      1  0.5144640000000  0.5071990000000  0.5261000000000 1.0
C      1  0.5280140000000  0.4768630000000  0.5289090000000 1.0
C      1  0.4810830000000  0.4912240000000  0.5121080000000 1.0
C      1  0.4971530000000  0.5114660000000  0.5710680000000 1.0
C      1  0.5603920000000  0.4731890000000  0.5323370000000 1.0
C      1  0.5163440000000  0.4538450000000  0.5070240000000 1.0
C      1  0.4567550000000  0.4648840000000  0.5433960000000 1.0
C      1  0.5594560000000  0.4654430000000  0.4692200000000 1.0
C      1  0.4475030000000  0.4572440000000  0.5164480000000 1.0
C      1  0.4717110000000  0.5335280000000  0.4405980000000 1.0
C      1  0.4395340000000  0.4838990000000  0.4968710000000 1.0
C      1  0.5063880000000  0.5031650000000  0.4938480000000 1.0
C      1  0.4546620000000  0.5450580000000  0.4234830000000 1.0
C      1  0.5110580000000  0.4474970000000  0.4757830000000 1.0
C      1  0.5387250000000  0.5109270000000  0.4604840000000 1.0
C      1  0.5103580000000  0.4623260000000  0.5594360000000 1.0
C      1  0.5074890000000  0.5100870000000  0.4651780000000 1.0
C      1  0.4807230000000  0.4322340000000  0.4793560000000 1.0
C      1  0.4577980000000  0.5054290000000  0.4828740000000 1.0
C      1  0.4825100000000  0.5082900000000  0.5415050000000 1.0
C      1  0.5136960000000  0.5578610000000  0.4701590000000 1.0
C      1  0.4484160000000  0.5357430000000  0.4914120000000 1.0
C      1  0.5227070000000  0.5516590000000  0.4997240000000 1.0
C      1  0.5079760000000  0.5802920000000  0.5570580000000 1.0
C      1  0.5151170000000  0.5517190000000  0.5501260000000 1.0
C      1  0.4640580000000  0.4778170000000  0.4161960000000 1.0
C      1  0.4749250000000  0.5043920000000  0.4567830000000 1.0
C      1  0.4871150000000  0.4617700000000  0.5176420000000 1.0
C      1  0.5129890000000  0.5312100000000  0.5733900000000 1.0
C      1  0.4740870000000  0.4794010000000  0.4402070000000 1.0
C      1  0.5008990000000  0.5381560000000  0.5223570000000 1.0
C      1  0.5565500000000  0.5243160000000  0.5181800000000 1.0
C      1  0.4337590000000  0.4993610000000  0.5255190000000 1.0
C      1  0.5592510000000  0.5362490000000  0.4684160000000 1.0
C      1  0.5271170000000  0.4269730000000  0.5187170000000 1.0
C      1  0.4851150000000  0.4552020000000  0.4556560000000 1.0
C      1  0.4528170000000  0.4931360000000  0.5447860000000 1.0
C      1  0.5494370000000  0.4961040000000  0.5101760000000 1.0
C      1  0.5345260000000  0.5444450000000  0.4516860000000 1.0
C      1  0.4344740000000  0.4636080000000  0.4730070000000 1.0
C      1  0.5516080000000  0.4902620000000  0.4798720000000 1.0
C      1  0.4682130000000  0.4411820000000  0.5025680000000 1.0
C      1  0.5853430000000  0.4585190000000  0.4664040000000 1.0
C      1  0.5387380000000  0.5479980000000  0.5300050000000 1.0
C      1  0.4729750000000  0.5409300000000  0.5415610000000 1.0
END
