TITL C-2848507-1641-495 0.00153880274381863 125000 -582.87185386924 0 0 112 (C1) n - 1
REM
REM in /home/bkarasulu/work/CARBON/AIRSS/Generating-Clusters/AIREBO/with-SteepDescent/Only-C1/SD-CG-opt/Try1-1.4A-POS3A/HFTN-CG
REM
REM
REM
REM
REM
REM ./C.cell (11c1c37f851c82e70ff6c80c92926a4b)
REM
REM compiler GCC version 9.2.1 20190827 (Red Hat 9.2.1-1)
REM options -cpp -mtune=generic -march=x86-64 -g -O0 -fpre-include=/usr/include/finclude/math-vector-fortran.h
REM seed -1271908919 -1417928769 -1444544790 1338164435 -1680887392 810943657 -523051402 555250426 -1235772479 -1484023356 793723198 448394362 669479060 1815532370 1555076294 188184184 998620853 -1017765643 -587223487 2111905819 -202404292 -1995259156 53320840 691658238 1033062603 1548145064 2018476247 1719892056 -856598767 1772621944 1876423966 -651742738 -2119656138
REM
CELL 1.54180   50.00000   50.00000   50.00000   90.00000   90.00000   90.00000
LATT -1
SFAC C  
C      1  0.5025480000000  0.5397030000000  0.4222310000000 1.0
C      1  0.4449480000000  0.4756740000000  0.5578360000000 1.0
C      1  0.5424010000000  0.4315600000000  0.5540240000000 1.0
C      1  0.4974480000000  0.5454550000000  0.5809980000000 1.0
C      1  0.4618740000000  0.4468760000000  0.5642120000000 1.0
C      1  0.5937480000000  0.4654170000000  0.5248850000000 1.0
C      1  0.4279010000000  0.4710720000000  0.4260070000000 1.0
C      1  0.5097040000000  0.4388670000000  0.5508780000000 1.0
C      1  0.5840950000000  0.5290210000000  0.5004200000000 1.0
C      1  0.5941170000000  0.4712030000000  0.4710330000000 1.0
C      1  0.4999410000000  0.5609330000000  0.4384640000000 1.0
C      1  0.5483100000000  0.5469170000000  0.5482720000000 1.0
C      1  0.4836620000000  0.4601390000000  0.4166600000000 1.0
C      1  0.5362700000000  0.4820030000000  0.4742150000000 1.0
C      1  0.3874450000000  0.4836900000000  0.5101700000000 1.0
C      1  0.5135410000000  0.4879240000000  0.4979990000000 1.0
C      1  0.5309030000000  0.5012250000000  0.5311160000000 1.0
C      1  0.4833010000000  0.5927000000000  0.4692310000000 1.0
C      1  0.5000320000000  0.5040150000000  0.5415040000000 1.0
C      1  0.5303380000000  0.4998420000000  0.5890140000000 1.0
C      1  0.5199160000000  0.5662920000000  0.5487190000000 1.0
C      1  0.4550070000000  0.4254040000000  0.5197420000000 1.0
C      1  0.5547450000000  0.4514370000000  0.4461900000000 1.0
C      1  0.4575170000000  0.5503510000000  0.4412000000000 1.0
C      1  0.4982850000000  0.4630770000000  0.5874780000000 1.0
C      1  0.4292450000000  0.5563500000000  0.4779280000000 1.0
C      1  0.5623070000000  0.5118020000000  0.5289650000000 1.0
C      1  0.5623670000000  0.4782920000000  0.5225750000000 1.0
C      1  0.5344570000000  0.4637270000000  0.5095540000000 1.0
C      1  0.4667030000000  0.4903860000000  0.4976690000000 1.0
C      1  0.5338820000000  0.5222230000000  0.4468110000000 1.0
C      1  0.4473400000000  0.5366910000000  0.5870400000000 1.0
C      1  0.4712910000000  0.4519560000000  0.5095540000000 1.0
C      1  0.5204800000000  0.5816120000000  0.4438430000000 1.0
C      1  0.5238700000000  0.4731360000000  0.5732790000000 1.0
C      1  0.4666080000000  0.4175200000000  0.4824890000000 1.0
C      1  0.5727000000000  0.5583840000000  0.4714280000000 1.0
C      1  0.4881330000000  0.4434240000000  0.5707060000000 1.0
C      1  0.4688290000000  0.5859540000000  0.5307790000000 1.0
C      1  0.4788330000000  0.5616870000000  0.4627120000000 1.0
C      1  0.5809420000000  0.4829380000000  0.4951800000000 1.0
C      1  0.4257030000000  0.4429300000000  0.5221070000000 1.0
C      1  0.5561380000000  0.5864280000000  0.4819480000000 1.0
C      1  0.4856690000000  0.5445130000000  0.4913050000000 1.0
C      1  0.4156610000000  0.4984260000000  0.5122720000000 1.0
C      1  0.4429510000000  0.5113080000000  0.5966080000000 1.0
C      1  0.5532360000000  0.5156940000000  0.5608820000000 1.0
C      1  0.4496170000000  0.4924880000000  0.4690850000000 1.0
C      1  0.4822400000000  0.5168640000000  0.4580830000000 1.0
C      1  0.4894630000000  0.5669340000000  0.5145130000000 1.0
C      1  0.5639570000000  0.5632100000000  0.5038860000000 1.0
C      1  0.4153850000000  0.4650330000000  0.5049430000000 1.0
C      1  0.5354200000000  0.5129780000000  0.4995050000000 1.0
C      1  0.5213080000000  0.5250150000000  0.5679960000000 1.0
C      1  0.5678440000000  0.4090660000000  0.4769300000000 1.0
C      1  0.4930020000000  0.4477810000000  0.4865280000000 1.0
C      1  0.5527010000000  0.4291260000000  0.4709800000000 1.0
C      1  0.4109160000000  0.5418640000000  0.4628620000000 1.0
C      1  0.5644900000000  0.5143240000000  0.4570670000000 1.0
C      1  0.4546580000000  0.4876440000000  0.5869180000000 1.0
C      1  0.5126010000000  0.4694270000000  0.4287480000000 1.0
C      1  0.4468410000000  0.4254180000000  0.5503770000000 1.0
C      1  0.5235950000000  0.4170190000000  0.5315510000000 1.0
C      1  0.4838650000000  0.4139620000000  0.5057920000000 1.0
C      1  0.5740290000000  0.5427760000000  0.5264230000000 1.0
C      1  0.5642150000000  0.4815000000000  0.4589560000000 1.0
C      1  0.5117030000000  0.5969010000000  0.4667400000000 1.0
C      1  0.5246850000000  0.4408330000000  0.4862860000000 1.0
C      1  0.5193790000000  0.5787710000000  0.5148610000000 1.0
C      1  0.5392720000000  0.5540390000000  0.4374680000000 1.0
C      1  0.4240350000000  0.4492760000000  0.5518100000000 1.0
C      1  0.5549920000000  0.5285110000000  0.4209110000000 1.0
C      1  0.5118820000000  0.5355210000000  0.5366830000000 1.0
C      1  0.5583190000000  0.4824850000000  0.5556080000000 1.0
C      1  0.4555550000000  0.4767770000000  0.4395150000000 1.0
C      1  0.5092920000000  0.4841370000000  0.4584140000000 1.0
C      1  0.4497010000000  0.5254620000000  0.4629220000000 1.0
C      1  0.5357910000000  0.5490410000000  0.5166170000000 1.0
C      1  0.4944510000000  0.5046490000000  0.5724860000000 1.0
C      1  0.5120780000000  0.4165680000000  0.5065040000000 1.0
C      1  0.4179930000000  0.5147230000000  0.4569740000000 1.0
C      1  0.4773310000000  0.4929560000000  0.4229190000000 1.0
C      1  0.5242520000000  0.4929910000000  0.4104400000000 1.0
C      1  0.5222420000000  0.4468520000000  0.4523600000000 1.0
C      1  0.5504470000000  0.4556650000000  0.5671180000000 1.0
C      1  0.4666430000000  0.5233080000000  0.4269080000000 1.0
C      1  0.5053630000000  0.5081950000000  0.4347050000000 1.0
C      1  0.4197910000000  0.4823540000000  0.4561850000000 1.0
C      1  0.4926150000000  0.4373610000000  0.4402610000000 1.0
C      1  0.4824430000000  0.4863200000000  0.5885970000000 1.0
C      1  0.5193240000000  0.5406710000000  0.4880720000000 1.0
C      1  0.5272210000000  0.5942710000000  0.4898940000000 1.0
C      1  0.4570360000000  0.5234040000000  0.5419360000000 1.0
C      1  0.4888480000000  0.4754240000000  0.5268770000000 1.0
C      1  0.4239110000000  0.5199760000000  0.5446760000000 1.0
C      1  0.4849450000000  0.4746970000000  0.4735870000000 1.0
C      1  0.4387600000000  0.5217540000000  0.5141340000000 1.0
C      1  0.4600100000000  0.4912710000000  0.5310950000000 1.0
C      1  0.4859930000000  0.5640820000000  0.5479100000000 1.0
C      1  0.4178920000000  0.4962300000000  0.5575650000000 1.0
C      1  0.5514480000000  0.4990500000000  0.4128900000000 1.0
C      1  0.4536010000000  0.4473770000000  0.4808150000000 1.0
C      1  0.4682100000000  0.5429820000000  0.5637990000000 1.0
C      1  0.5197530000000  0.4693770000000  0.5397030000000 1.0
C      1  0.4270750000000  0.4609350000000  0.4784700000000 1.0
C      1  0.4915500000000  0.5112020000000  0.4877870000000 1.0
C      1  0.4695340000000  0.4532530000000  0.4546130000000 1.0
C      1  0.4522220000000  0.5384300000000  0.4931140000000 1.0
C      1  0.5651340000000  0.5094580000000  0.4885480000000 1.0
C      1  0.5388350000000  0.5590770000000  0.4710950000000 1.0
C      1  0.5647520000000  0.4772430000000  0.4252770000000 1.0
C      1  0.5821970000000  0.5375320000000  0.4555770000000 1.0
END
