TITL C-2848509-3138-394 0.000667140125114173 125000 -564.280204722383 0 0 102 (C1) n - 1
REM
REM in /home/bkarasulu/work/CARBON/AIRSS/Generating-Clusters/AIREBO/with-SteepDescent/Only-C1/SD-CG-opt/Try1-1.4A-POS3A/HFTN-CG
REM
REM
REM
REM
REM
REM ./C.cell (11c1c37f851c82e70ff6c80c92926a4b)
REM
REM compiler GCC version 9.2.1 20190827 (Red Hat 9.2.1-1)
REM options -cpp -mtune=generic -march=x86-64 -g -O0 -fpre-include=/usr/include/finclude/math-vector-fortran.h
REM seed 573705045 371699840 -2007730744 -316175057 -1217807327 -1092890835 688039291 1818197219 -368917377 1664526266 -482275553 497691930 1416391866 1021953134 -1927442786 1983443540 -1585278973 674450133 42319606 1760519956 90985506 1794796897 -1840887231 5485014 1893891342 798587651 1951762464 -1328736274 -1383383829 1804168200 -642367582 1711541689 883020639
REM
CELL 1.54180   50.00000   50.00000   50.00000   90.00000   90.00000   90.00000
LATT -1
SFAC C  
C      1  0.5397910000000  0.5441160000000  0.5366490000000 1.0
C      1  0.4905750000000  0.5702410000000  0.4227450000000 1.0
C      1  0.4250290000000  0.5079210000000  0.5004410000000 1.0
C      1  0.4931600000000  0.5018750000000  0.5155440000000 1.0
C      1  0.4410260000000  0.5131920000000  0.4745710000000 1.0
C      1  0.5159340000000  0.5070470000000  0.4771560000000 1.0
C      1  0.4426490000000  0.5490650000000  0.5183010000000 1.0
C      1  0.5427190000000  0.4927470000000  0.4881570000000 1.0
C      1  0.4917020000000  0.5499380000000  0.4579440000000 1.0
C      1  0.5184430000000  0.4677710000000  0.5665950000000 1.0
C      1  0.5594080000000  0.5520710000000  0.4665100000000 1.0
C      1  0.4866900000000  0.4920460000000  0.4507500000000 1.0
C      1  0.5216050000000  0.4613860000000  0.5139770000000 1.0
C      1  0.5741570000000  0.5515080000000  0.5034720000000 1.0
C      1  0.4834570000000  0.4867780000000  0.5701490000000 1.0
C      1  0.4915450000000  0.4594510000000  0.5786740000000 1.0
C      1  0.4437560000000  0.4527380000000  0.4705190000000 1.0
C      1  0.4325690000000  0.5006840000000  0.5629590000000 1.0
C      1  0.4612000000000  0.4886470000000  0.4700220000000 1.0
C      1  0.4821420000000  0.4342600000000  0.4742380000000 1.0
C      1  0.4801010000000  0.5875850000000  0.5371550000000 1.0
C      1  0.5280730000000  0.4931940000000  0.5513810000000 1.0
C      1  0.5856020000000  0.4749160000000  0.4820900000000 1.0
C      1  0.5237400000000  0.5055380000000  0.4446600000000 1.0
C      1  0.4389500000000  0.4753550000000  0.4480120000000 1.0
C      1  0.5451320000000  0.5599840000000  0.4368130000000 1.0
C      1  0.4857950000000  0.5799800000000  0.4660550000000 1.0
C      1  0.5276870000000  0.5591590000000  0.4724280000000 1.0
C      1  0.4612720000000  0.4544200000000  0.5638470000000 1.0
C      1  0.4601790000000  0.5045340000000  0.4334990000000 1.0
C      1  0.5404150000000  0.5250320000000  0.5116350000000 1.0
C      1  0.4824170000000  0.5656860000000  0.5599070000000 1.0
C      1  0.4744470000000  0.5180650000000  0.5469710000000 1.0
C      1  0.5072950000000  0.5210800000000  0.5889510000000 1.0
C      1  0.5387160000000  0.4232370000000  0.5066780000000 1.0
C      1  0.5183640000000  0.5193280000000  0.5636540000000 1.0
C      1  0.4902490000000  0.4842970000000  0.4100140000000 1.0
C      1  0.4450520000000  0.5629570000000  0.4905430000000 1.0
C      1  0.4147600000000  0.5167900000000  0.5471490000000 1.0
C      1  0.5554890000000  0.5219910000000  0.5492430000000 1.0
C      1  0.5414190000000  0.4176480000000  0.4801980000000 1.0
C      1  0.4791110000000  0.4071770000000  0.5468320000000 1.0
C      1  0.5177650000000  0.5356600000000  0.4905420000000 1.0
C      1  0.5597830000000  0.4441270000000  0.5846780000000 1.0
C      1  0.5139780000000  0.4960390000000  0.4133200000000 1.0
C      1  0.4926590000000  0.5991850000000  0.4904660000000 1.0
C      1  0.5155500000000  0.5687680000000  0.4426740000000 1.0
C      1  0.4186310000000  0.5281110000000  0.5224520000000 1.0
C      1  0.5080480000000  0.3946660000000  0.4568810000000 1.0
C      1  0.4572990000000  0.5185750000000  0.5213340000000 1.0
C      1  0.4836670000000  0.4465400000000  0.5028640000000 1.0
C      1  0.5041230000000  0.4638780000000  0.4588570000000 1.0
C      1  0.4372350000000  0.4737360000000  0.5549460000000 1.0
C      1  0.5098910000000  0.4298940000000  0.5167510000000 1.0
C      1  0.4211640000000  0.5239550000000  0.4524120000000 1.0
C      1  0.4563440000000  0.5322350000000  0.4355400000000 1.0
C      1  0.5698030000000  0.4534160000000  0.4955070000000 1.0
C      1  0.5703830000000  0.5204310000000  0.4962420000000 1.0
C      1  0.5308370000000  0.4428700000000  0.4599940000000 1.0
C      1  0.5470430000000  0.4646900000000  0.4804240000000 1.0
C      1  0.4664060000000  0.5800060000000  0.4904600000000 1.0
C      1  0.4296790000000  0.4571190000000  0.4928880000000 1.0
C      1  0.5884370000000  0.4906690000000  0.5274460000000 1.0
C      1  0.5493190000000  0.4845020000000  0.4436940000000 1.0
C      1  0.4999270000000  0.5337290000000  0.5434720000000 1.0
C      1  0.5497190000000  0.5681440000000  0.4961950000000 1.0
C      1  0.5323130000000  0.5738070000000  0.5213810000000 1.0
C      1  0.5602630000000  0.4893090000000  0.5411420000000 1.0
C      1  0.4709500000000  0.4558050000000  0.5312430000000 1.0
C      1  0.5000290000000  0.5818230000000  0.5157450000000 1.0
C      1  0.4611830000000  0.4270440000000  0.5465020000000 1.0
C      1  0.5530590000000  0.5186970000000  0.4684620000000 1.0
C      1  0.5391610000000  0.5117250000000  0.4084700000000 1.0
C      1  0.5877880000000  0.4968410000000  0.5005520000000 1.0
C      1  0.5787100000000  0.4735150000000  0.4533950000000 1.0
C      1  0.5582050000000  0.4401860000000  0.5169540000000 1.0
C      1  0.5001370000000  0.5498140000000  0.5134620000000 1.0
C      1  0.5460430000000  0.4601080000000  0.5379540000000 1.0
C      1  0.5256360000000  0.4949710000000  0.5174940000000 1.0
C      1  0.4742890000000  0.4790010000000  0.4988910000000 1.0
C      1  0.4413830000000  0.5501250000000  0.4603080000000 1.0
C      1  0.5063000000000  0.4766780000000  0.4876620000000 1.0
C      1  0.4801070000000  0.5277240000000  0.5012630000000 1.0
C      1  0.4269700000000  0.4627180000000  0.5265970000000 1.0
C      1  0.4555450000000  0.5151680000000  0.5720620000000 1.0
C      1  0.5142710000000  0.5633650000000  0.5482420000000 1.0
C      1  0.4102320000000  0.4800620000000  0.5026080000000 1.0
C      1  0.4471470000000  0.4872140000000  0.5153810000000 1.0
C      1  0.4950370000000  0.5230340000000  0.4395130000000 1.0
C      1  0.5548290000000  0.4535250000000  0.4395890000000 1.0
C      1  0.5472630000000  0.5286910000000  0.4364830000000 1.0
C      1  0.5254570000000  0.4178790000000  0.5598060000000 1.0
C      1  0.4723400000000  0.4548110000000  0.4519120000000 1.0
C      1  0.5051390000000  0.4209160000000  0.4637540000000 1.0
C      1  0.5396150000000  0.4450040000000  0.5654530000000 1.0
C      1  0.4679560000000  0.5343570000000  0.4745010000000 1.0
C      1  0.4778350000000  0.5462690000000  0.4207980000000 1.0
C      1  0.5055100000000  0.4145990000000  0.5418980000000 1.0
C      1  0.4788060000000  0.4852990000000  0.5395310000000 1.0
C      1  0.4558950000000  0.5664160000000  0.5397710000000 1.0
C      1  0.4812320000000  0.5093500000000  0.5889150000000 1.0
C      1  0.4638500000000  0.4717700000000  0.4251770000000 1.0
END
