TITL C-2848505-4874-220 -0.00539885994875868 125000 -1022.25219457112 0 0 195 (C1) n - 1
REM
REM in /home/bkarasulu/work/CARBON/AIRSS/Generating-Clusters/AIREBO/with-SteepDescent/Only-C1/SD-CG-opt/Try1-1.4A-POS3A/HFTN-CG
REM
REM
REM
REM
REM
REM ./C.cell (11c1c37f851c82e70ff6c80c92926a4b)
REM
REM compiler GCC version 9.2.1 20190827 (Red Hat 9.2.1-1)
REM options -cpp -mtune=generic -march=x86-64 -g -O0 -fpre-include=/usr/include/finclude/math-vector-fortran.h
REM seed 221434998 315525390 1263335159 721990959 1986505434 -1950651010 -1695129467 -659708973 -719659804 -1759029775 -65538170 -1181682250 962223521 1714657164 -894365562 259421049 682021233 1865112520 -376504643 488687234 1842730630 -1454538274 -1397024605 2036502203 1897499397 -325783674 -835067540 -317817123 -1733595123 1780962266 727918310 -785568380 1174880905
REM
CELL 1.54180   50.00000   50.00000   50.00000   90.00000   90.00000   90.00000
LATT -1
SFAC C  
C      1  0.4057970000000  0.5181280000000  0.5808160000000 1.0
C      1  0.4999440000000  0.4373680000000  0.4791670000000 1.0
C      1  0.5679840000000  0.5480520000000  0.4381930000000 1.0
C      1  0.4516020000000  0.4805900000000  0.3964060000000 1.0
C      1  0.4324210000000  0.5604840000000  0.4250590000000 1.0
C      1  0.3914990000000  0.4709340000000  0.5111770000000 1.0
C      1  0.4441590000000  0.4232810000000  0.4514170000000 1.0
C      1  0.5333000000000  0.4439700000000  0.4522720000000 1.0
C      1  0.5750340000000  0.5683500000000  0.4716150000000 1.0
C      1  0.5976300000000  0.4870670000000  0.5264190000000 1.0
C      1  0.5051210000000  0.5712050000000  0.5164260000000 1.0
C      1  0.4590090000000  0.5135420000000  0.4994790000000 1.0
C      1  0.5504430000000  0.5279790000000  0.5235860000000 1.0
C      1  0.6076120000000  0.5589540000000  0.5390540000000 1.0
C      1  0.4335060000000  0.5438430000000  0.4546990000000 1.0
C      1  0.5523580000000  0.4773910000000  0.4104110000000 1.0
C      1  0.4595870000000  0.5705970000000  0.5747130000000 1.0
C      1  0.4374930000000  0.5095190000000  0.5204790000000 1.0
C      1  0.6070430000000  0.4859900000000  0.4971810000000 1.0
C      1  0.5614130000000  0.5677210000000  0.5765310000000 1.0
C      1  0.5084310000000  0.5531770000000  0.5584810000000 1.0
C      1  0.4550020000000  0.5207900000000  0.5687530000000 1.0
C      1  0.4968000000000  0.4215860000000  0.4296590000000 1.0
C      1  0.5584570000000  0.5228180000000  0.4740770000000 1.0
C      1  0.5591470000000  0.5042450000000  0.5008460000000 1.0
C      1  0.5330600000000  0.5795340000000  0.4843790000000 1.0
C      1  0.4982620000000  0.5368110000000  0.5865160000000 1.0
C      1  0.4143540000000  0.5741210000000  0.5070540000000 1.0
C      1  0.4330450000000  0.4768690000000  0.5888910000000 1.0
C      1  0.4695960000000  0.4966000000000  0.4319370000000 1.0
C      1  0.5410260000000  0.5711620000000  0.4200780000000 1.0
C      1  0.4396100000000  0.4934570000000  0.4487410000000 1.0
C      1  0.5220580000000  0.3760600000000  0.5174650000000 1.0
C      1  0.4596850000000  0.4392930000000  0.5654150000000 1.0
C      1  0.4836740000000  0.4727770000000  0.5949420000000 1.0
C      1  0.4902050000000  0.5646080000000  0.4139170000000 1.0
C      1  0.4982350000000  0.4419210000000  0.5310460000000 1.0
C      1  0.4428140000000  0.4306110000000  0.4182430000000 1.0
C      1  0.5190530000000  0.4658070000000  0.5434130000000 1.0
C      1  0.4715990000000  0.4400510000000  0.4276940000000 1.0
C      1  0.4612390000000  0.5522150000000  0.4090140000000 1.0
C      1  0.4580690000000  0.3942860000000  0.4887880000000 1.0
C      1  0.5532510000000  0.4362240000000  0.5295210000000 1.0
C      1  0.4226270000000  0.4724150000000  0.4694720000000 1.0
C      1  0.4523390000000  0.4677900000000  0.4765410000000 1.0
C      1  0.5124500000000  0.4651170000000  0.4688370000000 1.0
C      1  0.4454730000000  0.5056500000000  0.3858410000000 1.0
C      1  0.4495340000000  0.5324160000000  0.5409740000000 1.0
C      1  0.5668710000000  0.5247390000000  0.4198630000000 1.0
C      1  0.5119080000000  0.5785070000000  0.4361070000000 1.0
C      1  0.5488070000000  0.4000620000000  0.5002120000000 1.0
C      1  0.4478720000000  0.5178310000000  0.4671210000000 1.0
C      1  0.4259460000000  0.4200900000000  0.5008310000000 1.0
C      1  0.5118260000000  0.5659130000000  0.4653880000000 1.0
C      1  0.5747930000000  0.4603940000000  0.4931100000000 1.0
C      1  0.4357120000000  0.4431340000000  0.5356290000000 1.0
C      1  0.4904890000000  0.5379500000000  0.4843480000000 1.0
C      1  0.5201450000000  0.5328580000000  0.4685070000000 1.0
C      1  0.3998640000000  0.4897470000000  0.4853780000000 1.0
C      1  0.6045740000000  0.5200650000000  0.5309050000000 1.0
C      1  0.3970970000000  0.5082570000000  0.5494550000000 1.0
C      1  0.5692080000000  0.5808840000000  0.5539820000000 1.0
C      1  0.5955640000000  0.4367680000000  0.4799300000000 1.0
C      1  0.4111440000000  0.4710580000000  0.4313300000000 1.0
C      1  0.4591900000000  0.5187350000000  0.6081490000000 1.0
C      1  0.4827180000000  0.3923050000000  0.5104520000000 1.0
C      1  0.5780030000000  0.4050720000000  0.5269440000000 1.0
C      1  0.5368760000000  0.6166050000000  0.4702650000000 1.0
C      1  0.5435040000000  0.4957140000000  0.5967180000000 1.0
C      1  0.6071280000000  0.5147290000000  0.4613290000000 1.0
C      1  0.5958140000000  0.4849840000000  0.4492750000000 1.0
C      1  0.4999630000000  0.4448720000000  0.5871280000000 1.0
C      1  0.5999320000000  0.4512450000000  0.4501560000000 1.0
C      1  0.4155540000000  0.4395230000000  0.4749220000000 1.0
C      1  0.5212280000000  0.5152970000000  0.6058590000000 1.0
C      1  0.3983540000000  0.5405340000000  0.5592340000000 1.0
C      1  0.5636820000000  0.5814440000000  0.4432530000000 1.0
C      1  0.4899200000000  0.4741660000000  0.5089300000000 1.0
C      1  0.5399480000000  0.6062510000000  0.5025110000000 1.0
C      1  0.4452550000000  0.5884850000000  0.5586400000000 1.0
C      1  0.4504190000000  0.5594770000000  0.4982390000000 1.0
C      1  0.5311180000000  0.4918130000000  0.3880910000000 1.0
C      1  0.4402610000000  0.5828030000000  0.4490400000000 1.0
C      1  0.4245900000000  0.4729480000000  0.5115260000000 1.0
C      1  0.5307370000000  0.4118060000000  0.4484340000000 1.0
C      1  0.4893010000000  0.5061450000000  0.5985490000000 1.0
C      1  0.5725710000000  0.4640760000000  0.5268440000000 1.0
C      1  0.4136160000000  0.4844130000000  0.5415970000000 1.0
C      1  0.4828580000000  0.5293550000000  0.5134930000000 1.0
C      1  0.5251160000000  0.5483730000000  0.5989820000000 1.0
C      1  0.4934920000000  0.5803620000000  0.4886120000000 1.0
C      1  0.4127810000000  0.5050350000000  0.4313590000000 1.0
C      1  0.4163360000000  0.4417790000000  0.4433090000000 1.0
C      1  0.4787970000000  0.5171660000000  0.4651920000000 1.0
C      1  0.5374480000000  0.4807880000000  0.4860810000000 1.0
C      1  0.5076680000000  0.4782460000000  0.3807150000000 1.0
C      1  0.5559060000000  0.4361090000000  0.5750780000000 1.0
C      1  0.5523080000000  0.4945390000000  0.4587480000000 1.0
C      1  0.5165340000000  0.5861110000000  0.5610300000000 1.0
C      1  0.5457990000000  0.3954170000000  0.5322310000000 1.0
C      1  0.4992240000000  0.4087290000000  0.4608460000000 1.0
C      1  0.5809060000000  0.5423120000000  0.5283370000000 1.0
C      1  0.5297760000000  0.4521110000000  0.4133060000000 1.0
C      1  0.5160420000000  0.5535110000000  0.4054530000000 1.0
C      1  0.4526150000000  0.4283910000000  0.4829330000000 1.0
C      1  0.5623110000000  0.5806370000000  0.5006980000000 1.0
C      1  0.4074800000000  0.5472430000000  0.4674440000000 1.0
C      1  0.4979280000000  0.4515570000000  0.4129850000000 1.0
C      1  0.5470710000000  0.5187830000000  0.5756620000000 1.0
C      1  0.4123340000000  0.5338790000000  0.4223930000000 1.0
C      1  0.5664150000000  0.4229340000000  0.4822430000000 1.0
C      1  0.5189090000000  0.5190950000000  0.4255450000000 1.0
C      1  0.4173910000000  0.5852540000000  0.5579730000000 1.0
C      1  0.3926520000000  0.4894330000000  0.4531620000000 1.0
C      1  0.4576130000000  0.5456060000000  0.5893970000000 1.0
C      1  0.5944670000000  0.4222800000000  0.5107340000000 1.0
C      1  0.5242080000000  0.5936710000000  0.5287560000000 1.0
C      1  0.4839250000000  0.4438080000000  0.5024060000000 1.0
C      1  0.5857960000000  0.5366610000000  0.4634680000000 1.0
C      1  0.4027510000000  0.5440830000000  0.4989430000000 1.0
C      1  0.5208540000000  0.5224560000000  0.5543380000000 1.0
C      1  0.4224530000000  0.4591350000000  0.5625580000000 1.0
C      1  0.5301490000000  0.5543460000000  0.5323180000000 1.0
C      1  0.4538540000000  0.4658620000000  0.6094500000000 1.0
C      1  0.4673390000000  0.4306580000000  0.5362570000000 1.0
C      1  0.5470110000000  0.5513210000000  0.4782090000000 1.0
C      1  0.5250420000000  0.5248420000000  0.5011940000000 1.0
C      1  0.5235100000000  0.5237080000000  0.3921710000000 1.0
C      1  0.5607360000000  0.5664550000000  0.5268300000000 1.0
C      1  0.5721800000000  0.5403350000000  0.5782410000000 1.0
C      1  0.5075730000000  0.5095860000000  0.5260620000000 1.0
C      1  0.5665850000000  0.4221510000000  0.5531290000000 1.0
C      1  0.4601660000000  0.4694740000000  0.5704670000000 1.0
C      1  0.4676660000000  0.5890840000000  0.4682900000000 1.0
C      1  0.4812280000000  0.4252170000000  0.5779220000000 1.0
C      1  0.4920030000000  0.4873060000000  0.5464930000000 1.0
C      1  0.5513650000000  0.3986630000000  0.4662710000000 1.0
C      1  0.4722890000000  0.6055520000000  0.4976770000000 1.0
C      1  0.5259380000000  0.4279480000000  0.5203230000000 1.0
C      1  0.5846550000000  0.5112940000000  0.5644350000000 1.0
C      1  0.4327600000000  0.5076520000000  0.5891750000000 1.0
C      1  0.5341890000000  0.5447220000000  0.4398910000000 1.0
C      1  0.4395590000000  0.5972770000000  0.5045290000000 1.0
C      1  0.4322100000000  0.5521050000000  0.5250220000000 1.0
C      1  0.4675050000000  0.4701600000000  0.5312380000000 1.0
C      1  0.3989480000000  0.4539660000000  0.5376340000000 1.0
C      1  0.6023340000000  0.4894910000000  0.5580770000000 1.0
C      1  0.4839220000000  0.4814660000000  0.4048440000000 1.0
C      1  0.6015470000000  0.5387490000000  0.5620940000000 1.0
C      1  0.5245740000000  0.4205730000000  0.4892560000000 1.0
C      1  0.3871680000000  0.5265070000000  0.5235910000000 1.0
C      1  0.4749820000000  0.5517430000000  0.5535380000000 1.0
C      1  0.4852290000000  0.4842630000000  0.4595020000000 1.0
C      1  0.4813530000000  0.6108540000000  0.5300240000000 1.0
C      1  0.6202310000000  0.5095780000000  0.4862870000000 1.0
C      1  0.5487920000000  0.5031230000000  0.4284580000000 1.0
C      1  0.5764060000000  0.4647460000000  0.4297510000000 1.0
C      1  0.4098920000000  0.5609970000000  0.5460110000000 1.0
C      1  0.5364310000000  0.5981160000000  0.4491520000000 1.0
C      1  0.5492960000000  0.4499120000000  0.4781790000000 1.0
C      1  0.4847770000000  0.5253260000000  0.4269660000000 1.0
C      1  0.4408910000000  0.4644140000000  0.4214070000000 1.0
C      1  0.4470010000000  0.4891390000000  0.5459970000000 1.0
C      1  0.4681070000000  0.5556990000000  0.4704340000000 1.0
C      1  0.5566530000000  0.5068160000000  0.5478190000000 1.0
C      1  0.6261690000000  0.5254190000000  0.5094100000000 1.0
C      1  0.5136130000000  0.5021320000000  0.4538630000000 1.0
C      1  0.4626510000000  0.5263320000000  0.3924150000000 1.0
C      1  0.4900310000000  0.4028500000000  0.5622860000000 1.0
C      1  0.5672040000000  0.4773550000000  0.6088900000000 1.0
C      1  0.4980840000000  0.6126650000000  0.5515450000000 1.0
C      1  0.4581460000000  0.5896850000000  0.5312240000000 1.0
C      1  0.5098880000000  0.3917550000000  0.4897850000000 1.0
C      1  0.5236660000000  0.4738120000000  0.4379400000000 1.0
C      1  0.5349430000000  0.5694840000000  0.5835410000000 1.0
C      1  0.5530650000000  0.4681090000000  0.5793100000000 1.0
C      1  0.5797940000000  0.4894160000000  0.4781110000000 1.0
C      1  0.5063810000000  0.4029060000000  0.5324620000000 1.0
C      1  0.5506780000000  0.4773850000000  0.5482200000000 1.0
C      1  0.4305710000000  0.5781420000000  0.4778970000000 1.0
C      1  0.4801060000000  0.5042310000000  0.5673010000000 1.0
C      1  0.4916910000000  0.5135850000000  0.3968010000000 1.0
C      1  0.5237360000000  0.4431810000000  0.5684110000000 1.0
C      1  0.4648820000000  0.5457120000000  0.4415270000000 1.0
C      1  0.4629720000000  0.4609970000000  0.4481320000000 1.0
C      1  0.5194100000000  0.4805990000000  0.5127950000000 1.0
C      1  0.4513630000000  0.4525020000000  0.5069070000000 1.0
C      1  0.4535140000000  0.4095880000000  0.5178910000000 1.0
C      1  0.4715410000000  0.4874520000000  0.4904630000000 1.0
C      1  0.5285950000000  0.4116100000000  0.5566940000000 1.0
C      1  0.4740770000000  0.5610420000000  0.5221530000000 1.0
C      1  0.4675910000000  0.4003440000000  0.4592950000000 1.0
C      1  0.4108140000000  0.5119320000000  0.5056960000000 1.0
C      1  0.5999870000000  0.4440060000000  0.5281320000000 1.0
C      1  0.5390730000000  0.4246480000000  0.4180640000000 1.0
END
