TITL C-2847947-6848-220 0.000423403550370472 125000 -403.087152684455 0 0 74 (C1) n - 1
REM
REM in /home/bkarasulu/work/CARBON/AIRSS/Generating-Clusters/AIREBO/with-SteepDescent/Only-C1/SD-CG-opt/Try1-1.4A-POS3A/HFTN-CG
REM
REM
REM
REM
REM
REM ./C.cell (11c1c37f851c82e70ff6c80c92926a4b)
REM
REM compiler GCC version 9.2.1 20190827 (Red Hat 9.2.1-1)
REM options -cpp -mtune=generic -march=x86-64 -g -O0 -fpre-include=/usr/include/finclude/math-vector-fortran.h
REM seed 2022394229 1396978208 -2107101600 -1871808442 -1478260725 1369585480 1127202027 574632803 1119745476 -896526142 1561247091 1401685218 -335461832 -179752756 -912447800 -1869884050 -1330374836 1125147941 -1234415616 -1275968139 -433688277 1202903023 -851916278 370908422 -2016302171 -239527556 -1098751635 430559142 -1218039673 598976778 -963807331 -1493451262 -215568313
REM
CELL 1.54180   50.00000   50.00000   50.00000   90.00000   90.00000   90.00000
LATT -1
SFAC C  
C      1  0.5500150000000  0.4659870000000  0.5116330000000 1.0
C      1  0.4231540000000  0.5111160000000  0.5034050000000 1.0
C      1  0.5583020000000  0.4855610000000  0.4709020000000 1.0
C      1  0.5071820000000  0.4950910000000  0.4972870000000 1.0
C      1  0.5638330000000  0.5046120000000  0.5506650000000 1.0
C      1  0.5016970000000  0.5085110000000  0.5710260000000 1.0
C      1  0.4701210000000  0.5081250000000  0.5607300000000 1.0
C      1  0.4308000000000  0.4577150000000  0.5070060000000 1.0
C      1  0.5927230000000  0.4877660000000  0.5080710000000 1.0
C      1  0.4990870000000  0.5534720000000  0.4450760000000 1.0
C      1  0.4852720000000  0.5774150000000  0.4476500000000 1.0
C      1  0.5345990000000  0.4925020000000  0.5263170000000 1.0
C      1  0.4797500000000  0.4675490000000  0.4450230000000 1.0
C      1  0.4702440000000  0.4567420000000  0.5038340000000 1.0
C      1  0.5165260000000  0.4736390000000  0.5435380000000 1.0
C      1  0.4772210000000  0.4225440000000  0.4633810000000 1.0
C      1  0.4471740000000  0.4717780000000  0.4538310000000 1.0
C      1  0.5512250000000  0.5038420000000  0.4989120000000 1.0
C      1  0.4494740000000  0.5357450000000  0.4672340000000 1.0
C      1  0.4928870000000  0.4905910000000  0.4234960000000 1.0
C      1  0.5234040000000  0.5229160000000  0.5032570000000 1.0
C      1  0.4893780000000  0.4660140000000  0.5303740000000 1.0
C      1  0.4542800000000  0.5298240000000  0.4395350000000 1.0
C      1  0.4811280000000  0.5158050000000  0.4289490000000 1.0
C      1  0.5169160000000  0.4699310000000  0.5972990000000 1.0
C      1  0.5178820000000  0.4775710000000  0.4387820000000 1.0
C      1  0.4775130000000  0.4363580000000  0.4394830000000 1.0
C      1  0.5360790000000  0.4419400000000  0.4681390000000 1.0
C      1  0.5259050000000  0.5510020000000  0.4389350000000 1.0
C      1  0.5158910000000  0.5175270000000  0.4727550000000 1.0
C      1  0.5765560000000  0.5373710000000  0.5006400000000 1.0
C      1  0.4761060000000  0.5456470000000  0.4854690000000 1.0
C      1  0.4796270000000  0.5969000000000  0.4659890000000 1.0
C      1  0.5536530000000  0.4589890000000  0.5435850000000 1.0
C      1  0.4607390000000  0.4831930000000  0.4894090000000 1.0
C      1  0.4721250000000  0.5935480000000  0.4922890000000 1.0
C      1  0.4262560000000  0.4846220000000  0.5239830000000 1.0
C      1  0.5657620000000  0.5362380000000  0.4764400000000 1.0
C      1  0.5425600000000  0.4653310000000  0.4544960000000 1.0
C      1  0.5223680000000  0.5682190000000  0.5194940000000 1.0
C      1  0.5646730000000  0.5116870000000  0.4563470000000 1.0
C      1  0.4832660000000  0.5615760000000  0.5339520000000 1.0
C      1  0.4873060000000  0.5340140000000  0.5536510000000 1.0
C      1  0.5762540000000  0.5118070000000  0.5205170000000 1.0
C      1  0.5385800000000  0.5318640000000  0.4572660000000 1.0
C      1  0.5141460000000  0.4362430000000  0.4932700000000 1.0
C      1  0.4303080000000  0.4906080000000  0.4847680000000 1.0
C      1  0.4503770000000  0.4360230000000  0.5220830000000 1.0
C      1  0.5342590000000  0.5490590000000  0.5416860000000 1.0
C      1  0.4781160000000  0.4942950000000  0.5151130000000 1.0
C      1  0.4876450000000  0.5256080000000  0.4608570000000 1.0
C      1  0.4826550000000  0.4325870000000  0.5322180000000 1.0
C      1  0.4505280000000  0.4830820000000  0.5701270000000 1.0
C      1  0.5395870000000  0.5640580000000  0.4193030000000 1.0
C      1  0.4713870000000  0.4957250000000  0.4621360000000 1.0
C      1  0.4419550000000  0.5311890000000  0.4987380000000 1.0
C      1  0.4043740000000  0.4824720000000  0.5417580000000 1.0
C      1  0.4341960000000  0.4181410000000  0.5362640000000 1.0
C      1  0.5205770000000  0.4844510000000  0.5737400000000 1.0
C      1  0.5518120000000  0.4813610000000  0.5605980000000 1.0
C      1  0.4722890000000  0.5273490000000  0.5138700000000 1.0
C      1  0.5303240000000  0.5906900000000  0.5072280000000 1.0
C      1  0.5425310000000  0.5233740000000  0.5383400000000 1.0
C      1  0.4291900000000  0.4606180000000  0.4756660000000 1.0
C      1  0.5226250000000  0.4679890000000  0.4952340000000 1.0
C      1  0.5092670000000  0.5577420000000  0.5555210000000 1.0
C      1  0.5278430000000  0.4429040000000  0.5397810000000 1.0
C      1  0.5037130000000  0.5398240000000  0.5176750000000 1.0
C      1  0.4848600000000  0.4358330000000  0.4855990000000 1.0
C      1  0.5052820000000  0.4687760000000  0.4674460000000 1.0
C      1  0.4532240000000  0.4900320000000  0.5378950000000 1.0
C      1  0.5111470000000  0.4281360000000  0.5233520000000 1.0
C      1  0.4757950000000  0.5700110000000  0.5049570000000 1.0
C      1  0.5744930000000  0.4716220000000  0.4947230000000 1.0
END
