TITL C-2848505-4874-520 -0.00135971878388764 125000 -534.913375735916 0 0 98 (C1) n - 1
REM
REM in /home/bkarasulu/work/CARBON/AIRSS/Generating-Clusters/AIREBO/with-SteepDescent/Only-C1/SD-CG-opt/Try1-1.4A-POS3A/HFTN-CG
REM
REM
REM
REM
REM
REM ./C.cell (11c1c37f851c82e70ff6c80c92926a4b)
REM
REM compiler GCC version 9.2.1 20190827 (Red Hat 9.2.1-1)
REM options -cpp -mtune=generic -march=x86-64 -g -O0 -fpre-include=/usr/include/finclude/math-vector-fortran.h
REM seed 1302556429 126205687 -1696331608 -229671191 2073362769 -1899943803 -478379117 -1629797927 574976355 1961744708 -1767885208 1786118660 -351709231 1248158770 925518746 -662312634 -1474135858 -662283049 -977549187 1408524899 622806723 810909325 585422021 -57648540 1733539854 1385113011 1618972042 -367947516 -1113550432 -1524377307 -525775256 1278727292 -1631085610
REM
CELL 1.54180   50.00000   50.00000   50.00000   90.00000   90.00000   90.00000
LATT -1
SFAC C  
C      1  0.5273460000000  0.4356700000000  0.5096280000000 1.0
C      1  0.4318190000000  0.4871660000000  0.4480610000000 1.0
C      1  0.4701340000000  0.4336810000000  0.4616170000000 1.0
C      1  0.4813660000000  0.4354350000000  0.5593140000000 1.0
C      1  0.5563610000000  0.5586570000000  0.4547170000000 1.0
C      1  0.4863730000000  0.4533020000000  0.5240820000000 1.0
C      1  0.4239620000000  0.4715660000000  0.5405950000000 1.0
C      1  0.4690890000000  0.5716390000000  0.5284710000000 1.0
C      1  0.4871220000000  0.5313870000000  0.5769390000000 1.0
C      1  0.4160640000000  0.5410810000000  0.4932060000000 1.0
C      1  0.5611010000000  0.5747290000000  0.4789250000000 1.0
C      1  0.4490240000000  0.5113260000000  0.4312400000000 1.0
C      1  0.4276270000000  0.4704130000000  0.4744270000000 1.0
C      1  0.5506300000000  0.5612440000000  0.5308610000000 1.0
C      1  0.4747730000000  0.5182480000000  0.4259310000000 1.0
C      1  0.5614090000000  0.4479570000000  0.4932100000000 1.0
C      1  0.5305700000000  0.5267400000000  0.5318740000000 1.0
C      1  0.5074180000000  0.5500130000000  0.5707240000000 1.0
C      1  0.4630050000000  0.4987540000000  0.5108660000000 1.0
C      1  0.4696330000000  0.4434450000000  0.4346660000000 1.0
C      1  0.5138530000000  0.5861210000000  0.5071360000000 1.0
C      1  0.5365210000000  0.5407510000000  0.4844200000000 1.0
C      1  0.5801700000000  0.5117500000000  0.5353660000000 1.0
C      1  0.5287030000000  0.5112260000000  0.5853330000000 1.0
C      1  0.5286900000000  0.4407250000000  0.4352500000000 1.0
C      1  0.5731240000000  0.4591300000000  0.4481120000000 1.0
C      1  0.5844060000000  0.4971670000000  0.4871310000000 1.0
C      1  0.4820390000000  0.4706620000000  0.4687590000000 1.0
C      1  0.4550800000000  0.5431490000000  0.4673120000000 1.0
C      1  0.4543290000000  0.4559450000000  0.4818840000000 1.0
C      1  0.5076900000000  0.4779370000000  0.4846020000000 1.0
C      1  0.4953010000000  0.4157840000000  0.5362360000000 1.0
C      1  0.5736640000000  0.5486020000000  0.5213760000000 1.0
C      1  0.4890340000000  0.4896140000000  0.6091420000000 1.0
C      1  0.5260560000000  0.4034590000000  0.4990390000000 1.0
C      1  0.5253760000000  0.4183740000000  0.5360910000000 1.0
C      1  0.5328050000000  0.5348510000000  0.5640200000000 1.0
C      1  0.5701240000000  0.5345400000000  0.4503690000000 1.0
C      1  0.5112490000000  0.5505040000000  0.4260550000000 1.0
C      1  0.5018530000000  0.5546610000000  0.4702900000000 1.0
C      1  0.4901110000000  0.5281450000000  0.4788670000000 1.0
C      1  0.4388970000000  0.4421500000000  0.5693180000000 1.0
C      1  0.5127410000000  0.4636300000000  0.5119560000000 1.0
C      1  0.4868600000000  0.4686230000000  0.4297170000000 1.0
C      1  0.5334060000000  0.4680290000000  0.4737190000000 1.0
C      1  0.4915780000000  0.5407990000000  0.5166460000000 1.0
C      1  0.5592900000000  0.5096670000000  0.4589010000000 1.0
C      1  0.4982740000000  0.5032340000000  0.5869660000000 1.0
C      1  0.4901520000000  0.5089020000000  0.5253330000000 1.0
C      1  0.4017130000000  0.4713270000000  0.5204300000000 1.0
C      1  0.5345150000000  0.4352360000000  0.4763930000000 1.0
C      1  0.4144150000000  0.4829870000000  0.4956120000000 1.0
C      1  0.5570260000000  0.4814450000000  0.4892690000000 1.0
C      1  0.5046490000000  0.5755040000000  0.5594600000000 1.0
C      1  0.3767800000000  0.4622050000000  0.5233830000000 1.0
C      1  0.5008610000000  0.3966520000000  0.4991850000000 1.0
C      1  0.4503340000000  0.4529850000000  0.5413200000000 1.0
C      1  0.4790970000000  0.4679160000000  0.5539790000000 1.0
C      1  0.5218340000000  0.5029140000000  0.5140500000000 1.0
C      1  0.4701090000000  0.5508120000000  0.4944590000000 1.0
C      1  0.4614950000000  0.4212040000000  0.5366730000000 1.0
C      1  0.5651660000000  0.4419940000000  0.5209660000000 1.0
C      1  0.5045430000000  0.4515140000000  0.4518580000000 1.0
C      1  0.5352690000000  0.5068030000000  0.4828260000000 1.0
C      1  0.4215370000000  0.5190170000000  0.4467370000000 1.0
C      1  0.4850250000000  0.4973120000000  0.5562170000000 1.0
C      1  0.4618930000000  0.5135170000000  0.4832480000000 1.0
C      1  0.4982140000000  0.4984660000000  0.4326210000000 1.0
C      1  0.5062930000000  0.5047530000000  0.4651210000000 1.0
C      1  0.4633130000000  0.5237370000000  0.5589200000000 1.0
C      1  0.5227770000000  0.5537950000000  0.5128130000000 1.0
C      1  0.4874350000000  0.5796060000000  0.4639860000000 1.0
C      1  0.4256550000000  0.5364410000000  0.4681580000000 1.0
C      1  0.5359080000000  0.4777980000000  0.5287160000000 1.0
C      1  0.4613700000000  0.5413180000000  0.5322550000000 1.0
C      1  0.5443840000000  0.5893010000000  0.4944240000000 1.0
C      1  0.5011530000000  0.4286130000000  0.4751880000000 1.0
C      1  0.4955250000000  0.5987540000000  0.4833860000000 1.0
C      1  0.5608950000000  0.4670380000000  0.5346490000000 1.0
C      1  0.5692800000000  0.5457360000000  0.4902000000000 1.0
C      1  0.4338260000000  0.5187040000000  0.5494840000000 1.0
C      1  0.5588400000000  0.5227100000000  0.5480070000000 1.0
C      1  0.5856060000000  0.5208340000000  0.5056160000000 1.0
C      1  0.5270100000000  0.5518330000000  0.4536250000000 1.0
C      1  0.4830230000000  0.5454080000000  0.4274170000000 1.0
C      1  0.5204190000000  0.5025170000000  0.4153830000000 1.0
C      1  0.4597640000000  0.4912860000000  0.4640860000000 1.0
C      1  0.5541800000000  0.4188280000000  0.5340120000000 1.0
C      1  0.4697330000000  0.5606010000000  0.4474010000000 1.0
C      1  0.4594500000000  0.4658690000000  0.5111890000000 1.0
C      1  0.5788110000000  0.4855140000000  0.4562510000000 1.0
C      1  0.4310750000000  0.4983970000000  0.5214490000000 1.0
C      1  0.4852780000000  0.4251050000000  0.5051050000000 1.0
C      1  0.4551650000000  0.5798140000000  0.5042890000000 1.0
C      1  0.4314590000000  0.5322660000000  0.5183890000000 1.0
C      1  0.5539430000000  0.4382730000000  0.4486490000000 1.0
C      1  0.5826670000000  0.4841860000000  0.5409670000000 1.0
C      1  0.4950820000000  0.5805690000000  0.5334800000000 1.0
END
