TITL C-2848501-3133-676 -0.00103740523033554 125000 -148.181392761844 0 0 28 (C1) n - 1
REM
REM in /home/bkarasulu/work/CARBON/AIRSS/Generating-Clusters/AIREBO/with-SteepDescent/Only-C1/SD-CG-opt/Try1-1.4A-POS3A/HFTN-CG
REM
REM
REM
REM
REM
REM ./C.cell (11c1c37f851c82e70ff6c80c92926a4b)
REM
REM compiler GCC version 9.2.1 20190827 (Red Hat 9.2.1-1)
REM options -cpp -mtune=generic -march=x86-64 -g -O0 -fpre-include=/usr/include/finclude/math-vector-fortran.h
REM seed 781179985 1464725 -658820744 1510103222 1378468845 -114107390 493606015 1499608692 1073431803 -280621065 -1240961510 134901514 -1689438593 1893159699 85523601 -883796845 882015288 1782372717 -603326185 -52143180 936483620 -306854762 1494313663 -711082391 -282268768 1666288726 -1866674569 -242808799 1487391097 -1200167489 -810523180 1581435823 1873185329
REM
CELL 1.54180   50.00000   50.00000   50.00000   90.00000   90.00000   90.00000
LATT -1
SFAC C  
C      1  0.4682090000000  0.5345820000000  0.5312240000000 1.0
C      1  0.4971260000000  0.4642710000000  0.5486370000000 1.0
C      1  0.4959520000000  0.4957100000000  0.5469560000000 1.0
C      1  0.5211120000000  0.5003670000000  0.4615260000000 1.0
C      1  0.4995650000000  0.5137260000000  0.4836520000000 1.0
C      1  0.5144400000000  0.5524060000000  0.5184480000000 1.0
C      1  0.4727720000000  0.5059950000000  0.5587620000000 1.0
C      1  0.5338050000000  0.4867970000000  0.5159360000000 1.0
C      1  0.4687810000000  0.4992780000000  0.4462730000000 1.0
C      1  0.5339520000000  0.5267890000000  0.4684360000000 1.0
C      1  0.4919910000000  0.5289870000000  0.5217210000000 1.0
C      1  0.5148150000000  0.4598660000000  0.4828500000000 1.0
C      1  0.5210700000000  0.5384620000000  0.4919350000000 1.0
C      1  0.4658710000000  0.4681890000000  0.4571640000000 1.0
C      1  0.5225800000000  0.5118120000000  0.5523410000000 1.0
C      1  0.4899940000000  0.4677420000000  0.5011820000000 1.0
C      1  0.5378480000000  0.4646320000000  0.4990520000000 1.0
C      1  0.5217360000000  0.5382960000000  0.5467370000000 1.0
C      1  0.5014290000000  0.4973830000000  0.5134200000000 1.0
C      1  0.4712210000000  0.5130730000000  0.4721430000000 1.0
C      1  0.5436340000000  0.4970880000000  0.5402240000000 1.0
C      1  0.4640970000000  0.4716410000000  0.4860470000000 1.0
C      1  0.4896360000000  0.4515840000000  0.5279560000000 1.0
C      1  0.5151400000000  0.4732560000000  0.4578010000000 1.0
C      1  0.4527670000000  0.4987770000000  0.4909340000000 1.0
C      1  0.4929170000000  0.4681640000000  0.4407410000000 1.0
C      1  0.5125010000000  0.5799590000000  0.5178290000000 1.0
C      1  0.4850370000000  0.4911670000000  0.4200760000000 1.0
END
