TITL C-2847944-5688-311 0.000160930876560885 125000 -276.705108835663 0 0 50 (C1) n - 1
REM
REM in /home/bkarasulu/work/CARBON/AIRSS/Generating-Clusters/AIREBO/with-SteepDescent/Only-C1/SD-CG-opt/Try1-1.4A-POS3A/HFTN-CG
REM
REM
REM
REM
REM
REM ./C.cell (11c1c37f851c82e70ff6c80c92926a4b)
REM
REM compiler GCC version 9.2.1 20190827 (Red Hat 9.2.1-1)
REM options -cpp -mtune=generic -march=x86-64 -g -O0 -fpre-include=/usr/include/finclude/math-vector-fortran.h
REM seed 96191134 -1662973461 1759567788 310990019 -675064515 -1718197557 1840472358 1176407133 -432603662 -1590077634 1447973268 1785895177 2094371266 199403141 -1394230257 1514968989 -2079053351 288523421 219809372 -1541105310 -2083013167 -1200771738 -226443250 1711340519 1439207570 -1774630059 -142777589 -1779792027 -371329613 2018036968 397978529 1037329509 -334276145
REM
CELL 1.54180   50.00000   50.00000   50.00000   90.00000   90.00000   90.00000
LATT -1
SFAC C  
C      1  0.4905200000000  0.4886150000000  0.5667090000000 1.0
C      1  0.4438540000000  0.5073400000000  0.5027850000000 1.0
C      1  0.5567700000000  0.4838080000000  0.4933680000000 1.0
C      1  0.4896420000000  0.5160030000000  0.5652480000000 1.0
C      1  0.4882470000000  0.4729980000000  0.5430730000000 1.0
C      1  0.5436830000000  0.4987240000000  0.5442200000000 1.0
C      1  0.4955790000000  0.5790750000000  0.4634830000000 1.0
C      1  0.5280140000000  0.5177740000000  0.4677770000000 1.0
C      1  0.5957230000000  0.5612190000000  0.4736040000000 1.0
C      1  0.4604170000000  0.5350430000000  0.5098900000000 1.0
C      1  0.4392960000000  0.4637160000000  0.5318310000000 1.0
C      1  0.4323100000000  0.4611840000000  0.4772290000000 1.0
C      1  0.5584120000000  0.5421060000000  0.5351160000000 1.0
C      1  0.4407640000000  0.4191910000000  0.4208230000000 1.0
C      1  0.4189300000000  0.4543390000000  0.4553730000000 1.0
C      1  0.4915690000000  0.5429990000000  0.5028620000000 1.0
C      1  0.4864040000000  0.4654410000000  0.4907010000000 1.0
C      1  0.4728270000000  0.5107450000000  0.4896600000000 1.0
C      1  0.5417450000000  0.5267770000000  0.5503890000000 1.0
C      1  0.4584640000000  0.4554400000000  0.4974820000000 1.0
C      1  0.4836680000000  0.4910180000000  0.4741570000000 1.0
C      1  0.5838350000000  0.4836330000000  0.4998420000000 1.0
C      1  0.5116870000000  0.5350290000000  0.5509360000000 1.0
C      1  0.5259340000000  0.4986480000000  0.5181420000000 1.0
C      1  0.5065340000000  0.5326040000000  0.4496300000000 1.0
C      1  0.5413130000000  0.4687080000000  0.4420900000000 1.0
C      1  0.5021370000000  0.4418190000000  0.4770200000000 1.0
C      1  0.5757710000000  0.5529450000000  0.4871960000000 1.0
C      1  0.4355540000000  0.4794790000000  0.5044530000000 1.0
C      1  0.5054810000000  0.4735790000000  0.5176470000000 1.0
C      1  0.5175630000000  0.4801310000000  0.4341650000000 1.0
C      1  0.5140920000000  0.5276370000000  0.5208350000000 1.0
C      1  0.4800680000000  0.5449210000000  0.5545760000000 1.0
C      1  0.5346620000000  0.4617270000000  0.5062830000000 1.0
C      1  0.5537760000000  0.5408450000000  0.5042420000000 1.0
C      1  0.5471260000000  0.4634810000000  0.4688300000000 1.0
C      1  0.4796340000000  0.5786840000000  0.5202510000000 1.0
C      1  0.4989040000000  0.5742090000000  0.4937250000000 1.0
C      1  0.4307120000000  0.4372640000000  0.4369250000000 1.0
C      1  0.5425210000000  0.5124460000000  0.4928070000000 1.0
C      1  0.5595650000000  0.4802640000000  0.5561530000000 1.0
C      1  0.5012270000000  0.5589870000000  0.4456050000000 1.0
C      1  0.4930190000000  0.4760790000000  0.5905440000000 1.0
C      1  0.5298150000000  0.4427600000000  0.4828170000000 1.0
C      1  0.5041020000000  0.4995780000000  0.4537740000000 1.0
C      1  0.5242810000000  0.5523940000000  0.4997370000000 1.0
C      1  0.4569490000000  0.4292530000000  0.5126490000000 1.0
C      1  0.4682330000000  0.5564210000000  0.5322300000000 1.0
C      1  0.4643670000000  0.4586930000000  0.5408830000000 1.0
C      1  0.3943000000000  0.4642270000000  0.4502320000000 1.0
END
