TITL C-2848498-1409-413 -0.00255127473883284 125000 -600.671957064663 0 0 109 (C1) n - 1
REM
REM in /home/bkarasulu/work/CARBON/AIRSS/Generating-Clusters/AIREBO/with-SteepDescent/Only-C1/SD-CG-opt/Try1-1.4A-POS3A/HFTN-CG
REM
REM
REM
REM
REM
REM ./C.cell (11c1c37f851c82e70ff6c80c92926a4b)
REM
REM compiler GCC version 9.2.1 20190827 (Red Hat 9.2.1-1)
REM options -cpp -mtune=generic -march=x86-64 -g -O0 -fpre-include=/usr/include/finclude/math-vector-fortran.h
REM seed 1245464240 -632650812 1719183790 101584344 865747451 1648976076 -666718988 1845520922 926076438 1331308446 742081874 641607362 864621756 515234628 -563023798 -320858192 -1439432919 1720347714 874833046 -257091172 1753906275 1292044752 373142466 -358230733 938070939 -97374377 -1823342146 -1862100218 -1843668809 -741221769 -1168575376 853106721 -1983103554
REM
CELL 1.54180   50.00000   50.00000   50.00000   90.00000   90.00000   90.00000
LATT -1
SFAC C  
C      1  0.4221460000000  0.4502210000000  0.5504270000000 1.0
C      1  0.4523180000000  0.4692140000000  0.5281100000000 1.0
C      1  0.4520790000000  0.5277480000000  0.5197300000000 1.0
C      1  0.5241360000000  0.4394680000000  0.5625250000000 1.0
C      1  0.4850090000000  0.5117900000000  0.5512390000000 1.0
C      1  0.4591350000000  0.4831060000000  0.4995630000000 1.0
C      1  0.4639130000000  0.5521490000000  0.5642280000000 1.0
C      1  0.4620430000000  0.5675460000000  0.4808490000000 1.0
C      1  0.4851050000000  0.4139740000000  0.4846590000000 1.0
C      1  0.4261220000000  0.4897500000000  0.4602750000000 1.0
C      1  0.5891620000000  0.4808970000000  0.5287370000000 1.0
C      1  0.4321990000000  0.4722280000000  0.4818140000000 1.0
C      1  0.4832380000000  0.4773530000000  0.5518870000000 1.0
C      1  0.5007610000000  0.5572610000000  0.4270980000000 1.0
C      1  0.5172680000000  0.4391330000000  0.5300790000000 1.0
C      1  0.5921700000000  0.4817910000000  0.4949970000000 1.0
C      1  0.5323840000000  0.5872420000000  0.4995460000000 1.0
C      1  0.4360740000000  0.5099000000000  0.4217090000000 1.0
C      1  0.4496290000000  0.5300250000000  0.5725080000000 1.0
C      1  0.5047310000000  0.4696380000000  0.4125890000000 1.0
C      1  0.5363980000000  0.4882500000000  0.4814950000000 1.0
C      1  0.5445880000000  0.5567690000000  0.5022230000000 1.0
C      1  0.5433690000000  0.5462120000000  0.5319380000000 1.0
C      1  0.4795020000000  0.4631300000000  0.4817850000000 1.0
C      1  0.5685650000000  0.5264870000000  0.4366920000000 1.0
C      1  0.4884960000000  0.5913070000000  0.5495080000000 1.0
C      1  0.4523970000000  0.5099320000000  0.5479980000000 1.0
C      1  0.4760470000000  0.4701860000000  0.5820150000000 1.0
C      1  0.5545130000000  0.4488520000000  0.5089370000000 1.0
C      1  0.5185160000000  0.5419580000000  0.4124160000000 1.0
C      1  0.4442040000000  0.5397130000000  0.4359110000000 1.0
C      1  0.4874040000000  0.4985800000000  0.4124100000000 1.0
C      1  0.5095690000000  0.4911590000000  0.5399410000000 1.0
C      1  0.5973380000000  0.5645420000000  0.4317590000000 1.0
C      1  0.5175120000000  0.5115110000000  0.4215150000000 1.0
C      1  0.5458570000000  0.5017620000000  0.4282460000000 1.0
C      1  0.4703480000000  0.4194660000000  0.4543500000000 1.0
C      1  0.5487900000000  0.4708250000000  0.4299680000000 1.0
C      1  0.5060920000000  0.4989650000000  0.4951580000000 1.0
C      1  0.4529490000000  0.5640270000000  0.5420860000000 1.0
C      1  0.5836880000000  0.5468420000000  0.4467200000000 1.0
C      1  0.4366690000000  0.4436580000000  0.4746470000000 1.0
C      1  0.4780660000000  0.5879910000000  0.5226460000000 1.0
C      1  0.5357380000000  0.5083710000000  0.5089010000000 1.0
C      1  0.4521910000000  0.4401940000000  0.4512780000000 1.0
C      1  0.5696240000000  0.5197110000000  0.5587000000000 1.0
C      1  0.4337790000000  0.4820240000000  0.5535750000000 1.0
C      1  0.5788440000000  0.4835170000000  0.4661690000000 1.0
C      1  0.4064540000000  0.4980150000000  0.5433030000000 1.0
C      1  0.5810200000000  0.5079020000000  0.5356480000000 1.0
C      1  0.5247950000000  0.4569240000000  0.4260930000000 1.0
C      1  0.4960430000000  0.5362910000000  0.5116150000000 1.0
C      1  0.4688750000000  0.5567120000000  0.5129360000000 1.0
C      1  0.5333930000000  0.4631900000000  0.4669190000000 1.0
C      1  0.5709100000000  0.5410210000000  0.4972510000000 1.0
C      1  0.4723420000000  0.3897440000000  0.4645070000000 1.0
C      1  0.5639340000000  0.5485900000000  0.5579340000000 1.0
C      1  0.5093320000000  0.4766740000000  0.5849600000000 1.0
C      1  0.5850910000000  0.5468070000000  0.4750200000000 1.0
C      1  0.4651770000000  0.5157690000000  0.4600530000000 1.0
C      1  0.4376990000000  0.5140830000000  0.4658250000000 1.0
C      1  0.5162250000000  0.4114040000000  0.4899890000000 1.0
C      1  0.4228480000000  0.4716670000000  0.5113300000000 1.0
C      1  0.4835330000000  0.5373150000000  0.4411950000000 1.0
C      1  0.5063390000000  0.5608880000000  0.5307490000000 1.0
C      1  0.4514270000000  0.4615210000000  0.4310250000000 1.0
C      1  0.4444080000000  0.5532450000000  0.4635260000000 1.0
C      1  0.4233040000000  0.4424360000000  0.5219760000000 1.0
C      1  0.5045770000000  0.5749570000000  0.5677070000000 1.0
C      1  0.5336320000000  0.4681880000000  0.5369610000000 1.0
C      1  0.4409660000000  0.4317890000000  0.5008460000000 1.0
C      1  0.5361330000000  0.5683330000000  0.5567320000000 1.0
C      1  0.5215560000000  0.5403240000000  0.4895020000000 1.0
C      1  0.4253080000000  0.5360460000000  0.4814430000000 1.0
C      1  0.5036810000000  0.5129440000000  0.4517090000000 1.0
C      1  0.5606450000000  0.4785320000000  0.5013380000000 1.0
C      1  0.4890040000000  0.4300780000000  0.5568850000000 1.0
C      1  0.5722970000000  0.4645520000000  0.4450650000000 1.0
C      1  0.5166640000000  0.4359990000000  0.4434180000000 1.0
C      1  0.5270690000000  0.5821610000000  0.5276010000000 1.0
C      1  0.4746730000000  0.4481040000000  0.5372010000000 1.0
C      1  0.5148880000000  0.5072410000000  0.5921970000000 1.0
C      1  0.4243100000000  0.5305700000000  0.5087920000000 1.0
C      1  0.5188030000000  0.5229890000000  0.5331380000000 1.0
C      1  0.5263100000000  0.5242890000000  0.4673930000000 1.0
C      1  0.4987760000000  0.4503140000000  0.5057710000000 1.0
C      1  0.4976660000000  0.5842510000000  0.4274910000000 1.0
C      1  0.4764310000000  0.5092860000000  0.5050970000000 1.0
C      1  0.5125420000000  0.4415440000000  0.4759160000000 1.0
C      1  0.5219360000000  0.5264960000000  0.5668300000000 1.0
C      1  0.4704330000000  0.4316290000000  0.5077350000000 1.0
C      1  0.4667090000000  0.5194590000000  0.4202800000000 1.0
C      1  0.4953220000000  0.5437110000000  0.5579540000000 1.0
C      1  0.5216480000000  0.4112800000000  0.5212760000000 1.0
C      1  0.5360840000000  0.4805070000000  0.5677100000000 1.0
C      1  0.4822230000000  0.5880950000000  0.4921540000000 1.0
C      1  0.4989440000000  0.4451240000000  0.5839650000000 1.0
C      1  0.5547800000000  0.5069600000000  0.4606570000000 1.0
C      1  0.4734500000000  0.4675220000000  0.4151500000000 1.0
C      1  0.4324700000000  0.4834400000000  0.4337320000000 1.0
C      1  0.5092290000000  0.5949330000000  0.4848150000000 1.0
C      1  0.4052430000000  0.5189420000000  0.5256660000000 1.0
C      1  0.4857610000000  0.4929330000000  0.4699170000000 1.0
C      1  0.5454060000000  0.4283520000000  0.4942610000000 1.0
C      1  0.5668030000000  0.4606920000000  0.5373330000000 1.0
C      1  0.5662630000000  0.5140590000000  0.5097370000000 1.0
C      1  0.4481950000000  0.4756800000000  0.5837090000000 1.0
C      1  0.5526600000000  0.4443700000000  0.5633640000000 1.0
C      1  0.5466860000000  0.5067520000000  0.5681410000000 1.0
END
