TITL C-2847956-8218-354 -0.00239610595921133 125000 -243.43807258962 0 0 47 (C1) n - 1
REM
REM in /home/bkarasulu/work/CARBON/AIRSS/Generating-Clusters/AIREBO/with-SteepDescent/Only-C1/SD-CG-opt/Try1-1.4A-POS3A/HFTN-CG
REM
REM
REM
REM
REM
REM ./C.cell (11c1c37f851c82e70ff6c80c92926a4b)
REM
REM compiler GCC version 9.2.1 20190827 (Red Hat 9.2.1-1)
REM options -cpp -mtune=generic -march=x86-64 -g -O0 -fpre-include=/usr/include/finclude/math-vector-fortran.h
REM seed -589305846 1337012499 71558557 -1453858710 -1000909163 114249820 1353836865 -1257679207 295806613 -1467256570 2066621164 -1757188985 404436977 1590589512 -618299279 -1908480194 1957276074 -1422177877 1985239554 -179103866 1598956785 -283945929 -1936243311 -1105476283 55987538 -902282891 341395141 1663831346 2029113864 -91675531 631934021 -165236798 957724686
REM
CELL 1.54180   50.00000   50.00000   50.00000   90.00000   90.00000   90.00000
LATT -1
SFAC C  
C      1  0.4884340000000  0.5211620000000  0.5307600000000 1.0
C      1  0.4932400000000  0.4900190000000  0.4868840000000 1.0
C      1  0.5785750000000  0.5114260000000  0.4787610000000 1.0
C      1  0.4856890000000  0.4452150000000  0.4631580000000 1.0
C      1  0.5075700000000  0.4491060000000  0.4872690000000 1.0
C      1  0.5488080000000  0.4800310000000  0.5519190000000 1.0
C      1  0.4614700000000  0.4615700000000  0.5136190000000 1.0
C      1  0.5214270000000  0.5237690000000  0.5766590000000 1.0
C      1  0.5056010000000  0.5167090000000  0.4322560000000 1.0
C      1  0.4764560000000  0.5163880000000  0.4786190000000 1.0
C      1  0.5308850000000  0.5021270000000  0.5062300000000 1.0
C      1  0.4787140000000  0.5139140000000  0.4113830000000 1.0
C      1  0.4375640000000  0.4853780000000  0.5176390000000 1.0
C      1  0.5582890000000  0.5299850000000  0.4723880000000 1.0
C      1  0.4716820000000  0.4663120000000  0.4844730000000 1.0
C      1  0.5019730000000  0.4920010000000  0.5196840000000 1.0
C      1  0.4765240000000  0.4729660000000  0.4456330000000 1.0
C      1  0.5423500000000  0.4577400000000  0.5362040000000 1.0
C      1  0.4893830000000  0.5532450000000  0.4701800000000 1.0
C      1  0.4162580000000  0.5024310000000  0.4981330000000 1.0
C      1  0.5422820000000  0.5727680000000  0.5211210000000 1.0
C      1  0.4182670000000  0.5509880000000  0.5562080000000 1.0
C      1  0.4954590000000  0.4588740000000  0.5155510000000 1.0
C      1  0.4678430000000  0.5281340000000  0.5077690000000 1.0
C      1  0.4496580000000  0.4711900000000  0.5440170000000 1.0
C      1  0.5511870000000  0.4821930000000  0.5059070000000 1.0
C      1  0.4685410000000  0.4855650000000  0.5587380000000 1.0
C      1  0.4691680000000  0.5144880000000  0.5559150000000 1.0
C      1  0.4401970000000  0.5191330000000  0.5158740000000 1.0
C      1  0.5375820000000  0.4521060000000  0.5030150000000 1.0
C      1  0.5041350000000  0.5258560000000  0.4612110000000 1.0
C      1  0.4603110000000  0.4908400000000  0.4649000000000 1.0
C      1  0.5311260000000  0.5194800000000  0.4783030000000 1.0
C      1  0.5156410000000  0.4455360000000  0.5358080000000 1.0
C      1  0.5292860000000  0.5234480000000  0.4190060000000 1.0
C      1  0.5764020000000  0.4913820000000  0.4977950000000 1.0
C      1  0.5362200000000  0.4666850000000  0.4723280000000 1.0
C      1  0.5308980000000  0.5527870000000  0.5321940000000 1.0
C      1  0.4273400000000  0.5369360000000  0.5369320000000 1.0
C      1  0.5626070000000  0.5559510000000  0.4650610000000 1.0
C      1  0.4882850000000  0.4880690000000  0.4262510000000 1.0
C      1  0.5386340000000  0.5047480000000  0.5589430000000 1.0
C      1  0.4950780000000  0.4787650000000  0.5502480000000 1.0
C      1  0.4812550000000  0.4207470000000  0.4515950000000 1.0
C      1  0.4742660000000  0.5545160000000  0.4903390000000 1.0
C      1  0.5181600000000  0.5273580000000  0.5430040000000 1.0
C      1  0.5192800000000  0.4899600000000  0.4701180000000 1.0
END
