TITL C-2847952-8118-670 2.74990478734054 125000 -878.548980537459 0 0 163 (C1) n - 1
REM
REM in /home/bkarasulu/work/CARBON/AIRSS/Generating-Clusters/AIREBO/with-SteepDescent/Only-C1/SD-CG-opt/Try1-1.4A-POS3A/HFTN-CG
REM
REM
REM
REM
REM
REM ./C.cell (11c1c37f851c82e70ff6c80c92926a4b)
REM
REM compiler GCC version 9.2.1 20190827 (Red Hat 9.2.1-1)
REM options -cpp -mtune=generic -march=x86-64 -g -O0 -fpre-include=/usr/include/finclude/math-vector-fortran.h
REM seed 1566153306 1605791781 -2010635529 375507010 -241536446 -1446637897 -908723936 1255762834 -428082845 -683441988 1268317386 -1988625363 -489695344 853311288 1799741017 -1759480883 -1715271126 1716182884 -584117661 -683752305 -2137986794 -1792086438 -1323905992 -591576394 -984622297 1871081386 1500800605 -410338478 239130324 -935434994 -1995490137 1575676929 -2116433842
REM
CELL 1.54180   50.00000   50.00000   50.00000   90.00000   90.00000   90.00000
LATT -1
SFAC C  
C      1  0.5263910000000  0.4500150000000  0.4541250000000 1.0
C      1  0.4920620000000  0.4529550000000  0.5772330000000 1.0
C      1  0.4892300000000  0.5114060000000  0.6071910000000 1.0
C      1  0.4809620000000  0.4351870000000  0.5173360000000 1.0
C      1  0.5518820000000  0.5900580000000  0.4601570000000 1.0
C      1  0.5725160000000  0.5192860000000  0.5186700000000 1.0
C      1  0.4944490000000  0.5028280000000  0.3915510000000 1.0
C      1  0.4832410000000  0.5447530000000  0.6040670000000 1.0
C      1  0.5371680000000  0.5322920000000  0.5852540000000 1.0
C      1  0.5714390000000  0.5042780000000  0.4119240000000 1.0
C      1  0.4654890000000  0.3946010000000  0.5110640000000 1.0
C      1  0.4014390000000  0.5048670000000  0.4822420000000 1.0
C      1  0.5079710000000  0.5044200000000  0.4290660000000 1.0
C      1  0.5016280000000  0.4225300000000  0.5696340000000 1.0
C      1  0.5605820000000  0.5046770000000  0.4920440000000 1.0
C      1  0.5413810000000  0.4651810000000  0.5797530000000 1.0
C      1  0.4774700000000  0.4665110000000  0.5301050000000 1.0
C      1  0.4565860000000  0.5043560000000  0.4041420000000 1.0
C      1  0.5379950000000  0.5456310000000  0.5354170000000 1.0
C      1  0.4969860000000  0.5961500000000  0.5646610000000 1.0
C      1  0.5565500000000  0.5800220000000  0.4923080000000 1.0
C      1  0.3957510000000  0.4948290000000  0.5280130000000 1.0
C      1  0.5038620000000  0.4737090000000  0.4635010000000 1.0
C      1  0.4640540000000  0.5937300000000  0.5648070000000 1.0
C      1  0.4759270000000  0.4279830000000  0.5501820000000 1.0
C      1  0.4664700000000  0.4371560000000  0.4228580000000 1.0
C      1  0.5911130000000  0.4499420000000  0.5386990000000 1.0
C      1  0.5782700000000  0.4633560000000  0.5646920000000 1.0
C      1  0.5269720000000  0.5454160000000  0.4605360000000 1.0
C      1  0.4552150000000  0.4826280000000  0.5932340000000 1.0
C      1  0.4429350000000  0.4577560000000  0.5529550000000 1.0
C      1  0.4462150000000  0.5831850000000  0.5455690000000 1.0
C      1  0.5114530000000  0.4277660000000  0.4720860000000 1.0
C      1  0.6046110000000  0.4333510000000  0.4898400000000 1.0
C      1  0.5797450000000  0.4782350000000  0.4940730000000 1.0
C      1  0.5358030000000  0.5917370000000  0.5165770000000 1.0
C      1  0.4498290000000  0.4246570000000  0.5082640000000 1.0
C      1  0.5537510000000  0.5353820000000  0.5637510000000 1.0
C      1  0.4161020000000  0.4992660000000  0.4560450000000 1.0
C      1  0.5321860000000  0.4733290000000  0.4300470000000 1.0
C      1  0.5334250000000  0.4683280000000  0.4898920000000 1.0
C      1  0.4816460000000  0.5154520000000  0.5255870000000 1.0
C      1  0.4581310000000  0.5671450000000  0.5110650000000 1.0
C      1  0.5079190000000  0.5172800000000  0.4585730000000 1.0
C      1  0.5106840000000  0.5015410000000  0.5882380000000 1.0
C      1  0.5035720000000  0.4144460000000  0.5023630000000 1.0
C      1  0.5537970000000  0.4395520000000  0.5651110000000 1.0
C      1  0.5147010000000  0.5944260000000  0.5435460000000 1.0
C      1  0.4948730000000  0.5332610000000  0.4998160000000 1.0
C      1  0.4546630000000  0.5307030000000  0.5947190000000 1.0
C      1  0.5675770000000  0.5679770000000  0.4428200000000 1.0
C      1  0.5080450000000  0.5408070000000  0.5811420000000 1.0
C      1  0.5702060000000  0.4420760000000  0.4278220000000 1.0
C      1  0.4316970000000  0.5454910000000  0.4413930000000 1.0
C      1  0.5331040000000  0.4008040000000  0.5419850000000 1.0
C      1  0.4480340000000  0.5369980000000  0.5626920000000 1.0
C      1  0.5435270000000  0.5776710000000  0.5453880000000 1.0
C      1  0.4602330000000  0.6007890000000  0.5065520000000 1.0
C      1  0.4351450000000  0.4489540000000  0.4554630000000 1.0
C      1  0.4357210000000  0.6066380000000  0.4929820000000 1.0
C      1  0.4306440000000  0.5627160000000  0.4685030000000 1.0
C      1  0.5305110000000  0.4188440000000  0.5623520000000 1.0
C      1  0.5114910000000  0.4704970000000  0.5837010000000 1.0
C      1  0.5894030000000  0.5414520000000  0.4742580000000 1.0
C      1  0.4774840000000  0.5444060000000  0.5648830000000 1.0
C      1  0.4729340000000  0.3829620000000  0.5344600000000 1.0
C      1  0.4571880000000  0.5325100000000  0.5145140000000 1.0
C      1  0.4304110000000  0.5209480000000  0.5247920000000 1.0
C      1  0.4196010000000  0.4873750000000  0.4257310000000 1.0
C      1  0.4466210000000  0.4836570000000  0.4192150000000 1.0
C      1  0.5109000000000  0.4717510000000  0.5337020000000 1.0
C      1  0.5795420000000  0.5243040000000  0.5575410000000 1.0
C      1  0.5551370000000  0.4598520000000  0.4687070000000 1.0
C      1  0.5902470000000  0.4947710000000  0.5320200000000 1.0
C      1  0.5217000000000  0.5540160000000  0.4174740000000 1.0
C      1  0.5075320000000  0.5655160000000  0.4798890000000 1.0
C      1  0.4810860000000  0.4932340000000  0.5492430000000 1.0
C      1  0.4991110000000  0.4776490000000  0.4006980000000 1.0
C      1  0.5465210000000  0.5252100000000  0.4428370000000 1.0
C      1  0.4623570000000  0.4645510000000  0.4425750000000 1.0
C      1  0.5174950000000  0.4549460000000  0.4092000000000 1.0
C      1  0.4425820000000  0.5067080000000  0.5500790000000 1.0
C      1  0.4887220000000  0.5659860000000  0.5218370000000 1.0
C      1  0.4791950000000  0.4275830000000  0.4668290000000 1.0
C      1  0.4923830000000  0.4745540000000  0.4331930000000 1.0
C      1  0.4476220000000  0.5112220000000  0.3791020000000 1.0
C      1  0.5450400000000  0.5332020000000  0.4938400000000 1.0
C      1  0.5492250000000  0.4942610000000  0.4496690000000 1.0
C      1  0.5178340000000  0.4293340000000  0.4207150000000 1.0
C      1  0.4393230000000  0.4447130000000  0.4889890000000 1.0
C      1  0.5451350000000  0.4304120000000  0.4335870000000 1.0
C      1  0.4953050000000  0.5424700000000  0.5386630000000 1.0
C      1  0.4772420000000  0.5398880000000  0.4747410000000 1.0
C      1  0.4796070000000  0.4535720000000  0.4887620000000 1.0
C      1  0.3924060000000  0.5223630000000  0.5367720000000 1.0
C      1  0.5752300000000  0.4723310000000  0.4505390000000 1.0
C      1  0.5538770000000  0.4449710000000  0.5038200000000 1.0
C      1  0.5868090000000  0.5018860000000  0.4391260000000 1.0
C      1  0.4541080000000  0.4741440000000  0.4928360000000 1.0
C      1  0.5007310000000  0.3937140000000  0.4542050000000 1.0
C      1  0.4189830000000  0.4771420000000  0.5384770000000 1.0
C      1  0.4818870000000  0.5770400000000  0.4611480000000 1.0
C      1  0.4100010000000  0.5451400000000  0.5289080000000 1.0
C      1  0.5160690000000  0.5088980000000  0.5067750000000 1.0
C      1  0.5994250000000  0.4883590000000  0.4682610000000 1.0
C      1  0.5862700000000  0.4511380000000  0.5061410000000 1.0
C      1  0.4163190000000  0.5228930000000  0.4963580000000 1.0
C      1  0.4823530000000  0.5222290000000  0.4167400000000 1.0
C      1  0.5032070000000  0.5923830000000  0.4418500000000 1.0
C      1  0.5850430000000  0.4922910000000  0.5648820000000 1.0
C      1  0.4410090000000  0.5043010000000  0.5834960000000 1.0
C      1  0.4081460000000  0.4487910000000  0.4765360000000 1.0
C      1  0.5839620000000  0.5063220000000  0.3889780000000 1.0
C      1  0.4492390000000  0.4847850000000  0.5248980000000 1.0
C      1  0.4460300000000  0.4292350000000  0.5393000000000 1.0
C      1  0.5069760000000  0.5855630000000  0.5054900000000 1.0
C      1  0.4309520000000  0.5615130000000  0.5595220000000 1.0
C      1  0.5698990000000  0.5550520000000  0.4194590000000 1.0
C      1  0.5577050000000  0.4493410000000  0.5337530000000 1.0
C      1  0.4860560000000  0.6089410000000  0.5043790000000 1.0
C      1  0.5290370000000  0.4054150000000  0.5148010000000 1.0
C      1  0.4934910000000  0.5512290000000  0.4150820000000 1.0
C      1  0.5498700000000  0.4149020000000  0.5004350000000 1.0
C      1  0.5064330000000  0.4674600000000  0.5027320000000 1.0
C      1  0.3872150000000  0.4895360000000  0.5011310000000 1.0
C      1  0.4825360000000  0.5712430000000  0.5827420000000 1.0
C      1  0.5287300000000  0.5129420000000  0.5341650000000 1.0
C      1  0.4386350000000  0.3905220000000  0.4660260000000 1.0
C      1  0.5375220000000  0.5017920000000  0.4123780000000 1.0
C      1  0.5457720000000  0.5347850000000  0.4118280000000 1.0
C      1  0.5047220000000  0.5160400000000  0.5580600000000 1.0
C      1  0.4215790000000  0.5825590000000  0.4914760000000 1.0
C      1  0.4631740000000  0.5126500000000  0.4875420000000 1.0
C      1  0.4811860000000  0.5727270000000  0.4279890000000 1.0
C      1  0.4593270000000  0.4898770000000  0.4630730000000 1.0
C      1  0.5282670000000  0.5741120000000  0.4423170000000 1.0
C      1  0.5583450000000  0.5525460000000  0.4716810000000 1.0
C      1  0.6026880000000  0.5007220000000  0.5003710000000 1.0
C      1  0.4745060000000  0.5173000000000  0.4494710000000 1.0
C      1  0.4091580000000  0.4669830000000  0.4483140000000 1.0
C      1  0.5392270000000  0.4716630000000  0.5463780000000 1.0
C      1  0.4602710000000  0.5652050000000  0.4789490000000 1.0
C      1  0.4258840000000  0.5705310000000  0.5213700000000 1.0
C      1  0.5897780000000  0.5450710000000  0.5325900000000 1.0
C      1  0.4368690000000  0.5329910000000  0.4803430000000 1.0
C      1  0.5396890000000  0.5077330000000  0.5999400000000 1.0
C      1  0.4720240000000  0.4914250000000  0.6141090000000 1.0
C      1  0.5558520000000  0.4970300000000  0.5382440000000 1.0
C      1  0.5555240000000  0.4856790000000  0.5976400000000 1.0
C      1  0.5983840000000  0.5327720000000  0.5011960000000 1.0
C      1  0.5304100000000  0.4998380000000  0.4774410000000 1.0
C      1  0.5999720000000  0.5281450000000  0.4524590000000 1.0
C      1  0.5216400000000  0.5484810000000  0.5057360000000 1.0
C      1  0.4929890000000  0.4207850000000  0.4364680000000 1.0
C      1  0.4037990000000  0.4504800000000  0.5502100000000 1.0
C      1  0.4609210000000  0.4010420000000  0.4781080000000 1.0
C      1  0.4828420000000  0.3975040000000  0.5554700000000 1.0
C      1  0.4919170000000  0.4943290000000  0.4877860000000 1.0
C      1  0.4669850000000  0.4690620000000  0.5686050000000 1.0
C      1  0.4410330000000  0.5188720000000  0.4434870000000 1.0
C      1  0.5634020000000  0.5630750000000  0.5210400000000 1.0
C      1  0.4160570000000  0.4283900000000  0.5497380000000 1.0
C      1  0.4921400000000  0.3929580000000  0.4813060000000 1.0
END
