TITL C-2848506-1665-463 -0.00319532250727519 125000 -982.98060563853 0 0 185 (C1) n - 1
REM
REM in /home/bkarasulu/work/CARBON/AIRSS/Generating-Clusters/AIREBO/with-SteepDescent/Only-C1/SD-CG-opt/Try1-1.4A-POS3A/HFTN-CG
REM
REM
REM
REM
REM
REM ./C.cell (11c1c37f851c82e70ff6c80c92926a4b)
REM
REM compiler GCC version 9.2.1 20190827 (Red Hat 9.2.1-1)
REM options -cpp -mtune=generic -march=x86-64 -g -O0 -fpre-include=/usr/include/finclude/math-vector-fortran.h
REM seed 336227304 -637347373 -338269922 -1151940406 -1366576121 -2106729960 -119591500 1603703123 -670022029 286785100 1542557846 41990856 -1015652839 -1032065885 -1246014136 322296527 -173115818 872652819 407737891 1483707511 622263936 -547908216 1842653242 -2088018214 -850541022 -944818324 -88576156 -856884434 8274879 111060358 -1895396164 2117380277 -78318784
REM
CELL 1.54180   50.00000   50.00000   50.00000   90.00000   90.00000   90.00000
LATT -1
SFAC C  
C      1  0.4062480000000  0.4385830000000  0.5207990000000 1.0
C      1  0.5773550000000  0.4808100000000  0.4290990000000 1.0
C      1  0.5352150000000  0.5341770000000  0.4585070000000 1.0
C      1  0.5245050000000  0.5445280000000  0.5852150000000 1.0
C      1  0.5255330000000  0.4184430000000  0.5415210000000 1.0
C      1  0.4433760000000  0.5342580000000  0.5327600000000 1.0
C      1  0.5492950000000  0.4837940000000  0.5362380000000 1.0
C      1  0.4966870000000  0.4058960000000  0.5412310000000 1.0
C      1  0.5355910000000  0.4678230000000  0.4743160000000 1.0
C      1  0.4414170000000  0.4526360000000  0.5040950000000 1.0
C      1  0.4661360000000  0.4382820000000  0.4856720000000 1.0
C      1  0.4989150000000  0.4310860000000  0.4920750000000 1.0
C      1  0.4598090000000  0.5126440000000  0.3912120000000 1.0
C      1  0.5099620000000  0.4878700000000  0.5035430000000 1.0
C      1  0.5304340000000  0.4351760000000  0.4483740000000 1.0
C      1  0.4939480000000  0.5018700000000  0.5832720000000 1.0
C      1  0.5615060000000  0.4379630000000  0.5046770000000 1.0
C      1  0.4551240000000  0.5514280000000  0.4604650000000 1.0
C      1  0.4973300000000  0.5936300000000  0.5331870000000 1.0
C      1  0.5192050000000  0.4937020000000  0.5352020000000 1.0
C      1  0.4824650000000  0.5296150000000  0.5385640000000 1.0
C      1  0.4571170000000  0.4302710000000  0.4341490000000 1.0
C      1  0.5534330000000  0.4127210000000  0.4879210000000 1.0
C      1  0.4959670000000  0.5790320000000  0.5814130000000 1.0
C      1  0.5778820000000  0.5381020000000  0.5082070000000 1.0
C      1  0.4347490000000  0.5310740000000  0.4157440000000 1.0
C      1  0.4022580000000  0.5322940000000  0.4845510000000 1.0
C      1  0.4938420000000  0.5295530000000  0.4917210000000 1.0
C      1  0.4114000000000  0.5278910000000  0.5255310000000 1.0
C      1  0.4338560000000  0.4864700000000  0.5837390000000 1.0
C      1  0.5591360000000  0.5116880000000  0.3895420000000 1.0
C      1  0.5681980000000  0.5099250000000  0.5423020000000 1.0
C      1  0.4940000000000  0.5378030000000  0.4061910000000 1.0
C      1  0.4378970000000  0.5895440000000  0.5427720000000 1.0
C      1  0.5372020000000  0.4388850000000  0.5889150000000 1.0
C      1  0.5509720000000  0.5568850000000  0.4430280000000 1.0
C      1  0.4754150000000  0.5246330000000  0.5686490000000 1.0
C      1  0.5056510000000  0.4550640000000  0.5113910000000 1.0
C      1  0.3921050000000  0.4872570000000  0.5079310000000 1.0
C      1  0.6090610000000  0.5134070000000  0.4741010000000 1.0
C      1  0.4994400000000  0.5606190000000  0.4500720000000 1.0
C      1  0.5267660000000  0.5864980000000  0.5454010000000 1.0
C      1  0.4995170000000  0.5617180000000  0.4954050000000 1.0
C      1  0.4441590000000  0.4540270000000  0.4135210000000 1.0
C      1  0.5061250000000  0.4465490000000  0.5649750000000 1.0
C      1  0.5088020000000  0.5620910000000  0.4184290000000 1.0
C      1  0.5136240000000  0.4846290000000  0.4061390000000 1.0
C      1  0.4900470000000  0.4511070000000  0.5403470000000 1.0
C      1  0.3888410000000  0.5046630000000  0.4843880000000 1.0
C      1  0.5765740000000  0.5866580000000  0.5077540000000 1.0
C      1  0.4246300000000  0.4770260000000  0.4873660000000 1.0
C      1  0.5293140000000  0.4110940000000  0.4653530000000 1.0
C      1  0.5287090000000  0.6000930000000  0.4562820000000 1.0
C      1  0.4815980000000  0.4778790000000  0.5686800000000 1.0
C      1  0.4752990000000  0.4551360000000  0.5891510000000 1.0
C      1  0.5093640000000  0.4889410000000  0.4695570000000 1.0
C      1  0.4455010000000  0.5134930000000  0.5667030000000 1.0
C      1  0.4263660000000  0.5066900000000  0.5039050000000 1.0
C      1  0.4462760000000  0.5441360000000  0.5003480000000 1.0
C      1  0.5773520000000  0.5800410000000  0.4781410000000 1.0
C      1  0.5916860000000  0.4954360000000  0.5260510000000 1.0
C      1  0.5630950000000  0.4598990000000  0.5816320000000 1.0
C      1  0.5578830000000  0.5395770000000  0.5809370000000 1.0
C      1  0.4316310000000  0.5048400000000  0.4018760000000 1.0
C      1  0.4896270000000  0.3948440000000  0.4783040000000 1.0
C      1  0.4479110000000  0.4564540000000  0.4531990000000 1.0
C      1  0.5418390000000  0.5687310000000  0.5003910000000 1.0
C      1  0.5900990000000  0.5093140000000  0.4990830000000 1.0
C      1  0.5915620000000  0.4471430000000  0.5077290000000 1.0
C      1  0.5217250000000  0.4067090000000  0.4986630000000 1.0
C      1  0.4421820000000  0.5770040000000  0.4768070000000 1.0
C      1  0.5371810000000  0.3863480000000  0.5211070000000 1.0
C      1  0.5689890000000  0.5490020000000  0.4157930000000 1.0
C      1  0.4411120000000  0.5703570000000  0.4375150000000 1.0
C      1  0.4088920000000  0.4093930000000  0.5169380000000 1.0
C      1  0.5088650000000  0.5940790000000  0.4302820000000 1.0
C      1  0.4469610000000  0.5006240000000  0.5369360000000 1.0
C      1  0.4754780000000  0.4641950000000  0.4691550000000 1.0
C      1  0.4204230000000  0.4820350000000  0.5265580000000 1.0
C      1  0.4902940000000  0.5230910000000  0.6174250000000 1.0
C      1  0.4625060000000  0.5964350000000  0.4950390000000 1.0
C      1  0.4013350000000  0.4832600000000  0.4382360000000 1.0
C      1  0.5811980000000  0.5625910000000  0.5249480000000 1.0
C      1  0.5515440000000  0.4931800000000  0.4474740000000 1.0
C      1  0.4789930000000  0.5824130000000  0.4365660000000 1.0
C      1  0.4629980000000  0.5440750000000  0.4035290000000 1.0
C      1  0.5389880000000  0.5606760000000  0.4128010000000 1.0
C      1  0.4938650000000  0.5406830000000  0.5923650000000 1.0
C      1  0.4650010000000  0.5855150000000  0.5259920000000 1.0
C      1  0.4857110000000  0.5078390000000  0.5166010000000 1.0
C      1  0.4658660000000  0.5974480000000  0.4622310000000 1.0
C      1  0.5745770000000  0.4812170000000  0.6014480000000 1.0
C      1  0.4614240000000  0.4345510000000  0.5424410000000 1.0
C      1  0.5743040000000  0.5324550000000  0.4661770000000 1.0
C      1  0.4787320000000  0.4654730000000  0.4293740000000 1.0
C      1  0.5655400000000  0.5074990000000  0.5819630000000 1.0
C      1  0.4709760000000  0.4633050000000  0.3990730000000 1.0
C      1  0.5708280000000  0.5608970000000  0.5573210000000 1.0
C      1  0.4738470000000  0.5538880000000  0.5163170000000 1.0
C      1  0.5506840000000  0.5863920000000  0.5625480000000 1.0
C      1  0.3975830000000  0.5178150000000  0.5524010000000 1.0
C      1  0.4563600000000  0.4778720000000  0.6020790000000 1.0
C      1  0.5146070000000  0.5088600000000  0.6257550000000 1.0
C      1  0.4818530000000  0.5366610000000  0.4628550000000 1.0
C      1  0.4708550000000  0.4294600000000  0.5726870000000 1.0
C      1  0.5515360000000  0.5808800000000  0.4620990000000 1.0
C      1  0.4467590000000  0.4189460000000  0.4651660000000 1.0
C      1  0.5560250000000  0.5363720000000  0.5414520000000 1.0
C      1  0.5542780000000  0.4625430000000  0.4201450000000 1.0
C      1  0.5226660000000  0.5268080000000  0.5066330000000 1.0
C      1  0.4815150000000  0.4813900000000  0.5375700000000 1.0
C      1  0.4234630000000  0.5346750000000  0.4398670000000 1.0
C      1  0.5419630000000  0.5651390000000  0.5299770000000 1.0
C      1  0.4964450000000  0.6105650000000  0.4586330000000 1.0
C      1  0.4818450000000  0.5033880000000  0.4557630000000 1.0
C      1  0.4366190000000  0.4987590000000  0.4664590000000 1.0
C      1  0.4890170000000  0.4256410000000  0.4267170000000 1.0
C      1  0.5436060000000  0.3844340000000  0.5515720000000 1.0
C      1  0.4956950000000  0.5120960000000  0.4280780000000 1.0
C      1  0.5411300000000  0.4904970000000  0.5681910000000 1.0
C      1  0.4306690000000  0.4220540000000  0.4938040000000 1.0
C      1  0.5170290000000  0.4899140000000  0.6051930000000 1.0
C      1  0.4595430000000  0.4777690000000  0.5149420000000 1.0
C      1  0.5164990000000  0.6088330000000  0.4863270000000 1.0
C      1  0.5038440000000  0.4380870000000  0.5978260000000 1.0
C      1  0.5939480000000  0.5005790000000  0.4504200000000 1.0
C      1  0.5797140000000  0.4836950000000  0.5622180000000 1.0
C      1  0.5240990000000  0.5630740000000  0.4719410000000 1.0
C      1  0.5162690000000  0.4351420000000  0.4188680000000 1.0
C      1  0.5582360000000  0.4542350000000  0.4528810000000 1.0
C      1  0.4096740000000  0.5087000000000  0.5828450000000 1.0
C      1  0.4906870000000  0.5668390000000  0.5500330000000 1.0
C      1  0.6007600000000  0.4597520000000  0.4845220000000 1.0
C      1  0.6159270000000  0.5398850000000  0.4710640000000 1.0
C      1  0.5780560000000  0.4274400000000  0.4496740000000 1.0
C      1  0.5781960000000  0.5247440000000  0.4357890000000 1.0
C      1  0.5436520000000  0.4667770000000  0.5073340000000 1.0
C      1  0.4812890000000  0.4946380000000  0.4026670000000 1.0
C      1  0.4699520000000  0.5612320000000  0.5832530000000 1.0
C      1  0.3981170000000  0.5522460000000  0.5108120000000 1.0
C      1  0.4582610000000  0.5570680000000  0.5531910000000 1.0
C      1  0.5843820000000  0.4654680000000  0.5338940000000 1.0
C      1  0.5497340000000  0.5376360000000  0.4891270000000 1.0
C      1  0.4220200000000  0.4366460000000  0.4518230000000 1.0
C      1  0.4587270000000  0.5725670000000  0.4136960000000 1.0
C      1  0.5543580000000  0.5119730000000  0.4192780000000 1.0
C      1  0.5415330000000  0.4997150000000  0.4990930000000 1.0
C      1  0.4209520000000  0.5370600000000  0.5673850000000 1.0
C      1  0.5243190000000  0.4688980000000  0.5830380000000 1.0
C      1  0.5648080000000  0.5018530000000  0.4775830000000 1.0
C      1  0.5832500000000  0.4317180000000  0.5373790000000 1.0
C      1  0.4554550000000  0.4864270000000  0.4426280000000 1.0
C      1  0.4003620000000  0.4577720000000  0.5013920000000 1.0
C      1  0.5281030000000  0.5368610000000  0.5544490000000 1.0
C      1  0.3846110000000  0.4942150000000  0.4574720000000 1.0
C      1  0.4725660000000  0.4999950000000  0.6096500000000 1.0
C      1  0.4654550000000  0.4053930000000  0.5279700000000 1.0
C      1  0.5753210000000  0.4084290000000  0.4661690000000 1.0
C      1  0.5565690000000  0.4420260000000  0.5545490000000 1.0
C      1  0.5473120000000  0.6007340000000  0.4976480000000 1.0
C      1  0.5001220000000  0.4140350000000  0.5729090000000 1.0
C      1  0.5256890000000  0.5196230000000  0.4330220000000 1.0
C      1  0.4392240000000  0.3990760000000  0.5163320000000 1.0
C      1  0.5560800000000  0.4134360000000  0.5274380000000 1.0
C      1  0.5926610000000  0.5579160000000  0.4719930000000 1.0
C      1  0.4232100000000  0.4616150000000  0.5673760000000 1.0
C      1  0.5124630000000  0.5159330000000  0.3920670000000 1.0
C      1  0.4324900000000  0.4519540000000  0.5369120000000 1.0
C      1  0.5817590000000  0.4740050000000  0.4678760000000 1.0
C      1  0.5024700000000  0.4543540000000  0.4509630000000 1.0
C      1  0.5435420000000  0.4139290000000  0.5685970000000 1.0
C      1  0.5173820000000  0.5094990000000  0.5625090000000 1.0
C      1  0.4289620000000  0.4822780000000  0.4217160000000 1.0
C      1  0.5309460000000  0.4484110000000  0.5329770000000 1.0
C      1  0.4954250000000  0.5921030000000  0.5014100000000 1.0
C      1  0.4918190000000  0.4232590000000  0.4597450000000 1.0
C      1  0.4142430000000  0.5643170000000  0.4840610000000 1.0
C      1  0.4566270000000  0.5142000000000  0.5001460000000 1.0
C      1  0.4919050000000  0.3945100000000  0.5095530000000 1.0
C      1  0.5301880000000  0.4576210000000  0.4072680000000 1.0
C      1  0.5213150000000  0.4800420000000  0.4390280000000 1.0
C      1  0.4706190000000  0.4898950000000  0.4848890000000 1.0
C      1  0.5088660000000  0.5439390000000  0.5326670000000 1.0
C      1  0.4267620000000  0.5638970000000  0.5536030000000 1.0
C      1  0.4322950000000  0.5305910000000  0.4724520000000 1.0
END
