TITL C-2848506-1665-368 0.000281498209749945 125000 -140.453575630627 0 0 26 (C1) n - 1
REM
REM in /home/bkarasulu/work/CARBON/AIRSS/Generating-Clusters/AIREBO/with-SteepDescent/Only-C1/SD-CG-opt/Try1-1.4A-POS3A/HFTN-CG
REM
REM
REM
REM
REM
REM ./C.cell (11c1c37f851c82e70ff6c80c92926a4b)
REM
REM compiler GCC version 9.2.1 20190827 (Red Hat 9.2.1-1)
REM options -cpp -mtune=generic -march=x86-64 -g -O0 -fpre-include=/usr/include/finclude/math-vector-fortran.h
REM seed 962657913 -1880885664 1034649069 851102381 652541218 471758451 -1542551997 -354510701 983746217 -2003798926 392831597 1210289147 1623296275 -1986018724 -667580237 -950086531 1437150969 1288364396 1833221260 -370214328 -794792362 1421040865 -923728412 -1829409445 -1904527373 1629149600 -66405180 536279643 -58752949 -593325668 -1533068017 -1885344130 -1093503186
REM
CELL 1.54180   50.00000   50.00000   50.00000   90.00000   90.00000   90.00000
LATT -1
SFAC C  
C      1  0.4466310000000  0.4984000000000  0.4900460000000 1.0
C      1  0.5326560000000  0.5072290000000  0.5121870000000 1.0
C      1  0.4949360000000  0.4540410000000  0.5429650000000 1.0
C      1  0.4493760000000  0.4623220000000  0.5227920000000 1.0
C      1  0.5362670000000  0.5121230000000  0.4642690000000 1.0
C      1  0.5226300000000  0.5582180000000  0.5072160000000 1.0
C      1  0.4501350000000  0.5389130000000  0.4630860000000 1.0
C      1  0.5070960000000  0.5281390000000  0.5082210000000 1.0
C      1  0.4901300000000  0.5219850000000  0.4841480000000 1.0
C      1  0.5468090000000  0.5080650000000  0.5389830000000 1.0
C      1  0.5566410000000  0.5077790000000  0.5625330000000 1.0
C      1  0.4899230000000  0.4579810000000  0.4724300000000 1.0
C      1  0.5310160000000  0.4816550000000  0.4688820000000 1.0
C      1  0.4600280000000  0.5262510000000  0.4867080000000 1.0
C      1  0.5280710000000  0.4789700000000  0.5012290000000 1.0
C      1  0.5022080000000  0.4783960000000  0.4564900000000 1.0
C      1  0.5023650000000  0.5537130000000  0.5304720000000 1.0
C      1  0.4682770000000  0.4601050000000  0.5423250000000 1.0
C      1  0.5074090000000  0.4523300000000  0.4936700000000 1.0
C      1  0.5466620000000  0.5242280000000  0.4879660000000 1.0
C      1  0.4623130000000  0.4554560000000  0.4768720000000 1.0
C      1  0.5038980000000  0.5099110000000  0.4629270000000 1.0
C      1  0.5140070000000  0.4581750000000  0.5236120000000 1.0
C      1  0.5468740000000  0.5520210000000  0.4939810000000 1.0
C      1  0.4490680000000  0.4713900000000  0.4962000000000 1.0
C      1  0.4545760000000  0.5422060000000  0.5097920000000 1.0
END
