TITL C-2847946-5639-204 0.00254190432256416 125000 -489.01855508906 0 0 88 (C1) n - 1
REM
REM in /home/bkarasulu/work/CARBON/AIRSS/Generating-Clusters/AIREBO/with-SteepDescent/Only-C1/SD-CG-opt/Try1-1.4A-POS3A/HFTN-CG
REM
REM
REM
REM
REM
REM ./C.cell (11c1c37f851c82e70ff6c80c92926a4b)
REM
REM compiler GCC version 9.2.1 20190827 (Red Hat 9.2.1-1)
REM options -cpp -mtune=generic -march=x86-64 -g -O0 -fpre-include=/usr/include/finclude/math-vector-fortran.h
REM seed 1606146767 980363729 1586647046 -1372098294 1407623406 1318753331 -1378883139 549935418 1634039139 993888679 -1580507649 -1490163377 1163591823 -1674575749 1982623942 -158038038 -169227814 -945552753 -1233623411 -26801392 1093973976 -940442236 -504263067 55527273 -1488013712 1356358107 -349630811 652094418 1255724122 1809802456 -127949706 1691944993 522683767
REM
CELL 1.54180   50.00000   50.00000   50.00000   90.00000   90.00000   90.00000
LATT -1
SFAC C  
C      1  0.4850350000000  0.5489910000000  0.4510630000000 1.0
C      1  0.5646340000000  0.5315090000000  0.4608310000000 1.0
C      1  0.4922640000000  0.5603490000000  0.4996630000000 1.0
C      1  0.4548530000000  0.5578660000000  0.5352690000000 1.0
C      1  0.4774190000000  0.4733510000000  0.5062630000000 1.0
C      1  0.5543140000000  0.4531530000000  0.5754190000000 1.0
C      1  0.4537890000000  0.4435930000000  0.5552800000000 1.0
C      1  0.4430280000000  0.5127300000000  0.4684560000000 1.0
C      1  0.5423140000000  0.4919930000000  0.4517430000000 1.0
C      1  0.5306520000000  0.4161460000000  0.5171940000000 1.0
C      1  0.4961070000000  0.5194650000000  0.4402150000000 1.0
C      1  0.5772560000000  0.5129010000000  0.5196480000000 1.0
C      1  0.5092270000000  0.4554000000000  0.5403230000000 1.0
C      1  0.4466140000000  0.4230300000000  0.4913980000000 1.0
C      1  0.4205190000000  0.5384530000000  0.4673270000000 1.0
C      1  0.5413870000000  0.5442910000000  0.5382420000000 1.0
C      1  0.5799890000000  0.5573870000000  0.4681120000000 1.0
C      1  0.4452420000000  0.5193940000000  0.5622030000000 1.0
C      1  0.5027880000000  0.4928830000000  0.4234170000000 1.0
C      1  0.4486240000000  0.4608770000000  0.5133280000000 1.0
C      1  0.5223050000000  0.5999980000000  0.5048640000000 1.0
C      1  0.5102050000000  0.5781050000000  0.5174250000000 1.0
C      1  0.4932730000000  0.4713530000000  0.5615920000000 1.0
C      1  0.4206850000000  0.4970850000000  0.5400480000000 1.0
C      1  0.5115990000000  0.5512200000000  0.5640300000000 1.0
C      1  0.4906840000000  0.5311100000000  0.5543390000000 1.0
C      1  0.5588960000000  0.5042340000000  0.4788200000000 1.0
C      1  0.5221020000000  0.5669170000000  0.5408240000000 1.0
C      1  0.5051570000000  0.4268990000000  0.5233050000000 1.0
C      1  0.5397480000000  0.4621730000000  0.5460310000000 1.0
C      1  0.4401810000000  0.4504820000000  0.4759790000000 1.0
C      1  0.4751540000000  0.4223840000000  0.5099320000000 1.0
C      1  0.5303710000000  0.4528270000000  0.4280960000000 1.0
C      1  0.4992240000000  0.5043060000000  0.5676540000000 1.0
C      1  0.4599510000000  0.4567400000000  0.4326350000000 1.0
C      1  0.5071170000000  0.4805270000000  0.5910430000000 1.0
C      1  0.5647460000000  0.5418970000000  0.5229610000000 1.0
C      1  0.5388940000000  0.5389400000000  0.4525570000000 1.0
C      1  0.5299920000000  0.4813730000000  0.4286830000000 1.0
C      1  0.4830790000000  0.4235190000000  0.4767320000000 1.0
C      1  0.4242850000000  0.4732530000000  0.5001950000000 1.0
C      1  0.4289760000000  0.4817000000000  0.4684380000000 1.0
C      1  0.4524470000000  0.4928860000000  0.5455140000000 1.0
C      1  0.4808940000000  0.4766990000000  0.4385440000000 1.0
C      1  0.5327550000000  0.4836970000000  0.5021390000000 1.0
C      1  0.5207930000000  0.4926150000000  0.4759110000000 1.0
C      1  0.4797070000000  0.5264270000000  0.4760080000000 1.0
C      1  0.5327340000000  0.5662330000000  0.4529400000000 1.0
C      1  0.5535570000000  0.5786340000000  0.4725860000000 1.0
C      1  0.5072230000000  0.5303240000000  0.4940400000000 1.0
C      1  0.4957920000000  0.4733950000000  0.4707780000000 1.0
C      1  0.4481510000000  0.5764060000000  0.5112910000000 1.0
C      1  0.4908790000000  0.4229720000000  0.4495580000000 1.0
C      1  0.5427460000000  0.6032360000000  0.4870710000000 1.0
C      1  0.4617140000000  0.5404650000000  0.5570040000000 1.0
C      1  0.5442490000000  0.5081850000000  0.5164760000000 1.0
C      1  0.5154190000000  0.4470420000000  0.4787700000000 1.0
C      1  0.5571660000000  0.4342610000000  0.5059800000000 1.0
C      1  0.5844580000000  0.4530200000000  0.4981970000000 1.0
C      1  0.4704770000000  0.4304790000000  0.4308650000000 1.0
C      1  0.4705880000000  0.4994110000000  0.5203590000000 1.0
C      1  0.5256220000000  0.5178210000000  0.5401850000000 1.0
C      1  0.5412160000000  0.5298690000000  0.4930970000000 1.0
C      1  0.5074590000000  0.4635490000000  0.5077000000000 1.0
C      1  0.5602970000000  0.5546920000000  0.4949690000000 1.0
C      1  0.5392990000000  0.4814770000000  0.5809810000000 1.0
C      1  0.4712390000000  0.4526520000000  0.4815680000000 1.0
C      1  0.4573180000000  0.5188170000000  0.4989140000000 1.0
C      1  0.4724090000000  0.4968520000000  0.4630880000000 1.0
C      1  0.4724630000000  0.5127220000000  0.4179410000000 1.0
C      1  0.4692580000000  0.5427420000000  0.5144320000000 1.0
C      1  0.4636170000000  0.4686320000000  0.5599820000000 1.0
C      1  0.4348930000000  0.4656540000000  0.4395360000000 1.0
C      1  0.5240810000000  0.5105110000000  0.5900070000000 1.0
C      1  0.5522980000000  0.4632990000000  0.5180990000000 1.0
C      1  0.4084800000000  0.4879300000000  0.5197040000000 1.0
C      1  0.4578070000000  0.5301030000000  0.4432260000000 1.0
C      1  0.5726880000000  0.4849000000000  0.5008970000000 1.0
C      1  0.5064780000000  0.5712680000000  0.4472270000000 1.0
C      1  0.4621930000000  0.5684740000000  0.4852840000000 1.0
C      1  0.5415390000000  0.4940970000000  0.5515800000000 1.0
C      1  0.5160760000000  0.4375270000000  0.4466800000000 1.0
C      1  0.4529590000000  0.4369460000000  0.5280960000000 1.0
C      1  0.4979590000000  0.5171010000000  0.5242110000000 1.0
C      1  0.5227030000000  0.5422580000000  0.5880840000000 1.0
C      1  0.4482940000000  0.5533710000000  0.4661280000000 1.0
C      1  0.5400520000000  0.4276710000000  0.4802460000000 1.0
C      1  0.5168730000000  0.5218780000000  0.4625300000000 1.0
END
