TITL C-2847949-8115-90 -0.00257402839927411 125000 -918.318381004606 0 0 165 (C1) n - 1
REM
REM in /home/bkarasulu/work/CARBON/AIRSS/Generating-Clusters/AIREBO/with-SteepDescent/Only-C1/SD-CG-opt/Try1-1.4A-POS3A/HFTN-CG
REM
REM
REM
REM
REM
REM ./C.cell (11c1c37f851c82e70ff6c80c92926a4b)
REM
REM compiler GCC version 9.2.1 20190827 (Red Hat 9.2.1-1)
REM options -cpp -mtune=generic -march=x86-64 -g -O0 -fpre-include=/usr/include/finclude/math-vector-fortran.h
REM seed 1658458779 -688564407 1633140107 1804114447 -1057252314 -882369648 -1212642805 -736450626 -980708756 964050572 118336600 1002509066 1619920345 378656414 -164099390 1378407121 1681858881 -1558517345 129316674 129462797 1093496152 1667420212 -1424813498 296099212 910549926 -785497687 773477182 813131437 -501103082 -452998842 667178274 1004257630 1535691424
REM
CELL 1.54180   50.00000   50.00000   50.00000   90.00000   90.00000   90.00000
LATT -1
SFAC C  
C      1  0.4856550000000  0.4492020000000  0.5222860000000 1.0
C      1  0.5050730000000  0.5996070000000  0.5003870000000 1.0
C      1  0.4602990000000  0.5895020000000  0.4542290000000 1.0
C      1  0.4809810000000  0.5439660000000  0.4753400000000 1.0
C      1  0.5006240000000  0.4241560000000  0.5046660000000 1.0
C      1  0.5399000000000  0.5247900000000  0.5114660000000 1.0
C      1  0.4716970000000  0.5054510000000  0.4752720000000 1.0
C      1  0.5591880000000  0.5402600000000  0.5908240000000 1.0
C      1  0.4685880000000  0.4456770000000  0.4947810000000 1.0
C      1  0.4771390000000  0.4963260000000  0.4441370000000 1.0
C      1  0.5299040000000  0.5778220000000  0.4313230000000 1.0
C      1  0.4587640000000  0.4184040000000  0.4896020000000 1.0
C      1  0.5566720000000  0.4580430000000  0.5696900000000 1.0
C      1  0.4031340000000  0.4498380000000  0.5200250000000 1.0
C      1  0.4942550000000  0.5186180000000  0.4074580000000 1.0
C      1  0.4498580000000  0.4277190000000  0.4247880000000 1.0
C      1  0.4828070000000  0.4541210000000  0.5961310000000 1.0
C      1  0.5107690000000  0.4794670000000  0.5617400000000 1.0
C      1  0.5114130000000  0.4665560000000  0.5999670000000 1.0
C      1  0.5098660000000  0.4901820000000  0.4041750000000 1.0
C      1  0.4790660000000  0.4273610000000  0.4427280000000 1.0
C      1  0.4723560000000  0.5291650000000  0.5332100000000 1.0
C      1  0.5637850000000  0.4281580000000  0.5206920000000 1.0
C      1  0.5534560000000  0.6070850000000  0.4953760000000 1.0
C      1  0.4527290000000  0.5825500000000  0.5381420000000 1.0
C      1  0.5687980000000  0.5150260000000  0.6008230000000 1.0
C      1  0.4346660000000  0.3920650000000  0.4537680000000 1.0
C      1  0.5235870000000  0.5159050000000  0.5716240000000 1.0
C      1  0.4974980000000  0.4997570000000  0.5211890000000 1.0
C      1  0.5713490000000  0.5597220000000  0.4464760000000 1.0
C      1  0.5999050000000  0.5042010000000  0.4623220000000 1.0
C      1  0.4696410000000  0.4979990000000  0.5083850000000 1.0
C      1  0.5126980000000  0.4573180000000  0.5380980000000 1.0
C      1  0.4652770000000  0.4944560000000  0.5667860000000 1.0
C      1  0.5243570000000  0.5299480000000  0.4688210000000 1.0
C      1  0.5224670000000  0.4802840000000  0.5144060000000 1.0
C      1  0.4719170000000  0.5519340000000  0.4151860000000 1.0
C      1  0.5877470000000  0.4592030000000  0.4853160000000 1.0
C      1  0.4326090000000  0.5030900000000  0.4676680000000 1.0
C      1  0.4478310000000  0.5974100000000  0.4836200000000 1.0
C      1  0.4429530000000  0.4555340000000  0.4182370000000 1.0
C      1  0.5626380000000  0.4253270000000  0.4223550000000 1.0
C      1  0.4893540000000  0.5665020000000  0.5385920000000 1.0
C      1  0.4505030000000  0.4147430000000  0.5480920000000 1.0
C      1  0.5083130000000  0.4338980000000  0.4750160000000 1.0
C      1  0.5835450000000  0.5047450000000  0.5582710000000 1.0
C      1  0.5581080000000  0.5707100000000  0.5520660000000 1.0
C      1  0.5914950000000  0.5472370000000  0.5264110000000 1.0
C      1  0.5094910000000  0.5578280000000  0.4639030000000 1.0
C      1  0.4613090000000  0.5202110000000  0.4087450000000 1.0
C      1  0.6030670000000  0.4864880000000  0.4839660000000 1.0
C      1  0.4281290000000  0.4447730000000  0.4693530000000 1.0
C      1  0.5428570000000  0.3937570000000  0.4850280000000 1.0
C      1  0.5720840000000  0.5603660000000  0.4787160000000 1.0
C      1  0.4785550000000  0.5973570000000  0.5315610000000 1.0
C      1  0.5531480000000  0.5196500000000  0.4563560000000 1.0
C      1  0.5850220000000  0.5361320000000  0.4982580000000 1.0
C      1  0.4757660000000  0.4023060000000  0.5085000000000 1.0
C      1  0.5176250000000  0.5662700000000  0.5750800000000 1.0
C      1  0.5296530000000  0.4469060000000  0.5818870000000 1.0
C      1  0.4392170000000  0.5382730000000  0.5075750000000 1.0
C      1  0.5881520000000  0.5324820000000  0.5523160000000 1.0
C      1  0.3896400000000  0.5123490000000  0.5054210000000 1.0
C      1  0.4136170000000  0.5094900000000  0.5591930000000 1.0
C      1  0.4592250000000  0.5596860000000  0.4457620000000 1.0
C      1  0.4430920000000  0.4728310000000  0.4787840000000 1.0
C      1  0.5328620000000  0.4866660000000  0.5840640000000 1.0
C      1  0.4925230000000  0.4898980000000  0.6119190000000 1.0
C      1  0.5302830000000  0.5912090000000  0.4562270000000 1.0
C      1  0.4815750000000  0.5992220000000  0.4789070000000 1.0
C      1  0.5784060000000  0.5730110000000  0.5292710000000 1.0
C      1  0.4906070000000  0.5633020000000  0.5677450000000 1.0
C      1  0.4997420000000  0.5055070000000  0.5498800000000 1.0
C      1  0.4652190000000  0.5490920000000  0.5803460000000 1.0
C      1  0.5801030000000  0.4862540000000  0.5336770000000 1.0
C      1  0.4912170000000  0.4745570000000  0.4221040000000 1.0
C      1  0.5124560000000  0.5986050000000  0.5338460000000 1.0
C      1  0.4256790000000  0.4837530000000  0.4202850000000 1.0
C      1  0.4985990000000  0.4875060000000  0.4831470000000 1.0
C      1  0.5876940000000  0.4566090000000  0.5353830000000 1.0
C      1  0.5635940000000  0.4824230000000  0.4913010000000 1.0
C      1  0.4504540000000  0.5295430000000  0.4796030000000 1.0
C      1  0.5996310000000  0.4477090000000  0.5119780000000 1.0
C      1  0.4753320000000  0.4661000000000  0.4699620000000 1.0
C      1  0.5311460000000  0.4777380000000  0.4817000000000 1.0
C      1  0.5467920000000  0.4071600000000  0.4412840000000 1.0
C      1  0.4180110000000  0.4993440000000  0.4950540000000 1.0
C      1  0.4485960000000  0.4912710000000  0.4012970000000 1.0
C      1  0.5118680000000  0.5164080000000  0.4952560000000 1.0
C      1  0.4011690000000  0.4514710000000  0.4858650000000 1.0
C      1  0.5481880000000  0.4910450000000  0.5310840000000 1.0
C      1  0.4230670000000  0.4575300000000  0.5420500000000 1.0
C      1  0.5744710000000  0.5511240000000  0.5701040000000 1.0
C      1  0.5288160000000  0.5867290000000  0.5547460000000 1.0
C      1  0.5284390000000  0.4238410000000  0.4220650000000 1.0
C      1  0.5343720000000  0.4905150000000  0.3805260000000 1.0
C      1  0.5071600000000  0.5434850000000  0.3992990000000 1.0
C      1  0.5349970000000  0.4443700000000  0.4828170000000 1.0
C      1  0.5740690000000  0.4451480000000  0.4403160000000 1.0
C      1  0.5085230000000  0.4143230000000  0.4484000000000 1.0
C      1  0.4383660000000  0.5061750000000  0.5186230000000 1.0
C      1  0.4815680000000  0.4372860000000  0.5711210000000 1.0
C      1  0.5197220000000  0.4812790000000  0.4498570000000 1.0
C      1  0.4539800000000  0.4703140000000  0.5104800000000 1.0
C      1  0.4339180000000  0.5676860000000  0.5187160000000 1.0
C      1  0.5425500000000  0.4194690000000  0.5453090000000 1.0
C      1  0.5296560000000  0.6054930000000  0.4824760000000 1.0
C      1  0.4801900000000  0.5251010000000  0.5660490000000 1.0
C      1  0.3830040000000  0.5604300000000  0.4936240000000 1.0
C      1  0.4499690000000  0.5751840000000  0.5644290000000 1.0
C      1  0.4972570000000  0.4009340000000  0.5487640000000 1.0
C      1  0.4988980000000  0.4544060000000  0.4484100000000 1.0
C      1  0.4138560000000  0.5392390000000  0.5571700000000 1.0
C      1  0.5018820000000  0.5659290000000  0.4231490000000 1.0
C      1  0.5673310000000  0.4721960000000  0.4360330000000 1.0
C      1  0.4092820000000  0.5495940000000  0.5314190000000 1.0
C      1  0.4210990000000  0.4861560000000  0.5409050000000 1.0
C      1  0.4262210000000  0.5856420000000  0.4958030000000 1.0
C      1  0.5648030000000  0.5803840000000  0.5035520000000 1.0
C      1  0.5539880000000  0.4561530000000  0.5065080000000 1.0
C      1  0.5196920000000  0.4065760000000  0.5264410000000 1.0
C      1  0.4317440000000  0.5521180000000  0.4330820000000 1.0
C      1  0.5371470000000  0.5176980000000  0.5429630000000 1.0
C      1  0.5461790000000  0.4591590000000  0.5386360000000 1.0
C      1  0.5388470000000  0.5670940000000  0.4761050000000 1.0
C      1  0.4318750000000  0.5517680000000  0.5742570000000 1.0
C      1  0.4066510000000  0.4198030000000  0.5094510000000 1.0
C      1  0.5311330000000  0.5423190000000  0.5849560000000 1.0
C      1  0.4569340000000  0.4661020000000  0.5836100000000 1.0
C      1  0.5650260000000  0.5116730000000  0.5013110000000 1.0
C      1  0.5383790000000  0.5064810000000  0.4078310000000 1.0
C      1  0.4684600000000  0.4687520000000  0.4029290000000 1.0
C      1  0.5313400000000  0.3915080000000  0.4595780000000 1.0
C      1  0.3993030000000  0.5823360000000  0.4883650000000 1.0
C      1  0.5575350000000  0.4209330000000  0.4880510000000 1.0
C      1  0.4838170000000  0.5356160000000  0.4425390000000 1.0
C      1  0.4494720000000  0.4203340000000  0.4579790000000 1.0
C      1  0.5121620000000  0.4300480000000  0.5580670000000 1.0
C      1  0.4892840000000  0.5698040000000  0.5047010000000 1.0
C      1  0.4455450000000  0.5161660000000  0.5495980000000 1.0
C      1  0.5649180000000  0.4889670000000  0.5811960000000 1.0
C      1  0.5320400000000  0.3846950000000  0.5082030000000 1.0
C      1  0.5953140000000  0.4990920000000  0.5089170000000 1.0
C      1  0.5421440000000  0.5553570000000  0.5047630000000 1.0
C      1  0.4328990000000  0.5268600000000  0.4242900000000 1.0
C      1  0.5501590000000  0.4893100000000  0.4474270000000 1.0
C      1  0.5163170000000  0.5606340000000  0.5219540000000 1.0
C      1  0.4259350000000  0.4179420000000  0.4901260000000 1.0
C      1  0.5811550000000  0.5238150000000  0.4668030000000 1.0
C      1  0.4234630000000  0.5046890000000  0.4386240000000 1.0
C      1  0.5727350000000  0.4333640000000  0.5530800000000 1.0
C      1  0.4569000000000  0.4710720000000  0.4418090000000 1.0
C      1  0.4870820000000  0.5360200000000  0.5078320000000 1.0
C      1  0.5775370000000  0.4373910000000  0.4674660000000 1.0
C      1  0.5357440000000  0.5491660000000  0.5434900000000 1.0
C      1  0.5356290000000  0.5276810000000  0.4295580000000 1.0
C      1  0.4920310000000  0.5811710000000  0.4519090000000 1.0
C      1  0.5490660000000  0.5565940000000  0.4309170000000 1.0
C      1  0.3950790000000  0.4786040000000  0.5037740000000 1.0
C      1  0.5071020000000  0.5112090000000  0.4380700000000 1.0
C      1  0.4718970000000  0.4001200000000  0.5364470000000 1.0
C      1  0.3908430000000  0.5397020000000  0.5116280000000 1.0
C      1  0.4529850000000  0.4479110000000  0.5551520000000 1.0
C      1  0.4697730000000  0.4734260000000  0.5402010000000 1.0
C      1  0.4726420000000  0.4992040000000  0.5996480000000 1.0
END
