TITL C-2848502-4955-703 0.0010024168433772 125000 -344.741607844436 0 0 66 (C1) n - 1
REM
REM in /home/bkarasulu/work/CARBON/AIRSS/Generating-Clusters/AIREBO/with-SteepDescent/Only-C1/SD-CG-opt/Try1-1.4A-POS3A/HFTN-CG
REM
REM
REM
REM
REM
REM ./C.cell (11c1c37f851c82e70ff6c80c92926a4b)
REM
REM compiler GCC version 9.2.1 20190827 (Red Hat 9.2.1-1)
REM options -cpp -mtune=generic -march=x86-64 -g -O0 -fpre-include=/usr/include/finclude/math-vector-fortran.h
REM seed -1754298461 416625647 -1843379722 2139200948 1604871637 236254437 650640156 -484010559 -650181808 2044303422 -1641584813 -191273488 -426180396 1388940511 292403005 -1631550025 -356330858 617731554 1571126812 751257679 1962154273 -1846268832 1946190451 1591409735 -851900269 -1492410551 884769823 -1452834162 -2103445332 -697703213 -1031611689 801402281 1071393032
REM
CELL 1.54180   50.00000   50.00000   50.00000   90.00000   90.00000   90.00000
LATT -1
SFAC C  
C      1  0.4494510000000  0.5442190000000  0.5483140000000 1.0
C      1  0.5186660000000  0.4991740000000  0.4815840000000 1.0
C      1  0.5865020000000  0.5375460000000  0.5541560000000 1.0
C      1  0.5045380000000  0.4308120000000  0.5332830000000 1.0
C      1  0.4807270000000  0.5317490000000  0.5269780000000 1.0
C      1  0.4142520000000  0.4538350000000  0.4783420000000 1.0
C      1  0.4752920000000  0.4978310000000  0.4530760000000 1.0
C      1  0.5543620000000  0.4875010000000  0.5473620000000 1.0
C      1  0.4432220000000  0.4870310000000  0.4564400000000 1.0
C      1  0.4735950000000  0.5829980000000  0.4503330000000 1.0
C      1  0.5237380000000  0.4690460000000  0.4940240000000 1.0
C      1  0.5358550000000  0.4381170000000  0.5298580000000 1.0
C      1  0.5226430000000  0.4755700000000  0.5502670000000 1.0
C      1  0.5782720000000  0.4959550000000  0.4946290000000 1.0
C      1  0.5020110000000  0.4616270000000  0.5191140000000 1.0
C      1  0.5525620000000  0.4695770000000  0.4759800000000 1.0
C      1  0.4681640000000  0.5601300000000  0.5259130000000 1.0
C      1  0.5573330000000  0.5439360000000  0.5453510000000 1.0
C      1  0.4302600000000  0.5236670000000  0.5404340000000 1.0
C      1  0.5097740000000  0.5404030000000  0.4461760000000 1.0
C      1  0.5167090000000  0.5730670000000  0.5110600000000 1.0
C      1  0.5310320000000  0.5038390000000  0.5649150000000 1.0
C      1  0.4648760000000  0.4753160000000  0.5398260000000 1.0
C      1  0.5125390000000  0.4276910000000  0.4739650000000 1.0
C      1  0.5589100000000  0.4420860000000  0.4707840000000 1.0
C      1  0.4657650000000  0.4732500000000  0.4999620000000 1.0
C      1  0.5279390000000  0.5330510000000  0.5552340000000 1.0
C      1  0.4891760000000  0.4888250000000  0.5062220000000 1.0
C      1  0.4748340000000  0.5063810000000  0.4220160000000 1.0
C      1  0.5115100000000  0.4572020000000  0.4645800000000 1.0
C      1  0.4470910000000  0.4943970000000  0.5616480000000 1.0
C      1  0.4807480000000  0.4284650000000  0.5132170000000 1.0
C      1  0.4901310000000  0.4186690000000  0.4884210000000 1.0
C      1  0.4823610000000  0.5040050000000  0.5456270000000 1.0
C      1  0.5403940000000  0.4210550000000  0.4730720000000 1.0
C      1  0.4282610000000  0.4766740000000  0.4785720000000 1.0
C      1  0.5313190000000  0.5504000000000  0.5261100000000 1.0
C      1  0.4698910000000  0.4485480000000  0.4415060000000 1.0
C      1  0.5566890000000  0.4941890000000  0.4610530000000 1.0
C      1  0.5257450000000  0.5721320000000  0.4848700000000 1.0
C      1  0.5740440000000  0.5109410000000  0.5414780000000 1.0
C      1  0.4943580000000  0.4640370000000  0.5524700000000 1.0
C      1  0.4626760000000  0.4494890000000  0.5177640000000 1.0
C      1  0.4390840000000  0.4938820000000  0.5276990000000 1.0
C      1  0.5413340000000  0.4673100000000  0.5230850000000 1.0
C      1  0.4621340000000  0.5224670000000  0.5644730000000 1.0
C      1  0.4742930000000  0.5128490000000  0.3973340000000 1.0
C      1  0.4890490000000  0.5627480000000  0.4487050000000 1.0
C      1  0.5304640000000  0.4615730000000  0.4436210000000 1.0
C      1  0.5181510000000  0.5353300000000  0.4983430000000 1.0
C      1  0.4520810000000  0.5634970000000  0.4991630000000 1.0
C      1  0.4841240000000  0.4658500000000  0.4554810000000 1.0
C      1  0.5344430000000  0.5094150000000  0.5099110000000 1.0
C      1  0.4377330000000  0.5191050000000  0.4882700000000 1.0
C      1  0.4890030000000  0.5188450000000  0.4995230000000 1.0
C      1  0.5638710000000  0.5070970000000  0.5138160000000 1.0
C      1  0.4928750000000  0.5796410000000  0.5226460000000 1.0
C      1  0.4302700000000  0.4951900000000  0.4994440000000 1.0
C      1  0.5311690000000  0.5423950000000  0.4692900000000 1.0
C      1  0.5107740000000  0.5168920000000  0.5330190000000 1.0
C      1  0.5051450000000  0.5122450000000  0.4606330000000 1.0
C      1  0.5567670000000  0.5224980000000  0.4606650000000 1.0
C      1  0.5200190000000  0.5382790000000  0.4200460000000 1.0
C      1  0.4574070000000  0.5520050000000  0.4773450000000 1.0
C      1  0.4936480000000  0.4352920000000  0.5647970000000 1.0
C      1  0.4679430000000  0.5211630000000  0.4767070000000 1.0
END
