TITL C-2848500-1637-208 0.00213098957224857 125000 -602.20734847567 0 0 115 (C1) n - 1
REM
REM in /home/bkarasulu/work/CARBON/AIRSS/Generating-Clusters/AIREBO/with-SteepDescent/Only-C1/SD-CG-opt/Try1-1.4A-POS3A/HFTN-CG
REM
REM
REM
REM
REM
REM ./C.cell (11c1c37f851c82e70ff6c80c92926a4b)
REM
REM compiler GCC version 9.2.1 20190827 (Red Hat 9.2.1-1)
REM options -cpp -mtune=generic -march=x86-64 -g -O0 -fpre-include=/usr/include/finclude/math-vector-fortran.h
REM seed 554048853 525205482 -817670094 392448804 -1517998901 988357566 965155490 222887440 173804301 700578564 -1066958593 -2006301854 1440893532 364618001 1754069338 457179132 683977910 470757331 -1222440307 -1544820608 -101312690 -250601395 1629027227 217641289 -1310421610 -308127167 -1274077820 1128930024 1275620509 -1642889522 324631750 809223943 -802029066
REM
CELL 1.54180   50.00000   50.00000   50.00000   90.00000   90.00000   90.00000
LATT -1
SFAC C  
C      1  0.5277590000000  0.5315580000000  0.5791630000000 1.0
C      1  0.5812420000000  0.4377660000000  0.4587110000000 1.0
C      1  0.4925370000000  0.4434930000000  0.4873280000000 1.0
C      1  0.5708270000000  0.4614550000000  0.5115070000000 1.0
C      1  0.4582620000000  0.4213150000000  0.5135440000000 1.0
C      1  0.5342830000000  0.4472360000000  0.5557340000000 1.0
C      1  0.5707640000000  0.4616100000000  0.4787350000000 1.0
C      1  0.5381400000000  0.5053920000000  0.4791560000000 1.0
C      1  0.4342370000000  0.5593880000000  0.5101710000000 1.0
C      1  0.5118610000000  0.4230760000000  0.5254550000000 1.0
C      1  0.5608680000000  0.5025130000000  0.4271570000000 1.0
C      1  0.4150520000000  0.4986550000000  0.5183980000000 1.0
C      1  0.5522450000000  0.5594300000000  0.5174950000000 1.0
C      1  0.4888050000000  0.5284260000000  0.4748580000000 1.0
C      1  0.5600740000000  0.5137130000000  0.5641140000000 1.0
C      1  0.4955730000000  0.5249150000000  0.5779840000000 1.0
C      1  0.4511400000000  0.4336050000000  0.5402980000000 1.0
C      1  0.4666400000000  0.4198940000000  0.4528360000000 1.0
C      1  0.4852290000000  0.4927880000000  0.5824240000000 1.0
C      1  0.4543590000000  0.4380210000000  0.5673180000000 1.0
C      1  0.5395510000000  0.5289920000000  0.4264720000000 1.0
C      1  0.4169000000000  0.5089550000000  0.5624600000000 1.0
C      1  0.4153550000000  0.4811090000000  0.4691190000000 1.0
C      1  0.5029280000000  0.4778830000000  0.5575110000000 1.0
C      1  0.4482800000000  0.5298910000000  0.5491570000000 1.0
C      1  0.4910000000000  0.4595110000000  0.5314910000000 1.0
C      1  0.5066980000000  0.5570270000000  0.5766030000000 1.0
C      1  0.4608260000000  0.4910630000000  0.5368230000000 1.0
C      1  0.5415420000000  0.4166750000000  0.4808940000000 1.0
C      1  0.4698280000000  0.5363960000000  0.5236410000000 1.0
C      1  0.5505890000000  0.4770770000000  0.4229550000000 1.0
C      1  0.4214000000000  0.4599100000000  0.4870360000000 1.0
C      1  0.4605390000000  0.4699220000000  0.5775480000000 1.0
C      1  0.5149160000000  0.4555300000000  0.5801720000000 1.0
C      1  0.5440420000000  0.5772080000000  0.4908680000000 1.0
C      1  0.5623130000000  0.4315240000000  0.5036580000000 1.0
C      1  0.5179610000000  0.5126390000000  0.5029590000000 1.0
C      1  0.5048480000000  0.4909490000000  0.4175690000000 1.0
C      1  0.5379050000000  0.4121970000000  0.5141920000000 1.0
C      1  0.5112160000000  0.5720950000000  0.4514770000000 1.0
C      1  0.4090090000000  0.5060210000000  0.4798150000000 1.0
C      1  0.5731020000000  0.4880990000000  0.5514750000000 1.0
C      1  0.4903250000000  0.4991540000000  0.5341580000000 1.0
C      1  0.4760120000000  0.4731950000000  0.4216430000000 1.0
C      1  0.5418520000000  0.4703440000000  0.5241470000000 1.0
C      1  0.4671880000000  0.4870770000000  0.4874260000000 1.0
C      1  0.5355630000000  0.4612100000000  0.4497900000000 1.0
C      1  0.4943990000000  0.4920970000000  0.5033760000000 1.0
C      1  0.4995300000000  0.5277280000000  0.5366070000000 1.0
C      1  0.5212330000000  0.4918260000000  0.4456240000000 1.0
C      1  0.4902750000000  0.4707220000000  0.4587730000000 1.0
C      1  0.4171320000000  0.5308890000000  0.5416240000000 1.0
C      1  0.5437170000000  0.5002380000000  0.5183050000000 1.0
C      1  0.4846730000000  0.4462500000000  0.5739080000000 1.0
C      1  0.4625620000000  0.5199560000000  0.4947720000000 1.0
C      1  0.5469430000000  0.5440570000000  0.5540270000000 1.0
C      1  0.4358500000000  0.4311860000000  0.4939270000000 1.0
C      1  0.5076030000000  0.4278850000000  0.5565190000000 1.0
C      1  0.5131790000000  0.5890920000000  0.4963900000000 1.0
C      1  0.4658270000000  0.5514040000000  0.4703180000000 1.0
C      1  0.4333430000000  0.4866160000000  0.4456610000000 1.0
C      1  0.4955600000000  0.5114660000000  0.4504040000000 1.0
C      1  0.5274490000000  0.4527320000000  0.4178680000000 1.0
C      1  0.4934320000000  0.5592390000000  0.5463510000000 1.0
C      1  0.4795150000000  0.5923840000000  0.4883550000000 1.0
C      1  0.5514360000000  0.5625180000000  0.4674540000000 1.0
C      1  0.5809520000000  0.5452280000000  0.5205670000000 1.0
C      1  0.5870240000000  0.5187190000000  0.5161280000000 1.0
C      1  0.5311990000000  0.4959760000000  0.5612770000000 1.0
C      1  0.4731820000000  0.5619110000000  0.5020570000000 1.0
C      1  0.4643060000000  0.4878820000000  0.4568830000000 1.0
C      1  0.4269200000000  0.4704170000000  0.5135880000000 1.0
C      1  0.5122500000000  0.5198850000000  0.4129460000000 1.0
C      1  0.5141290000000  0.4821490000000  0.4774390000000 1.0
C      1  0.4908570000000  0.5381340000000  0.4149840000000 1.0
C      1  0.4278240000000  0.5164270000000  0.4352440000000 1.0
C      1  0.5162670000000  0.4529310000000  0.5097850000000 1.0
C      1  0.5157740000000  0.5448210000000  0.4712720000000 1.0
C      1  0.4625670000000  0.5360190000000  0.4337460000000 1.0
C      1  0.5372750000000  0.5264700000000  0.4577660000000 1.0
C      1  0.4945610000000  0.4303810000000  0.4562750000000 1.0
C      1  0.4848960000000  0.4116650000000  0.5100660000000 1.0
C      1  0.4476140000000  0.4599040000000  0.4349270000000 1.0
C      1  0.4800860000000  0.5838950000000  0.5270970000000 1.0
C      1  0.4703120000000  0.5056090000000  0.4303070000000 1.0
C      1  0.4580410000000  0.4602270000000  0.5227890000000 1.0
C      1  0.5270640000000  0.5428090000000  0.5014370000000 1.0
C      1  0.5001250000000  0.4523840000000  0.4335680000000 1.0
C      1  0.5815300000000  0.5013970000000  0.4466840000000 1.0
C      1  0.4377950000000  0.5405320000000  0.4529930000000 1.0
C      1  0.5799230000000  0.4897740000000  0.4713220000000 1.0
C      1  0.4629770000000  0.5558510000000  0.5585590000000 1.0
C      1  0.5125610000000  0.5632660000000  0.5185070000000 1.0
C      1  0.5520590000000  0.4322100000000  0.4563480000000 1.0
C      1  0.4509970000000  0.4425910000000  0.4588920000000 1.0
C      1  0.4652030000000  0.5190990000000  0.5898070000000 1.0
C      1  0.5427980000000  0.5055800000000  0.5921120000000 1.0
C      1  0.4608250000000  0.4538420000000  0.4894740000000 1.0
C      1  0.4877680000000  0.5540730000000  0.4443510000000 1.0
C      1  0.5837390000000  0.4897570000000  0.5253280000000 1.0
C      1  0.5671060000000  0.5082510000000  0.4940220000000 1.0
C      1  0.4495580000000  0.5002660000000  0.5662120000000 1.0
C      1  0.5290910000000  0.5209310000000  0.5402290000000 1.0
C      1  0.4330520000000  0.5299770000000  0.4818270000000 1.0
C      1  0.4145720000000  0.5316030000000  0.5098560000000 1.0
C      1  0.5123950000000  0.5923890000000  0.5360570000000 1.0
C      1  0.5403190000000  0.5747830000000  0.5443120000000 1.0
C      1  0.5648360000000  0.5362040000000  0.4746790000000 1.0
C      1  0.5401980000000  0.5611120000000  0.4387770000000 1.0
C      1  0.5372190000000  0.4589670000000  0.4836820000000 1.0
C      1  0.4442610000000  0.5060300000000  0.5175420000000 1.0
C      1  0.4514400000000  0.5873330000000  0.5081760000000 1.0
C      1  0.5029310000000  0.5970730000000  0.4660770000000 1.0
C      1  0.5093560000000  0.4149220000000  0.4863800000000 1.0
C      1  0.5570250000000  0.4641570000000  0.5539400000000 1.0
END
