TITL C-2848499-1157-55 -0.00193232044387709 125000 -920.668363471717 0 0 166 (C1) n - 1
REM
REM in /home/bkarasulu/work/CARBON/AIRSS/Generating-Clusters/AIREBO/with-SteepDescent/Only-C1/SD-CG-opt/Try1-1.4A-POS3A/HFTN-CG
REM
REM
REM
REM
REM
REM ./C.cell (11c1c37f851c82e70ff6c80c92926a4b)
REM
REM compiler GCC version 9.2.1 20190827 (Red Hat 9.2.1-1)
REM options -cpp -mtune=generic -march=x86-64 -g -O0 -fpre-include=/usr/include/finclude/math-vector-fortran.h
REM seed 1331644866 1329625773 -679695411 47837111 -483648591 535708247 1504514695 -2026365584 232407685 -1622187480 -110135345 -1047537398 534522616 1095867776 1176667435 1696489609 -1124943759 -565358662 -1975992622 -239317885 -1653908174 1764916388 -1855076553 498900185 -377578452 1828790498 1318802659 93131738 1251555370 1915606682 1002428665 -199501691 -867553858
REM
CELL 1.54180   50.00000   50.00000   50.00000   90.00000   90.00000   90.00000
LATT -1
SFAC C  
C      1  0.4683110000000  0.4842830000000  0.4029010000000 1.0
C      1  0.5465410000000  0.4996560000000  0.5326270000000 1.0
C      1  0.5370220000000  0.5749010000000  0.4494720000000 1.0
C      1  0.4567560000000  0.5193990000000  0.5697490000000 1.0
C      1  0.4817870000000  0.6046220000000  0.4782830000000 1.0
C      1  0.4886720000000  0.4877990000000  0.4945400000000 1.0
C      1  0.4432310000000  0.5075060000000  0.4021490000000 1.0
C      1  0.5799740000000  0.5612430000000  0.4530550000000 1.0
C      1  0.4381010000000  0.4249520000000  0.5475330000000 1.0
C      1  0.5195400000000  0.5502480000000  0.5321590000000 1.0
C      1  0.4661290000000  0.5875860000000  0.4256210000000 1.0
C      1  0.4986010000000  0.4965840000000  0.5591950000000 1.0
C      1  0.5158280000000  0.5164710000000  0.4948870000000 1.0
C      1  0.5368040000000  0.4310230000000  0.4470170000000 1.0
C      1  0.4094110000000  0.5069330000000  0.5485150000000 1.0
C      1  0.5097900000000  0.4400140000000  0.4891980000000 1.0
C      1  0.4676850000000  0.4912200000000  0.5605250000000 1.0
C      1  0.5432720000000  0.4047720000000  0.5564500000000 1.0
C      1  0.4287690000000  0.4726360000000  0.5501010000000 1.0
C      1  0.5082510000000  0.5247880000000  0.5475300000000 1.0
C      1  0.5216170000000  0.4781360000000  0.5699580000000 1.0
C      1  0.4587960000000  0.5532250000000  0.5909750000000 1.0
C      1  0.4800950000000  0.6047390000000  0.5180630000000 1.0
C      1  0.5747430000000  0.4936750000000  0.4266400000000 1.0
C      1  0.4722550000000  0.4572980000000  0.5182560000000 1.0
C      1  0.4420270000000  0.4953820000000  0.4320840000000 1.0
C      1  0.4546550000000  0.5357480000000  0.5423800000000 1.0
C      1  0.4947260000000  0.4075490000000  0.4394560000000 1.0
C      1  0.5200490000000  0.4878930000000  0.4032950000000 1.0
C      1  0.4416740000000  0.5409470000000  0.5046900000000 1.0
C      1  0.4954490000000  0.4663650000000  0.5973600000000 1.0
C      1  0.4463620000000  0.4669790000000  0.4406580000000 1.0
C      1  0.4971110000000  0.4882500000000  0.4623160000000 1.0
C      1  0.5486820000000  0.5408390000000  0.3853640000000 1.0
C      1  0.4446040000000  0.5568530000000  0.5627890000000 1.0
C      1  0.4413110000000  0.4332380000000  0.4363780000000 1.0
C      1  0.4873340000000  0.3864070000000  0.4844570000000 1.0
C      1  0.4196750000000  0.5133070000000  0.4504270000000 1.0
C      1  0.4954050000000  0.5081570000000  0.5207940000000 1.0
C      1  0.5409220000000  0.5788670000000  0.5126050000000 1.0
C      1  0.4574420000000  0.5672760000000  0.4934400000000 1.0
C      1  0.5319620000000  0.4065510000000  0.5003500000000 1.0
C      1  0.4945150000000  0.4454210000000  0.5705140000000 1.0
C      1  0.4339950000000  0.4463510000000  0.5736440000000 1.0
C      1  0.5500260000000  0.4776300000000  0.4096720000000 1.0
C      1  0.4657900000000  0.4375190000000  0.5646290000000 1.0
C      1  0.4399620000000  0.4171270000000  0.4925000000000 1.0
C      1  0.5291590000000  0.5119410000000  0.5939820000000 1.0
C      1  0.5525510000000  0.5082820000000  0.3951600000000 1.0
C      1  0.4056120000000  0.4921300000000  0.4700810000000 1.0
C      1  0.4802200000000  0.5658490000000  0.4419520000000 1.0
C      1  0.5200660000000  0.4842550000000  0.6018480000000 1.0
C      1  0.4772470000000  0.5285710000000  0.5927850000000 1.0
C      1  0.5593590000000  0.5971420000000  0.4823020000000 1.0
C      1  0.5074700000000  0.5289890000000  0.5806880000000 1.0
C      1  0.5638670000000  0.5844320000000  0.4547560000000 1.0
C      1  0.5711670000000  0.5703470000000  0.4996050000000 1.0
C      1  0.4304640000000  0.5208110000000  0.5296950000000 1.0
C      1  0.5750850000000  0.4956590000000  0.5197770000000 1.0
C      1  0.5918310000000  0.5180630000000  0.4767330000000 1.0
C      1  0.5433080000000  0.4532940000000  0.5299290000000 1.0
C      1  0.4180970000000  0.4519260000000  0.4504640000000 1.0
C      1  0.5058610000000  0.6108470000000  0.5517470000000 1.0
C      1  0.4723000000000  0.4502020000000  0.4549100000000 1.0
C      1  0.5932330000000  0.4771530000000  0.5354860000000 1.0
C      1  0.4964740000000  0.5574590000000  0.5672870000000 1.0
C      1  0.5240730000000  0.4723970000000  0.4531350000000 1.0
C      1  0.4554460000000  0.4216690000000  0.4632100000000 1.0
C      1  0.5632360000000  0.4289640000000  0.5316370000000 1.0
C      1  0.5172230000000  0.4827940000000  0.5269030000000 1.0
C      1  0.5336400000000  0.4472970000000  0.5777410000000 1.0
C      1  0.5192170000000  0.5987490000000  0.5229080000000 1.0
C      1  0.4267720000000  0.5057610000000  0.4930060000000 1.0
C      1  0.5114190000000  0.4518930000000  0.5416290000000 1.0
C      1  0.5881330000000  0.5005710000000  0.4565760000000 1.0
C      1  0.4647340000000  0.4945720000000  0.4643690000000 1.0
C      1  0.4598580000000  0.4552260000000  0.3954130000000 1.0
C      1  0.3908870000000  0.5356520000000  0.5149940000000 1.0
C      1  0.4109510000000  0.5549330000000  0.5102790000000 1.0
C      1  0.4950310000000  0.5292020000000  0.4054260000000 1.0
C      1  0.4688390000000  0.4886580000000  0.5292090000000 1.0
C      1  0.4078550000000  0.4639960000000  0.4731380000000 1.0
C      1  0.5891750000000  0.5200720000000  0.5064060000000 1.0
C      1  0.4938680000000  0.5508440000000  0.4927890000000 1.0
C      1  0.4717810000000  0.4789180000000  0.6037310000000 1.0
C      1  0.5175240000000  0.3971800000000  0.4784060000000 1.0
C      1  0.4846330000000  0.3599750000000  0.4922590000000 1.0
C      1  0.5467170000000  0.4752350000000  0.5524650000000 1.0
C      1  0.4624870000000  0.4348770000000  0.4135860000000 1.0
C      1  0.4607080000000  0.5071810000000  0.4948680000000 1.0
C      1  0.4882980000000  0.4303650000000  0.4241000000000 1.0
C      1  0.5638790000000  0.5795890000000  0.5376760000000 1.0
C      1  0.5186570000000  0.5910340000000  0.4622330000000 1.0
C      1  0.5373430000000  0.5224290000000  0.4403630000000 1.0
C      1  0.4551390000000  0.6073040000000  0.4677150000000 1.0
C      1  0.5729060000000  0.4834720000000  0.4893200000000 1.0
C      1  0.5340910000000  0.5467860000000  0.4606060000000 1.0
C      1  0.5058880000000  0.5326570000000  0.4679400000000 1.0
C      1  0.5966980000000  0.4508610000000  0.5180880000000 1.0
C      1  0.5720040000000  0.4721290000000  0.5684120000000 1.0
C      1  0.5798710000000  0.5482640000000  0.4293170000000 1.0
C      1  0.5498010000000  0.4488350000000  0.4207930000000 1.0
C      1  0.4382290000000  0.5880470000000  0.4794560000000 1.0
C      1  0.4279900000000  0.5341350000000  0.4743090000000 1.0
C      1  0.5737160000000  0.4922590000000  0.5864430000000 1.0
C      1  0.5648820000000  0.4354530000000  0.4857660000000 1.0
C      1  0.4159790000000  0.5208770000000  0.4174130000000 1.0
C      1  0.5582770000000  0.4158360000000  0.5045970000000 1.0
C      1  0.4262260000000  0.4340650000000  0.5169730000000 1.0
C      1  0.5594010000000  0.5644900000000  0.5766360000000 1.0
C      1  0.5451360000000  0.5020810000000  0.4929740000000 1.0
C      1  0.3946380000000  0.4854460000000  0.5311700000000 1.0
C      1  0.4828840000000  0.4556140000000  0.4867730000000 1.0
C      1  0.4636040000000  0.5491760000000  0.4653180000000 1.0
C      1  0.4738540000000  0.5336900000000  0.5143780000000 1.0
C      1  0.5471480000000  0.4926130000000  0.4465620000000 1.0
C      1  0.4809510000000  0.4267460000000  0.5151610000000 1.0
C      1  0.5556240000000  0.5331010000000  0.4177370000000 1.0
C      1  0.5710480000000  0.4721660000000  0.4594750000000 1.0
C      1  0.5556320000000  0.5143380000000  0.5845960000000 1.0
C      1  0.5124440000000  0.4257150000000  0.5199370000000 1.0
C      1  0.4717690000000  0.5785990000000  0.5177480000000 1.0
C      1  0.4507660000000  0.4733820000000  0.5830130000000 1.0
C      1  0.5517930000000  0.5328430000000  0.5003190000000 1.0
C      1  0.5370140000000  0.4712840000000  0.5017600000000 1.0
C      1  0.4684960000000  0.4087300000000  0.4986520000000 1.0
C      1  0.4523170000000  0.4539830000000  0.5395860000000 1.0
C      1  0.5200610000000  0.5180560000000  0.3982320000000 1.0
C      1  0.5839010000000  0.4539170000000  0.4935680000000 1.0
C      1  0.4543300000000  0.6085480000000  0.4392690000000 1.0
C      1  0.5053500000000  0.6160760000000  0.4988330000000 1.0
C      1  0.5316140000000  0.6061880000000  0.4830290000000 1.0
C      1  0.5848470000000  0.4476220000000  0.5501060000000 1.0
C      1  0.5379360000000  0.4503410000000  0.4749840000000 1.0
C      1  0.4980700000000  0.4567520000000  0.4376960000000 1.0
C      1  0.5117920000000  0.4161250000000  0.6154680000000 1.0
C      1  0.4950980000000  0.4814910000000  0.4197540000000 1.0
C      1  0.3977150000000  0.5085070000000  0.5104640000000 1.0
C      1  0.5198500000000  0.4023370000000  0.5427920000000 1.0
C      1  0.4358770000000  0.4884230000000  0.5208340000000 1.0
C      1  0.4727050000000  0.5046180000000  0.6131960000000 1.0
C      1  0.5198590000000  0.4074590000000  0.4521140000000 1.0
C      1  0.5416120000000  0.5808870000000  0.5708460000000 1.0
C      1  0.5750350000000  0.5450590000000  0.4786980000000 1.0
C      1  0.5457930000000  0.5320350000000  0.5337890000000 1.0
C      1  0.4191660000000  0.5654320000000  0.4824770000000 1.0
C      1  0.5859360000000  0.5451830000000  0.5170890000000 1.0
C      1  0.5277200000000  0.5543490000000  0.4932490000000 1.0
C      1  0.4929250000000  0.5757980000000  0.4696280000000 1.0
C      1  0.4524040000000  0.4701070000000  0.4826030000000 1.0
C      1  0.4302060000000  0.4982870000000  0.5723740000000 1.0
C      1  0.4731950000000  0.5164350000000  0.3929810000000 1.0
C      1  0.4419180000000  0.5801480000000  0.5850830000000 1.0
C      1  0.4272900000000  0.4632820000000  0.4995880000000 1.0
C      1  0.5668750000000  0.4461430000000  0.4473940000000 1.0
C      1  0.5616520000000  0.5348410000000  0.5633550000000 1.0
C      1  0.5768800000000  0.5557200000000  0.5419160000000 1.0
C      1  0.5170240000000  0.5787460000000  0.5505370000000 1.0
C      1  0.5089330000000  0.5061510000000  0.4370590000000 1.0
C      1  0.5522780000000  0.4327540000000  0.5634730000000 1.0
C      1  0.5141150000000  0.4314210000000  0.5936240000000 1.0
C      1  0.4887310000000  0.5334030000000  0.4385870000000 1.0
C      1  0.4870000000000  0.5577310000000  0.5345360000000 1.0
C      1  0.4749390000000  0.3995240000000  0.4579650000000 1.0
C      1  0.4029150000000  0.4591270000000  0.5229300000000 1.0
C      1  0.4588220000000  0.5202520000000  0.4480930000000 1.0
END
