TITL C-2848496-4490-123 -0.00501888027302204 125000 -165.376268552222 0 0 31 (C1) n - 1
REM
REM in /home/bkarasulu/work/CARBON/AIRSS/Generating-Clusters/AIREBO/with-SteepDescent/Only-C1/SD-CG-opt/Try1-1.4A-POS3A/HFTN-CG
REM
REM
REM
REM
REM
REM ./C.cell (11c1c37f851c82e70ff6c80c92926a4b)
REM
REM compiler GCC version 9.2.1 20190827 (Red Hat 9.2.1-1)
REM options -cpp -mtune=generic -march=x86-64 -g -O0 -fpre-include=/usr/include/finclude/math-vector-fortran.h
REM seed -2060179457 1416302774 -1955498582 745809589 -2058548204 428055219 1965551577 -729474860 944359512 1572619095 1341459025 -513217864 911667366 1516424304 -1177121077 1160711674 -1625667814 1977837841 -839422705 483865708 497196830 -85398972 -1438964354 449242355 304271922 -1903862034 1858850190 1922798338 -1484782004 -429546948 1694886312 2003164892 976011975
REM
CELL 1.54180   50.00000   50.00000   50.00000   90.00000   90.00000   90.00000
LATT -1
SFAC C  
C      1  0.4730810000000  0.4530640000000  0.4864450000000 1.0
C      1  0.5364880000000  0.5363030000000  0.5235150000000 1.0
C      1  0.5031840000000  0.4585380000000  0.4925790000000 1.0
C      1  0.4923660000000  0.5459620000000  0.5126800000000 1.0
C      1  0.4590220000000  0.5135490000000  0.5220970000000 1.0
C      1  0.4748620000000  0.5206610000000  0.5476260000000 1.0
C      1  0.4549420000000  0.5241720000000  0.4714440000000 1.0
C      1  0.5010770000000  0.5145140000000  0.4867780000000 1.0
C      1  0.4934390000000  0.5404670000000  0.5413450000000 1.0
C      1  0.5269380000000  0.5309770000000  0.4484960000000 1.0
C      1  0.5217160000000  0.5075210000000  0.4353160000000 1.0
C      1  0.4723470000000  0.5251060000000  0.4967810000000 1.0
C      1  0.4882530000000  0.4691200000000  0.4213670000000 1.0
C      1  0.5745970000000  0.5049010000000  0.5250540000000 1.0
C      1  0.5196120000000  0.4372660000000  0.4835420000000 1.0
C      1  0.5091150000000  0.4850830000000  0.4778010000000 1.0
C      1  0.4542620000000  0.4882960000000  0.5373730000000 1.0
C      1  0.5276660000000  0.4866840000000  0.5288920000000 1.0
C      1  0.4895670000000  0.4647800000000  0.5790530000000 1.0
C      1  0.4791860000000  0.4908890000000  0.5599060000000 1.0
C      1  0.5193560000000  0.5463410000000  0.5024790000000 1.0
C      1  0.5364680000000  0.4964550000000  0.4911530000000 1.0
C      1  0.4692200000000  0.4817730000000  0.4463090000000 1.0
C      1  0.5031070000000  0.4854410000000  0.4472340000000 1.0
C      1  0.4608910000000  0.4587890000000  0.4653250000000 1.0
C      1  0.4546560000000  0.5078360000000  0.4526830000000 1.0
C      1  0.5076350000000  0.4764300000000  0.5526360000000 1.0
C      1  0.5475420000000  0.5084020000000  0.5193040000000 1.0
C      1  0.5201050000000  0.5351140000000  0.4750800000000 1.0
C      1  0.5075340000000  0.4644330000000  0.5214930000000 1.0
C      1  0.5217660000000  0.5411340000000  0.5482130000000 1.0
END
