TITL C-2847951-7423-330 -0.00260270515439193 125000 -1017.74617191744 0 0 192 (C1) n - 1
REM
REM in /home/bkarasulu/work/CARBON/AIRSS/Generating-Clusters/AIREBO/with-SteepDescent/Only-C1/SD-CG-opt/Try1-1.4A-POS3A/HFTN-CG
REM
REM
REM
REM
REM
REM ./C.cell (11c1c37f851c82e70ff6c80c92926a4b)
REM
REM compiler GCC version 9.2.1 20190827 (Red Hat 9.2.1-1)
REM options -cpp -mtune=generic -march=x86-64 -g -O0 -fpre-include=/usr/include/finclude/math-vector-fortran.h
REM seed 1956486879 104359722 -600472126 1993476964 1611696555 -629660221 -949926922 -454889502 -131318276 1577663237 72318665 56692340 336139502 2142604335 1281291841 -1648627063 -1052001481 -305997037 1405312698 -35583455 -1397334127 -1204601639 -109195014 -327511884 1348874026 1860586891 -1349494787 1997631792 -38045607 -565286916 -1895978232 11069673 -478475778
REM
CELL 1.54180   50.00000   50.00000   50.00000   90.00000   90.00000   90.00000
LATT -1
SFAC C  
C      1  0.4050260000000  0.5047680000000  0.5916930000000 1.0
C      1  0.5969070000000  0.5635810000000  0.4627110000000 1.0
C      1  0.4473930000000  0.5302560000000  0.4191490000000 1.0
C      1  0.4951350000000  0.4989510000000  0.3874650000000 1.0
C      1  0.5874980000000  0.4822050000000  0.5741410000000 1.0
C      1  0.4836250000000  0.5681300000000  0.5796870000000 1.0
C      1  0.3857350000000  0.4470060000000  0.5172100000000 1.0
C      1  0.5558150000000  0.4742000000000  0.5425750000000 1.0
C      1  0.4711040000000  0.4422230000000  0.5148870000000 1.0
C      1  0.5981390000000  0.5316170000000  0.4918640000000 1.0
C      1  0.5691790000000  0.5090750000000  0.4250820000000 1.0
C      1  0.5986330000000  0.5609540000000  0.5084320000000 1.0
C      1  0.5378820000000  0.4115360000000  0.5376530000000 1.0
C      1  0.4321630000000  0.4179910000000  0.4571550000000 1.0
C      1  0.4595900000000  0.4297070000000  0.5417670000000 1.0
C      1  0.4571600000000  0.4452160000000  0.4718060000000 1.0
C      1  0.4551600000000  0.5491470000000  0.5290760000000 1.0
C      1  0.5212650000000  0.4988550000000  0.5128300000000 1.0
C      1  0.4749190000000  0.3988980000000  0.4938310000000 1.0
C      1  0.4793410000000  0.5530550000000  0.4741110000000 1.0
C      1  0.5516720000000  0.5553550000000  0.5008200000000 1.0
C      1  0.5064730000000  0.4755190000000  0.5731590000000 1.0
C      1  0.5136870000000  0.5324350000000  0.4925190000000 1.0
C      1  0.5098520000000  0.3736690000000  0.5034910000000 1.0
C      1  0.4351250000000  0.5393190000000  0.5043920000000 1.0
C      1  0.5555400000000  0.4783650000000  0.4306140000000 1.0
C      1  0.4549290000000  0.4351930000000  0.5742450000000 1.0
C      1  0.5316400000000  0.5367350000000  0.5184360000000 1.0
C      1  0.5542730000000  0.4237250000000  0.4277410000000 1.0
C      1  0.5564670000000  0.4328180000000  0.5512000000000 1.0
C      1  0.5137530000000  0.4774500000000  0.4469320000000 1.0
C      1  0.4438260000000  0.4450890000000  0.4401930000000 1.0
C      1  0.5323050000000  0.4962720000000  0.4171600000000 1.0
C      1  0.4643830000000  0.4128020000000  0.4644690000000 1.0
C      1  0.4422320000000  0.5387960000000  0.4753390000000 1.0
C      1  0.5663440000000  0.5335560000000  0.4483170000000 1.0
C      1  0.4085690000000  0.5565530000000  0.5032910000000 1.0
C      1  0.5520420000000  0.4709440000000  0.4987870000000 1.0
C      1  0.5730080000000  0.4502290000000  0.4817420000000 1.0
C      1  0.5558140000000  0.5072950000000  0.4671940000000 1.0
C      1  0.5515270000000  0.5845550000000  0.4596360000000 1.0
C      1  0.5090840000000  0.4547570000000  0.4977870000000 1.0
C      1  0.4299870000000  0.5948420000000  0.5208830000000 1.0
C      1  0.4861280000000  0.4632470000000  0.4407250000000 1.0
C      1  0.4892080000000  0.5183430000000  0.5395920000000 1.0
C      1  0.5015450000000  0.5619440000000  0.4424300000000 1.0
C      1  0.4204250000000  0.4270020000000  0.5046390000000 1.0
C      1  0.4332210000000  0.5771700000000  0.4920060000000 1.0
C      1  0.4205390000000  0.5346190000000  0.4357360000000 1.0
C      1  0.5577440000000  0.5890770000000  0.5611820000000 1.0
C      1  0.5393850000000  0.5863600000000  0.4279250000000 1.0
C      1  0.5134820000000  0.5743510000000  0.4133020000000 1.0
C      1  0.5151160000000  0.5424480000000  0.4102580000000 1.0
C      1  0.5708070000000  0.5024140000000  0.5810170000000 1.0
C      1  0.4136550000000  0.4607810000000  0.4439770000000 1.0
C      1  0.5427570000000  0.5042540000000  0.5387420000000 1.0
C      1  0.4942830000000  0.4824890000000  0.6195490000000 1.0
C      1  0.4696780000000  0.4743500000000  0.5184880000000 1.0
C      1  0.5641260000000  0.3992340000000  0.4995150000000 1.0
C      1  0.4915880000000  0.5161250000000  0.5793490000000 1.0
C      1  0.3969070000000  0.5129750000000  0.5634670000000 1.0
C      1  0.5716700000000  0.5819220000000  0.5079210000000 1.0
C      1  0.5157160000000  0.5103040000000  0.5580250000000 1.0
C      1  0.5333550000000  0.5671270000000  0.5522580000000 1.0
C      1  0.5666190000000  0.4310990000000  0.5054180000000 1.0
C      1  0.4950350000000  0.4379590000000  0.4616600000000 1.0
C      1  0.5021720000000  0.5617150000000  0.4932670000000 1.0
C      1  0.5690220000000  0.5419460000000  0.4811650000000 1.0
C      1  0.4174600000000  0.4915930000000  0.5481250000000 1.0
C      1  0.4826400000000  0.4527620000000  0.5514330000000 1.0
C      1  0.4693270000000  0.5135930000000  0.4341700000000 1.0
C      1  0.4644780000000  0.4866160000000  0.3956200000000 1.0
C      1  0.5265720000000  0.5973330000000  0.5381870000000 1.0
C      1  0.3862390000000  0.4639320000000  0.4957610000000 1.0
C      1  0.4651300000000  0.5981520000000  0.4466710000000 1.0
C      1  0.4933090000000  0.3942470000000  0.5227950000000 1.0
C      1  0.4902500000000  0.5308610000000  0.4508380000000 1.0
C      1  0.4643990000000  0.4771690000000  0.6076620000000 1.0
C      1  0.5018130000000  0.4128610000000  0.4784070000000 1.0
C      1  0.5554590000000  0.5366230000000  0.5947360000000 1.0
C      1  0.5986170000000  0.5006870000000  0.5000440000000 1.0
C      1  0.5001740000000  0.4250410000000  0.5101150000000 1.0
C      1  0.4826090000000  0.4911890000000  0.4807800000000 1.0
C      1  0.5334270000000  0.5565410000000  0.4529610000000 1.0
C      1  0.4759980000000  0.5433430000000  0.6034330000000 1.0
C      1  0.3986130000000  0.4508510000000  0.4700890000000 1.0
C      1  0.5620440000000  0.5190610000000  0.5597410000000 1.0
C      1  0.5776700000000  0.5804020000000  0.4744750000000 1.0
C      1  0.4611210000000  0.4842170000000  0.4353120000000 1.0
C      1  0.5003830000000  0.4373640000000  0.6015510000000 1.0
C      1  0.4626410000000  0.5036980000000  0.5549910000000 1.0
C      1  0.5128370000000  0.4623540000000  0.6103580000000 1.0
C      1  0.6089520000000  0.5203000000000  0.5401100000000 1.0
C      1  0.5124600000000  0.5909070000000  0.4930050000000 1.0
C      1  0.4207080000000  0.5052090000000  0.4779650000000 1.0
C      1  0.4478890000000  0.4983800000000  0.5164600000000 1.0
C      1  0.4798640000000  0.5286490000000  0.4944180000000 1.0
C      1  0.5354570000000  0.6052000000000  0.4767280000000 1.0
C      1  0.3899260000000  0.4912410000000  0.4993100000000 1.0
C      1  0.4989760000000  0.5870290000000  0.5553750000000 1.0
C      1  0.4721490000000  0.5731070000000  0.4281170000000 1.0
C      1  0.5333770000000  0.4757190000000  0.5913230000000 1.0
C      1  0.6054550000000  0.4972640000000  0.4543170000000 1.0
C      1  0.5054170000000  0.5449020000000  0.5752010000000 1.0
C      1  0.5413020000000  0.4571320000000  0.5665820000000 1.0
C      1  0.4462990000000  0.4663570000000  0.5810900000000 1.0
C      1  0.5458190000000  0.6052020000000  0.5097530000000 1.0
C      1  0.4534110000000  0.5087370000000  0.4866410000000 1.0
C      1  0.4300590000000  0.4655340000000  0.5302710000000 1.0
C      1  0.4303060000000  0.5519650000000  0.5733660000000 1.0
C      1  0.6072210000000  0.4465470000000  0.5122310000000 1.0
C      1  0.5648370000000  0.4381240000000  0.4563910000000 1.0
C      1  0.4415180000000  0.4519840000000  0.5012410000000 1.0
C      1  0.4637660000000  0.5656810000000  0.5015790000000 1.0
C      1  0.4008600000000  0.5238420000000  0.4978570000000 1.0
C      1  0.5293250000000  0.5274010000000  0.4635570000000 1.0
C      1  0.4775260000000  0.5092400000000  0.6067330000000 1.0
C      1  0.4737220000000  0.4781010000000  0.5685260000000 1.0
C      1  0.4868480000000  0.4488480000000  0.3987760000000 1.0
C      1  0.5326660000000  0.5762690000000  0.5137800000000 1.0
C      1  0.5339490000000  0.4245670000000  0.5061480000000 1.0
C      1  0.5371250000000  0.4548650000000  0.4460030000000 1.0
C      1  0.5101640000000  0.4093560000000  0.5848870000000 1.0
C      1  0.4992040000000  0.4289130000000  0.4149400000000 1.0
C      1  0.5508460000000  0.5530270000000  0.4247720000000 1.0
C      1  0.5009310000000  0.4833260000000  0.4171130000000 1.0
C      1  0.5800680000000  0.4430040000000  0.5324510000000 1.0
C      1  0.5882050000000  0.4865350000000  0.4353600000000 1.0
C      1  0.6057660000000  0.4948040000000  0.5284130000000 1.0
C      1  0.4771840000000  0.6114750000000  0.5028480000000 1.0
C      1  0.5598460000000  0.5497630000000  0.5644490000000 1.0
C      1  0.5460900000000  0.5030000000000  0.6001830000000 1.0
C      1  0.4344300000000  0.5056940000000  0.5740130000000 1.0
C      1  0.4458510000000  0.5306550000000  0.5940910000000 1.0
C      1  0.4572730000000  0.5663460000000  0.5582360000000 1.0
C      1  0.5443230000000  0.5330500000000  0.3979550000000 1.0
C      1  0.4500800000000  0.5934710000000  0.5405930000000 1.0
C      1  0.5677560000000  0.5010540000000  0.4970040000000 1.0
C      1  0.5009930000000  0.4660550000000  0.3812450000000 1.0
C      1  0.4721670000000  0.4437880000000  0.6003610000000 1.0
C      1  0.4427610000000  0.5603670000000  0.4319290000000 1.0
C      1  0.5852510000000  0.5391330000000  0.5304390000000 1.0
C      1  0.4833270000000  0.4210510000000  0.4373740000000 1.0
C      1  0.6088000000000  0.4832770000000  0.4785830000000 1.0
C      1  0.4582510000000  0.4590040000000  0.4126760000000 1.0
C      1  0.4882770000000  0.5021660000000  0.5124570000000 1.0
C      1  0.5313170000000  0.4430440000000  0.4773740000000 1.0
C      1  0.4788700000000  0.5955910000000  0.5293080000000 1.0
C      1  0.4400850000000  0.5230710000000  0.5384950000000 1.0
C      1  0.3986750000000  0.5565660000000  0.5318710000000 1.0
C      1  0.4121540000000  0.4237570000000  0.4767640000000 1.0
C      1  0.5053680000000  0.5032720000000  0.4637920000000 1.0
C      1  0.4554130000000  0.5995630000000  0.4792400000000 1.0
C      1  0.4850320000000  0.5648430000000  0.3977460000000 1.0
C      1  0.5553960000000  0.3887310000000  0.5238380000000 1.0
C      1  0.5620490000000  0.5215310000000  0.5189050000000 1.0
C      1  0.5274180000000  0.4815690000000  0.3718510000000 1.0
C      1  0.5725170000000  0.5693310000000  0.5395030000000 1.0
C      1  0.5304520000000  0.4615640000000  0.5233470000000 1.0
C      1  0.5884440000000  0.4740230000000  0.5430530000000 1.0
C      1  0.4285320000000  0.4489120000000  0.5577650000000 1.0
C      1  0.5157550000000  0.4446440000000  0.5489320000000 1.0
C      1  0.5136180000000  0.5925330000000  0.4511350000000 1.0
C      1  0.5388190000000  0.5029420000000  0.3876180000000 1.0
C      1  0.4658140000000  0.5346840000000  0.5672120000000 1.0
C      1  0.4378200000000  0.4822090000000  0.4527280000000 1.0
C      1  0.4154390000000  0.5000440000000  0.5172770000000 1.0
C      1  0.5252780000000  0.5295060000000  0.5956140000000 1.0
C      1  0.5265300000000  0.4337630000000  0.4210970000000 1.0
C      1  0.4352010000000  0.4139530000000  0.5393130000000 1.0
C      1  0.5107710000000  0.4029570000000  0.5507380000000 1.0
C      1  0.4905350000000  0.5659020000000  0.5226870000000 1.0
C      1  0.4838720000000  0.4624470000000  0.4806480000000 1.0
C      1  0.4894270000000  0.5315530000000  0.3939430000000 1.0
C      1  0.4132730000000  0.5369070000000  0.5518050000000 1.0
C      1  0.4886600000000  0.6016790000000  0.4723580000000 1.0
C      1  0.4924010000000  0.4258160000000  0.5641910000000 1.0
C      1  0.5306580000000  0.4936280000000  0.4848170000000 1.0
C      1  0.4080670000000  0.4326100000000  0.5358260000000 1.0
C      1  0.6021230000000  0.4572310000000  0.4866980000000 1.0
C      1  0.5486560000000  0.3923260000000  0.4768380000000 1.0
C      1  0.4609890000000  0.5173150000000  0.3953710000000 1.0
C      1  0.5090740000000  0.5459260000000  0.5414080000000 1.0
C      1  0.5258540000000  0.5218580000000  0.4312210000000 1.0
C      1  0.4114360000000  0.5118820000000  0.4486570000000 1.0
C      1  0.4028590000000  0.4898690000000  0.4349640000000 1.0
C      1  0.5519040000000  0.4069060000000  0.4541460000000 1.0
C      1  0.4342510000000  0.5614510000000  0.4618670000000 1.0
C      1  0.5094380000000  0.4824820000000  0.5400120000000 1.0
C      1  0.4227420000000  0.4720720000000  0.4812260000000 1.0
C      1  0.5992200000000  0.5299650000000  0.4580080000000 1.0
C      1  0.5211690000000  0.3875680000000  0.4822260000000 1.0
END
