TITL C-2847953-8112-531 0.00181434291964566 125000 -893.958195356285 0 0 167 (C1) n - 1
REM
REM in /home/bkarasulu/work/CARBON/AIRSS/Generating-Clusters/AIREBO/with-SteepDescent/Only-C1/SD-CG-opt/Try1-1.4A-POS3A/HFTN-CG
REM
REM
REM
REM
REM
REM ./C.cell (11c1c37f851c82e70ff6c80c92926a4b)
REM
REM compiler GCC version 9.2.1 20190827 (Red Hat 9.2.1-1)
REM options -cpp -mtune=generic -march=x86-64 -g -O0 -fpre-include=/usr/include/finclude/math-vector-fortran.h
REM seed 1337706240 1577930040 1634104745 -1243856990 -632379625 -927759414 -1117773108 -1721654121 223544467 1261515148 1157940110 382507814 1537788122 -1980111299 -320991049 -1963270376 127904205 -1980426501 -2063061345 -1954173556 821088727 -1502167563 -591794929 -600348215 908651967 -1655518952 1728124045 -222012421 2022224552 1887883662 -1545566163 -83650578 291517268
REM
CELL 1.54180   50.00000   50.00000   50.00000   90.00000   90.00000   90.00000
LATT -1
SFAC C  
C      1  0.5724740000000  0.4805540000000  0.5067970000000 1.0
C      1  0.4755830000000  0.4963410000000  0.5727410000000 1.0
C      1  0.4819170000000  0.3998310000000  0.4637180000000 1.0
C      1  0.5323320000000  0.5324340000000  0.4619240000000 1.0
C      1  0.4444590000000  0.4807030000000  0.4711820000000 1.0
C      1  0.5471610000000  0.5014820000000  0.4592500000000 1.0
C      1  0.4049910000000  0.5102580000000  0.4441830000000 1.0
C      1  0.4740860000000  0.5269080000000  0.5023990000000 1.0
C      1  0.4910570000000  0.6129150000000  0.5049010000000 1.0
C      1  0.5154320000000  0.5318520000000  0.5597630000000 1.0
C      1  0.5153910000000  0.4330860000000  0.5013500000000 1.0
C      1  0.4426620000000  0.5002940000000  0.4365600000000 1.0
C      1  0.5721390000000  0.4912560000000  0.4299720000000 1.0
C      1  0.4998920000000  0.4498270000000  0.4441950000000 1.0
C      1  0.4124420000000  0.4919610000000  0.4733780000000 1.0
C      1  0.4951040000000  0.5531090000000  0.5979620000000 1.0
C      1  0.5016550000000  0.3842060000000  0.4813030000000 1.0
C      1  0.4595640000000  0.4516020000000  0.4671470000000 1.0
C      1  0.4963480000000  0.5697380000000  0.4930760000000 1.0
C      1  0.4344200000000  0.5528880000000  0.4403610000000 1.0
C      1  0.5342720000000  0.4465760000000  0.5251900000000 1.0
C      1  0.4657720000000  0.5943560000000  0.4643330000000 1.0
C      1  0.6023200000000  0.5296790000000  0.5048510000000 1.0
C      1  0.4425200000000  0.4018260000000  0.4423180000000 1.0
C      1  0.5024200000000  0.4421510000000  0.5929540000000 1.0
C      1  0.5249470000000  0.4165280000000  0.3964520000000 1.0
C      1  0.5298870000000  0.5843890000000  0.5601610000000 1.0
C      1  0.4733420000000  0.5955180000000  0.5270390000000 1.0
C      1  0.5064780000000  0.5040920000000  0.5421100000000 1.0
C      1  0.4851870000000  0.5734520000000  0.4503920000000 1.0
C      1  0.5448150000000  0.5084590000000  0.5842140000000 1.0
C      1  0.4560990000000  0.5528530000000  0.4899450000000 1.0
C      1  0.5238870000000  0.4666710000000  0.5580800000000 1.0
C      1  0.5718410000000  0.4384250000000  0.4269490000000 1.0
C      1  0.4432180000000  0.4011790000000  0.4953870000000 1.0
C      1  0.6054660000000  0.5024550000000  0.4936030000000 1.0
C      1  0.4912140000000  0.5515570000000  0.5462770000000 1.0
C      1  0.4739150000000  0.4874710000000  0.4589070000000 1.0
C      1  0.5035380000000  0.5463230000000  0.4735990000000 1.0
C      1  0.4381300000000  0.5388630000000  0.5142260000000 1.0
C      1  0.5959120000000  0.5281160000000  0.5324230000000 1.0
C      1  0.4787380000000  0.5202280000000  0.5496580000000 1.0
C      1  0.5994910000000  0.4649020000000  0.5161250000000 1.0
C      1  0.4622450000000  0.4172620000000  0.4282570000000 1.0
C      1  0.4790350000000  0.4721830000000  0.4888600000000 1.0
C      1  0.5224820000000  0.4606500000000  0.5890700000000 1.0
C      1  0.5667980000000  0.4858830000000  0.5742760000000 1.0
C      1  0.4654080000000  0.5834340000000  0.4965350000000 1.0
C      1  0.4179020000000  0.5856790000000  0.4799840000000 1.0
C      1  0.5807680000000  0.5462070000000  0.5533450000000 1.0
C      1  0.5485810000000  0.4982100000000  0.4064300000000 1.0
C      1  0.5127580000000  0.4168130000000  0.4261480000000 1.0
C      1  0.4291850000000  0.5052320000000  0.5497540000000 1.0
C      1  0.4703810000000  0.5728650000000  0.5525080000000 1.0
C      1  0.4311870000000  0.5543640000000  0.5943580000000 1.0
C      1  0.4372190000000  0.5332220000000  0.6071450000000 1.0
C      1  0.5323170000000  0.4888270000000  0.4317770000000 1.0
C      1  0.4238320000000  0.5294850000000  0.4865720000000 1.0
C      1  0.4972650000000  0.5992220000000  0.4783800000000 1.0
C      1  0.6052830000000  0.4957120000000  0.4630640000000 1.0
C      1  0.4460520000000  0.4305620000000  0.5626020000000 1.0
C      1  0.5439830000000  0.4851750000000  0.4993790000000 1.0
C      1  0.5278990000000  0.4561310000000  0.4356540000000 1.0
C      1  0.5444270000000  0.5246950000000  0.5334500000000 1.0
C      1  0.4927220000000  0.5011810000000  0.3874400000000 1.0
C      1  0.5827350000000  0.4391930000000  0.5068000000000 1.0
C      1  0.5732290000000  0.4447770000000  0.4771390000000 1.0
C      1  0.5884960000000  0.5127210000000  0.4436060000000 1.0
C      1  0.5006740000000  0.5010260000000  0.4664110000000 1.0
C      1  0.5939310000000  0.5331880000000  0.4710780000000 1.0
C      1  0.4464110000000  0.5094760000000  0.4045280000000 1.0
C      1  0.4463340000000  0.5580620000000  0.5658800000000 1.0
C      1  0.5064240000000  0.5649080000000  0.5204250000000 1.0
C      1  0.5794880000000  0.5744120000000  0.5365420000000 1.0
C      1  0.5473540000000  0.5656390000000  0.5811330000000 1.0
C      1  0.4617310000000  0.4772590000000  0.5329010000000 1.0
C      1  0.4867710000000  0.5501980000000  0.3817920000000 1.0
C      1  0.5457420000000  0.4086980000000  0.4976440000000 1.0
C      1  0.4460870000000  0.4194000000000  0.5148080000000 1.0
C      1  0.5530150000000  0.5291940000000  0.4016000000000 1.0
C      1  0.5202550000000  0.4904340000000  0.3891730000000 1.0
C      1  0.5025850000000  0.5279760000000  0.4224980000000 1.0
C      1  0.4319120000000  0.5418300000000  0.5451210000000 1.0
C      1  0.4031980000000  0.4752670000000  0.5474040000000 1.0
C      1  0.5424870000000  0.4322130000000  0.4200930000000 1.0
C      1  0.4725590000000  0.4105860000000  0.5552120000000 1.0
C      1  0.5562040000000  0.5777280000000  0.4543650000000 1.0
C      1  0.5813410000000  0.5620240000000  0.4697180000000 1.0
C      1  0.5144320000000  0.3993050000000  0.5051430000000 1.0
C      1  0.5192230000000  0.4709250000000  0.5128770000000 1.0
C      1  0.4513960000000  0.3955680000000  0.4693570000000 1.0
C      1  0.4659710000000  0.4907140000000  0.3926030000000 1.0
C      1  0.5470910000000  0.5876260000000  0.4944000000000 1.0
C      1  0.4355500000000  0.4695810000000  0.4282620000000 1.0
C      1  0.4891770000000  0.4055990000000  0.4319510000000 1.0
C      1  0.5501940000000  0.5359390000000  0.5648270000000 1.0
C      1  0.5035670000000  0.5000260000000  0.4341490000000 1.0
C      1  0.5064260000000  0.5365520000000  0.6169050000000 1.0
C      1  0.5377770000000  0.4927120000000  0.5430430000000 1.0
C      1  0.5458130000000  0.5507020000000  0.4160590000000 1.0
C      1  0.4367720000000  0.4950720000000  0.5182030000000 1.0
C      1  0.4460430000000  0.4839720000000  0.5690490000000 1.0
C      1  0.4194970000000  0.5552390000000  0.4699880000000 1.0
C      1  0.4866760000000  0.4415990000000  0.4946500000000 1.0
C      1  0.4938970000000  0.4062540000000  0.5287010000000 1.0
C      1  0.4598500000000  0.5167910000000  0.5272170000000 1.0
C      1  0.4711100000000  0.6047810000000  0.5592880000000 1.0
C      1  0.5226500000000  0.5463870000000  0.4348340000000 1.0
C      1  0.4455310000000  0.5141220000000  0.4665140000000 1.0
C      1  0.4045980000000  0.5266110000000  0.5476400000000 1.0
C      1  0.4096750000000  0.4768260000000  0.4430460000000 1.0
C      1  0.3918630000000  0.4818800000000  0.5194950000000 1.0
C      1  0.5060600000000  0.4158310000000  0.5577150000000 1.0
C      1  0.5199150000000  0.5088800000000  0.6073620000000 1.0
C      1  0.4274990000000  0.5282060000000  0.4260850000000 1.0
C      1  0.5411960000000  0.4376930000000  0.4799830000000 1.0
C      1  0.5319310000000  0.5802050000000  0.5306170000000 1.0
C      1  0.5656080000000  0.5295680000000  0.4894130000000 1.0
C      1  0.5589500000000  0.5730310000000  0.4242400000000 1.0
C      1  0.5034230000000  0.5158480000000  0.5031900000000 1.0
C      1  0.4290040000000  0.4341940000000  0.5349930000000 1.0
C      1  0.4624120000000  0.5528090000000  0.4565350000000 1.0
C      1  0.4317930000000  0.4656940000000  0.5443750000000 1.0
C      1  0.5115080000000  0.5731390000000  0.4451670000000 1.0
C      1  0.5373110000000  0.4809310000000  0.6029960000000 1.0
C      1  0.3873870000000  0.5223650000000  0.5268590000000 1.0
C      1  0.4900470000000  0.4878590000000  0.5171210000000 1.0
C      1  0.6152750000000  0.4809870000000  0.5306620000000 1.0
C      1  0.4906490000000  0.4998400000000  0.6036660000000 1.0
C      1  0.4774740000000  0.4377770000000  0.5750250000000 1.0
C      1  0.4193210000000  0.4736450000000  0.5012080000000 1.0
C      1  0.4858330000000  0.4310580000000  0.4643840000000 1.0
C      1  0.5616780000000  0.5872760000000  0.5208180000000 1.0
C      1  0.5148110000000  0.5597630000000  0.5773110000000 1.0
C      1  0.5177150000000  0.4816500000000  0.4803660000000 1.0
C      1  0.4826690000000  0.4731760000000  0.4334050000000 1.0
C      1  0.5291640000000  0.4333000000000  0.5539410000000 1.0
C      1  0.5477250000000  0.5568750000000  0.4798880000000 1.0
C      1  0.4372760000000  0.5837890000000  0.4544950000000 1.0
C      1  0.4621110000000  0.5165520000000  0.5965480000000 1.0
C      1  0.4420380000000  0.4550920000000  0.5813220000000 1.0
C      1  0.4016670000000  0.4498300000000  0.4845300000000 1.0
C      1  0.5562590000000  0.4156770000000  0.5463850000000 1.0
C      1  0.5704780000000  0.4846860000000  0.5404940000000 1.0
C      1  0.4579730000000  0.4649140000000  0.4031270000000 1.0
C      1  0.5974800000000  0.5500140000000  0.5764730000000 1.0
C      1  0.4740930000000  0.4293440000000  0.5199310000000 1.0
C      1  0.5758710000000  0.4336250000000  0.5608650000000 1.0
C      1  0.4046920000000  0.4482640000000  0.5184810000000 1.0
C      1  0.4751780000000  0.4496620000000  0.5432440000000 1.0
C      1  0.4606670000000  0.4472460000000  0.4334320000000 1.0
C      1  0.5637120000000  0.4146160000000  0.5189030000000 1.0
C      1  0.4333360000000  0.5936160000000  0.5014100000000 1.0
C      1  0.5735690000000  0.4624260000000  0.4480640000000 1.0
C      1  0.4773710000000  0.5254980000000  0.4702550000000 1.0
C      1  0.4004460000000  0.5088470000000  0.5003470000000 1.0
C      1  0.4922440000000  0.4717000000000  0.5604010000000 1.0
C      1  0.5662600000000  0.4519190000000  0.5338290000000 1.0
C      1  0.5437000000000  0.4676640000000  0.4634620000000 1.0
C      1  0.5437010000000  0.5525370000000  0.5133830000000 1.0
C      1  0.4696550000000  0.5462270000000  0.5877020000000 1.0
C      1  0.5364680000000  0.5143370000000  0.4952420000000 1.0
C      1  0.5988240000000  0.5020940000000  0.5423030000000 1.0
C      1  0.5171550000000  0.5357810000000  0.5204080000000 1.0
C      1  0.5285820000000  0.5935030000000  0.4663830000000 1.0
C      1  0.4937250000000  0.5288300000000  0.3963540000000 1.0
C      1  0.5751200000000  0.4988100000000  0.4784810000000 1.0
END
