TITL C-2848504-8560-474 -0.000356653731363263 125000 -852.671935751387 0 0 160 (C1) n - 1
REM
REM in /home/bkarasulu/work/CARBON/AIRSS/Generating-Clusters/AIREBO/with-SteepDescent/Only-C1/SD-CG-opt/Try1-1.4A-POS3A/HFTN-CG
REM
REM
REM
REM
REM
REM ./C.cell (11c1c37f851c82e70ff6c80c92926a4b)
REM
REM compiler GCC version 9.2.1 20190827 (Red Hat 9.2.1-1)
REM options -cpp -mtune=generic -march=x86-64 -g -O0 -fpre-include=/usr/include/finclude/math-vector-fortran.h
REM seed 1748608474 -1221391184 -688304455 279658029 1581932281 1665479181 1285430741 1764819556 1645160082 -1341374841 1618883532 833665347 486989564 134663173 1933725838 1781828648 1023604811 -1551740438 865392566 1774704211 599417612 -2077052304 -1454735471 2061697378 -1399392569 1776257432 -1678942768 1536434111 -281486137 1120098899 -1134768689 1683515883 1354486203
REM
CELL 1.54180   50.00000   50.00000   50.00000   90.00000   90.00000   90.00000
LATT -1
SFAC C  
C      1  0.4947640000000  0.5977180000000  0.5269110000000 1.0
C      1  0.5492290000000  0.4728740000000  0.4162770000000 1.0
C      1  0.5366350000000  0.4107520000000  0.4918690000000 1.0
C      1  0.4652230000000  0.5379520000000  0.5165640000000 1.0
C      1  0.4231960000000  0.4637540000000  0.4464880000000 1.0
C      1  0.5144930000000  0.5713650000000  0.4564980000000 1.0
C      1  0.5096990000000  0.4725100000000  0.5331480000000 1.0
C      1  0.4128730000000  0.4497690000000  0.5507910000000 1.0
C      1  0.5581570000000  0.5050160000000  0.4374810000000 1.0
C      1  0.4681460000000  0.5536450000000  0.5630990000000 1.0
C      1  0.5184750000000  0.4367850000000  0.5013790000000 1.0
C      1  0.5069970000000  0.5708030000000  0.5101100000000 1.0
C      1  0.3910400000000  0.5001680000000  0.5129150000000 1.0
C      1  0.5099140000000  0.5167560000000  0.4239260000000 1.0
C      1  0.5003240000000  0.5806470000000  0.4276910000000 1.0
C      1  0.5618690000000  0.4392600000000  0.5464040000000 1.0
C      1  0.5481850000000  0.5361550000000  0.5419340000000 1.0
C      1  0.5858100000000  0.5037730000000  0.5120650000000 1.0
C      1  0.6287000000000  0.4746290000000  0.5535470000000 1.0
C      1  0.4297380000000  0.5269320000000  0.4345800000000 1.0
C      1  0.4851300000000  0.5317000000000  0.4748550000000 1.0
C      1  0.4650430000000  0.3955790000000  0.4751970000000 1.0
C      1  0.6048950000000  0.4672150000000  0.5302450000000 1.0
C      1  0.5320840000000  0.4563000000000  0.4642780000000 1.0
C      1  0.5606400000000  0.5664970000000  0.5054690000000 1.0
C      1  0.4375530000000  0.5449070000000  0.5294510000000 1.0
C      1  0.4862830000000  0.4715270000000  0.4238150000000 1.0
C      1  0.5382600000000  0.5326120000000  0.4358810000000 1.0
C      1  0.4591750000000  0.5690000000000  0.4592930000000 1.0
C      1  0.5505960000000  0.4553020000000  0.5670230000000 1.0
C      1  0.4115630000000  0.5296130000000  0.4893550000000 1.0
C      1  0.5038950000000  0.5371740000000  0.5893310000000 1.0
C      1  0.5199250000000  0.5552830000000  0.4202810000000 1.0
C      1  0.5089440000000  0.5120200000000  0.5528260000000 1.0
C      1  0.5084250000000  0.4379810000000  0.5747110000000 1.0
C      1  0.4337660000000  0.5287510000000  0.5709500000000 1.0
C      1  0.4692150000000  0.4471080000000  0.4392710000000 1.0
C      1  0.5155710000000  0.5010710000000  0.3945210000000 1.0
C      1  0.4039860000000  0.5510300000000  0.4525390000000 1.0
C      1  0.4237740000000  0.6027180000000  0.5239340000000 1.0
C      1  0.6265720000000  0.5070930000000  0.5006820000000 1.0
C      1  0.5276530000000  0.4902340000000  0.4356720000000 1.0
C      1  0.5585800000000  0.4888180000000  0.5204220000000 1.0
C      1  0.6156680000000  0.5303490000000  0.5098560000000 1.0
C      1  0.6085810000000  0.5552420000000  0.4957030000000 1.0
C      1  0.4420220000000  0.5958640000000  0.5442800000000 1.0
C      1  0.4420220000000  0.4774000000000  0.4020040000000 1.0
C      1  0.5332730000000  0.4450350000000  0.5868840000000 1.0
C      1  0.5031170000000  0.4601700000000  0.4820060000000 1.0
C      1  0.5070760000000  0.5963990000000  0.4761500000000 1.0
C      1  0.4687060000000  0.4853540000000  0.5213400000000 1.0
C      1  0.4637280000000  0.5201890000000  0.5588000000000 1.0
C      1  0.5458520000000  0.5034740000000  0.6075910000000 1.0
C      1  0.4429290000000  0.4203920000000  0.4962900000000 1.0
C      1  0.5836130000000  0.4839650000000  0.4777110000000 1.0
C      1  0.4562270000000  0.5689010000000  0.5401330000000 1.0
C      1  0.4881030000000  0.3954510000000  0.4981390000000 1.0
C      1  0.5397200000000  0.4519250000000  0.4055740000000 1.0
C      1  0.4137910000000  0.4887710000000  0.5587830000000 1.0
C      1  0.4469470000000  0.4534990000000  0.5126370000000 1.0
C      1  0.4867480000000  0.6011740000000  0.4943990000000 1.0
C      1  0.5543420000000  0.5147410000000  0.5842880000000 1.0
C      1  0.5454350000000  0.5351190000000  0.4861940000000 1.0
C      1  0.4727060000000  0.4921980000000  0.5858180000000 1.0
C      1  0.5306370000000  0.5312120000000  0.5706360000000 1.0
C      1  0.4210710000000  0.4866350000000  0.4667710000000 1.0
C      1  0.5120610000000  0.3922980000000  0.5560820000000 1.0
C      1  0.5292770000000  0.4069060000000  0.4404450000000 1.0
C      1  0.5586290000000  0.4770840000000  0.4569230000000 1.0
C      1  0.5681120000000  0.5654700000000  0.4749530000000 1.0
C      1  0.5952450000000  0.5643100000000  0.4725410000000 1.0
C      1  0.4972260000000  0.5105150000000  0.5994230000000 1.0
C      1  0.4635600000000  0.5180740000000  0.4919650000000 1.0
C      1  0.4678670000000  0.4877320000000  0.4056190000000 1.0
C      1  0.4156890000000  0.5216970000000  0.5221670000000 1.0
C      1  0.5319730000000  0.5070660000000  0.4796410000000 1.0
C      1  0.5654430000000  0.5099110000000  0.4861530000000 1.0
C      1  0.4889900000000  0.5432000000000  0.4195330000000 1.0
C      1  0.4214240000000  0.4796680000000  0.4982830000000 1.0
C      1  0.4135610000000  0.5157870000000  0.5545470000000 1.0
C      1  0.5800770000000  0.5865630000000  0.5340090000000 1.0
C      1  0.4330480000000  0.5953610000000  0.4942560000000 1.0
C      1  0.4730950000000  0.5844190000000  0.4322290000000 1.0
C      1  0.3754060000000  0.4766630000000  0.4689340000000 1.0
C      1  0.5070580000000  0.5401400000000  0.4942060000000 1.0
C      1  0.5074930000000  0.5866630000000  0.5526330000000 1.0
C      1  0.4891300000000  0.4280080000000  0.5105080000000 1.0
C      1  0.4715930000000  0.4665670000000  0.4931230000000 1.0
C      1  0.4344720000000  0.4723400000000  0.5373530000000 1.0
C      1  0.4366570000000  0.5165380000000  0.4724250000000 1.0
C      1  0.4291100000000  0.4436010000000  0.5736090000000 1.0
C      1  0.4686930000000  0.4266620000000  0.4171350000000 1.0
C      1  0.5803740000000  0.5161690000000  0.5635890000000 1.0
C      1  0.5882620000000  0.5564030000000  0.5226110000000 1.0
C      1  0.3938670000000  0.4642250000000  0.4856640000000 1.0
C      1  0.5450860000000  0.5614830000000  0.5650540000000 1.0
C      1  0.3997980000000  0.5207340000000  0.4496890000000 1.0
C      1  0.4578010000000  0.4972570000000  0.4552650000000 1.0
C      1  0.4090540000000  0.5787310000000  0.5081750000000 1.0
C      1  0.6009170000000  0.4906160000000  0.5545880000000 1.0
C      1  0.5413230000000  0.5544510000000  0.4598400000000 1.0
C      1  0.4642020000000  0.4362890000000  0.5443120000000 1.0
C      1  0.4729340000000  0.4279160000000  0.4821630000000 1.0
C      1  0.4448020000000  0.4228780000000  0.5269510000000 1.0
C      1  0.5154120000000  0.4194510000000  0.5527550000000 1.0
C      1  0.5618410000000  0.4504920000000  0.4778670000000 1.0
C      1  0.3939610000000  0.5035230000000  0.4784420000000 1.0
C      1  0.4406500000000  0.5015200000000  0.5108850000000 1.0
C      1  0.4830190000000  0.4555910000000  0.5295400000000 1.0
C      1  0.4978560000000  0.5585030000000  0.5635250000000 1.0
C      1  0.4371350000000  0.5477380000000  0.4588730000000 1.0
C      1  0.4514920000000  0.5132700000000  0.5961420000000 1.0
C      1  0.5083090000000  0.4489640000000  0.4128670000000 1.0
C      1  0.5831170000000  0.5085090000000  0.4208230000000 1.0
C      1  0.5328260000000  0.5491300000000  0.5145110000000 1.0
C      1  0.4596130000000  0.5841490000000  0.4867380000000 1.0
C      1  0.5070810000000  0.5101910000000  0.4632340000000 1.0
C      1  0.4545810000000  0.5459720000000  0.5915940000000 1.0
C      1  0.5520440000000  0.4527000000000  0.5102090000000 1.0
C      1  0.4387660000000  0.4399680000000  0.4507990000000 1.0
C      1  0.4603130000000  0.4866140000000  0.5546240000000 1.0
C      1  0.5412680000000  0.3973180000000  0.4178110000000 1.0
C      1  0.5011230000000  0.4787210000000  0.4535580000000 1.0
C      1  0.5525370000000  0.5947590000000  0.5339140000000 1.0
C      1  0.4539930000000  0.5207260000000  0.4233860000000 1.0
C      1  0.4391350000000  0.4155790000000  0.4652240000000 1.0
C      1  0.4764720000000  0.5167880000000  0.4020050000000 1.0
C      1  0.5041400000000  0.4816500000000  0.5640400000000 1.0
C      1  0.5681410000000  0.4869300000000  0.5508530000000 1.0
C      1  0.5359310000000  0.4803960000000  0.5537270000000 1.0
C      1  0.4634770000000  0.4699530000000  0.4637940000000 1.0
C      1  0.5413780000000  0.4796730000000  0.4954240000000 1.0
C      1  0.4027420000000  0.4706070000000  0.5252070000000 1.0
C      1  0.5096820000000  0.5429410000000  0.5386770000000 1.0
C      1  0.4212840000000  0.4708840000000  0.4190080000000 1.0
C      1  0.4864520000000  0.5525860000000  0.4522030000000 1.0
C      1  0.5362910000000  0.4294650000000  0.5294150000000 1.0
C      1  0.5948850000000  0.5249680000000  0.5341080000000 1.0
C      1  0.5083760000000  0.5141870000000  0.5110270000000 1.0
C      1  0.5281110000000  0.3943540000000  0.4643590000000 1.0
C      1  0.4812160000000  0.5106810000000  0.4411520000000 1.0
C      1  0.5189710000000  0.4996910000000  0.6146610000000 1.0
C      1  0.5135280000000  0.3866620000000  0.4913520000000 1.0
C      1  0.6112290000000  0.4790880000000  0.4621610000000 1.0
C      1  0.4575560000000  0.4450180000000  0.5697680000000 1.0
C      1  0.6331660000000  0.4752330000000  0.4497170000000 1.0
C      1  0.4833690000000  0.4603240000000  0.5804670000000 1.0
C      1  0.5192090000000  0.4349720000000  0.4411390000000 1.0
C      1  0.5121520000000  0.4835570000000  0.5049860000000 1.0
C      1  0.5872410000000  0.4423490000000  0.5377470000000 1.0
C      1  0.6075100000000  0.4806470000000  0.5017270000000 1.0
C      1  0.4924910000000  0.4370880000000  0.4594080000000 1.0
C      1  0.5390530000000  0.5912440000000  0.5072650000000 1.0
C      1  0.5109060000000  0.4762870000000  0.3927410000000 1.0
C      1  0.5371180000000  0.5108240000000  0.5245460000000 1.0
C      1  0.5361430000000  0.5858030000000  0.5550760000000 1.0
C      1  0.5650680000000  0.4224430000000  0.4892090000000 1.0
C      1  0.4030010000000  0.5527530000000  0.5109920000000 1.0
C      1  0.4742150000000  0.5673900000000  0.5112250000000 1.0
C      1  0.4828040000000  0.5145350000000  0.5312280000000 1.0
END
