TITL C-2847959-7740-556 -0.000301846038059241 125000 -791.242585833476 0 0 147 (C1) n - 1
REM
REM in /home/bkarasulu/work/CARBON/AIRSS/Generating-Clusters/AIREBO/with-SteepDescent/Only-C1/SD-CG-opt/Try1-1.4A-POS3A/HFTN-CG
REM
REM
REM
REM
REM
REM ./C.cell (11c1c37f851c82e70ff6c80c92926a4b)
REM
REM compiler GCC version 9.2.1 20190827 (Red Hat 9.2.1-1)
REM options -cpp -mtune=generic -march=x86-64 -g -O0 -fpre-include=/usr/include/finclude/math-vector-fortran.h
REM seed 820598017 -1437941335 -1766581343 1557864736 583680070 -414463030 661271517 668578681 930825380 -1773177977 -1858093226 -944391369 1501210521 -1524315247 -2052904670 2140224922 1881584831 -1367949686 -1587425966 1930444308 -1204875824 -1618869209 1058982855 1782899903 370042115 -1962612883 -1790141272 2035907771 -2091546498 -2117351424 1302503464 -331795071 -465746479
REM
CELL 1.54180   50.00000   50.00000   50.00000   90.00000   90.00000   90.00000
LATT -1
SFAC C  
C      1  0.4958940000000  0.4513250000000  0.4593000000000 1.0
C      1  0.5293660000000  0.5157460000000  0.5498370000000 1.0
C      1  0.5521340000000  0.4525820000000  0.5762040000000 1.0
C      1  0.4603850000000  0.4348770000000  0.5518550000000 1.0
C      1  0.4942920000000  0.5035090000000  0.5771210000000 1.0
C      1  0.4191460000000  0.4556070000000  0.4417790000000 1.0
C      1  0.5448920000000  0.5721250000000  0.4461540000000 1.0
C      1  0.5077420000000  0.4864690000000  0.5184370000000 1.0
C      1  0.5522770000000  0.5236740000000  0.4214220000000 1.0
C      1  0.6086870000000  0.5055180000000  0.5125650000000 1.0
C      1  0.5852070000000  0.4940540000000  0.5555260000000 1.0
C      1  0.4346510000000  0.5500520000000  0.5632120000000 1.0
C      1  0.5846830000000  0.4691900000000  0.4382390000000 1.0
C      1  0.5638860000000  0.4501340000000  0.4316160000000 1.0
C      1  0.4819500000000  0.5826740000000  0.5237880000000 1.0
C      1  0.5343260000000  0.4822950000000  0.4459450000000 1.0
C      1  0.4621540000000  0.4865920000000  0.4757320000000 1.0
C      1  0.5072520000000  0.4995370000000  0.4398340000000 1.0
C      1  0.5692220000000  0.5524290000000  0.4594370000000 1.0
C      1  0.5127890000000  0.4085050000000  0.4795650000000 1.0
C      1  0.5584860000000  0.5437650000000  0.5742190000000 1.0
C      1  0.5397740000000  0.4816660000000  0.4854610000000 1.0
C      1  0.5157040000000  0.5082950000000  0.6026890000000 1.0
C      1  0.4629870000000  0.5541440000000  0.5707930000000 1.0
C      1  0.5610150000000  0.4143560000000  0.4982350000000 1.0
C      1  0.4486380000000  0.5812110000000  0.5188080000000 1.0
C      1  0.5502970000000  0.4550690000000  0.5038600000000 1.0
C      1  0.4405360000000  0.5210230000000  0.4977970000000 1.0
C      1  0.5390450000000  0.4887820000000  0.5315190000000 1.0
C      1  0.5596650000000  0.5220640000000  0.4526890000000 1.0
C      1  0.4751790000000  0.5294520000000  0.5418180000000 1.0
C      1  0.4335580000000  0.5086570000000  0.5287100000000 1.0
C      1  0.4431390000000  0.4590780000000  0.5649640000000 1.0
C      1  0.4735770000000  0.4425230000000  0.5244300000000 1.0
C      1  0.5225520000000  0.4683590000000  0.5545140000000 1.0
C      1  0.5210800000000  0.4018050000000  0.5440730000000 1.0
C      1  0.4484200000000  0.5103030000000  0.5850680000000 1.0
C      1  0.5182190000000  0.5044800000000  0.4932710000000 1.0
C      1  0.5167560000000  0.4082780000000  0.5136070000000 1.0
C      1  0.4932260000000  0.5232380000000  0.5066720000000 1.0
C      1  0.4333340000000  0.5633250000000  0.4716270000000 1.0
C      1  0.5163460000000  0.4562360000000  0.5053940000000 1.0
C      1  0.5426210000000  0.4282080000000  0.5232630000000 1.0
C      1  0.5686190000000  0.5327770000000  0.5297990000000 1.0
C      1  0.4197240000000  0.4712400000000  0.5483590000000 1.0
C      1  0.4162940000000  0.5387920000000  0.4616610000000 1.0
C      1  0.5139790000000  0.5639330000000  0.4992030000000 1.0
C      1  0.5801340000000  0.4561610000000  0.4875680000000 1.0
C      1  0.4614040000000  0.5895160000000  0.4604700000000 1.0
C      1  0.4631220000000  0.4746480000000  0.5221000000000 1.0
C      1  0.4226140000000  0.5158580000000  0.4449460000000 1.0
C      1  0.5372150000000  0.4940120000000  0.4143100000000 1.0
C      1  0.4930450000000  0.4843780000000  0.5490380000000 1.0
C      1  0.4637700000000  0.4291250000000  0.4519150000000 1.0
C      1  0.4822240000000  0.4081530000000  0.4645100000000 1.0
C      1  0.4123070000000  0.5368200000000  0.4921400000000 1.0
C      1  0.4759820000000  0.4657370000000  0.5717910000000 1.0
C      1  0.5671330000000  0.4697220000000  0.5295120000000 1.0
C      1  0.4668070000000  0.4567510000000  0.4715300000000 1.0
C      1  0.4203800000000  0.4415390000000  0.4946340000000 1.0
C      1  0.5110620000000  0.5283480000000  0.4499720000000 1.0
C      1  0.4770880000000  0.5077640000000  0.4545670000000 1.0
C      1  0.5325560000000  0.5922950000000  0.4965980000000 1.0
C      1  0.4519350000000  0.4061280000000  0.5112010000000 1.0
C      1  0.4668570000000  0.5604230000000  0.4765160000000 1.0
C      1  0.6021220000000  0.5300420000000  0.5247580000000 1.0
C      1  0.4547800000000  0.5299040000000  0.4676060000000 1.0
C      1  0.5280490000000  0.5288690000000  0.3973290000000 1.0
C      1  0.5136180000000  0.5941600000000  0.5248700000000 1.0
C      1  0.5093810000000  0.4247470000000  0.5660400000000 1.0
C      1  0.4361090000000  0.5598560000000  0.5358230000000 1.0
C      1  0.4727180000000  0.4974610000000  0.5029580000000 1.0
C      1  0.5274160000000  0.4268880000000  0.4580790000000 1.0
C      1  0.5345510000000  0.5276970000000  0.4745560000000 1.0
C      1  0.5391070000000  0.5974730000000  0.4650840000000 1.0
C      1  0.5004160000000  0.4385090000000  0.4873810000000 1.0
C      1  0.4995060000000  0.5443120000000  0.4014250000000 1.0
C      1  0.4061630000000  0.4516740000000  0.5234900000000 1.0
C      1  0.5642230000000  0.4921610000000  0.4506580000000 1.0
C      1  0.4825720000000  0.5553960000000  0.5034970000000 1.0
C      1  0.3990140000000  0.5418880000000  0.5151030000000 1.0
C      1  0.4941900000000  0.5478800000000  0.4334120000000 1.0
C      1  0.4665260000000  0.4663860000000  0.4149710000000 1.0
C      1  0.4263800000000  0.5233180000000  0.5734510000000 1.0
C      1  0.4130560000000  0.5037250000000  0.5543880000000 1.0
C      1  0.4345170000000  0.4341790000000  0.4361300000000 1.0
C      1  0.5610470000000  0.5719730000000  0.4861310000000 1.0
C      1  0.4484680000000  0.5195190000000  0.4292440000000 1.0
C      1  0.5983300000000  0.4832390000000  0.5290240000000 1.0
C      1  0.5041130000000  0.4496590000000  0.5329070000000 1.0
C      1  0.4049560000000  0.4803760000000  0.5052750000000 1.0
C      1  0.4933910000000  0.5295050000000  0.4750170000000 1.0
C      1  0.5053940000000  0.5054840000000  0.4075510000000 1.0
C      1  0.5777230000000  0.5552180000000  0.5059230000000 1.0
C      1  0.5335530000000  0.5578530000000  0.5257160000000 1.0
C      1  0.4196690000000  0.4639270000000  0.4725650000000 1.0
C      1  0.5558370000000  0.5036060000000  0.5059260000000 1.0
C      1  0.5945990000000  0.4542570000000  0.5157490000000 1.0
C      1  0.5272570000000  0.4597170000000  0.4648610000000 1.0
C      1  0.5809260000000  0.5705330000000  0.5323990000000 1.0
C      1  0.5503660000000  0.5119510000000  0.5832940000000 1.0
C      1  0.6025510000000  0.5031840000000  0.4811070000000 1.0
C      1  0.5441400000000  0.4610010000000  0.4136220000000 1.0
C      1  0.4799790000000  0.3876220000000  0.4877310000000 1.0
C      1  0.5068650000000  0.5613250000000  0.5464960000000 1.0
C      1  0.5091550000000  0.4366670000000  0.4330110000000 1.0
C      1  0.5704300000000  0.4294190000000  0.4771110000000 1.0
C      1  0.5325560000000  0.5503930000000  0.4230550000000 1.0
C      1  0.4732310000000  0.5244550000000  0.5753710000000 1.0
C      1  0.3845520000000  0.4976110000000  0.5150720000000 1.0
C      1  0.4842800000000  0.4155750000000  0.5066250000000 1.0
C      1  0.3975940000000  0.5176690000000  0.5312640000000 1.0
C      1  0.5565720000000  0.5662280000000  0.5486120000000 1.0
C      1  0.4976960000000  0.4475210000000  0.5865600000000 1.0
C      1  0.4648370000000  0.4920460000000  0.4270050000000 1.0
C      1  0.4545170000000  0.5747050000000  0.4373490000000 1.0
C      1  0.5437560000000  0.5344100000000  0.5066120000000 1.0
C      1  0.4639790000000  0.5004280000000  0.5416630000000 1.0
C      1  0.5883040000000  0.4787290000000  0.4696410000000 1.0
C      1  0.5094580000000  0.4767790000000  0.5914220000000 1.0
C      1  0.4343760000000  0.4700310000000  0.5188210000000 1.0
C      1  0.4563550000000  0.5420090000000  0.5193800000000 1.0
C      1  0.5065070000000  0.5306730000000  0.5364040000000 1.0
C      1  0.5631390000000  0.5128010000000  0.5525250000000 1.0
C      1  0.5962330000000  0.5324470000000  0.4646500000000 1.0
C      1  0.4650100000000  0.5458730000000  0.4393670000000 1.0
C      1  0.5307560000000  0.5630130000000  0.5783380000000 1.0
C      1  0.5372420000000  0.4377310000000  0.5527980000000 1.0
C      1  0.4302550000000  0.4915850000000  0.4854020000000 1.0
C      1  0.5214890000000  0.4444820000000  0.4106060000000 1.0
C      1  0.4757480000000  0.5220830000000  0.4090710000000 1.0
C      1  0.4711320000000  0.4433550000000  0.4233370000000 1.0
C      1  0.4540450000000  0.4432990000000  0.4965980000000 1.0
C      1  0.5292990000000  0.5859840000000  0.5533100000000 1.0
C      1  0.4511730000000  0.4825990000000  0.5872240000000 1.0
C      1  0.5405880000000  0.4806620000000  0.5817760000000 1.0
C      1  0.5328450000000  0.5592560000000  0.4744490000000 1.0
C      1  0.4302910000000  0.4113990000000  0.4999560000000 1.0
C      1  0.4771030000000  0.4191830000000  0.5673480000000 1.0
C      1  0.5122150000000  0.5752570000000  0.4243450000000 1.0
C      1  0.5228530000000  0.5312520000000  0.5795300000000 1.0
C      1  0.4486450000000  0.6102670000000  0.4777960000000 1.0
C      1  0.5793950000000  0.5239670000000  0.4926090000000 1.0
C      1  0.5572900000000  0.4312890000000  0.4526220000000 1.0
C      1  0.4783950000000  0.5709120000000  0.5551410000000 1.0
C      1  0.4382460000000  0.5858840000000  0.4927400000000 1.0
C      1  0.4155420000000  0.4882650000000  0.4485450000000 1.0
END
