TITL C-2847949-8115-117 0.00178461674712492 125000 -338.262076585064 0 0 66 (C1) n - 1
REM
REM in /home/bkarasulu/work/CARBON/AIRSS/Generating-Clusters/AIREBO/with-SteepDescent/Only-C1/SD-CG-opt/Try1-1.4A-POS3A/HFTN-CG
REM
REM
REM
REM
REM
REM ./C.cell (11c1c37f851c82e70ff6c80c92926a4b)
REM
REM compiler GCC version 9.2.1 20190827 (Red Hat 9.2.1-1)
REM options -cpp -mtune=generic -march=x86-64 -g -O0 -fpre-include=/usr/include/finclude/math-vector-fortran.h
REM seed -919216575 1560697386 -283385201 720162441 163928847 -833838306 1555739864 619841766 -316780451 -1314035154 639691167 1574971001 -717474591 -1804366338 670903027 1362169263 862820950 1545340167 1436050621 -1781324764 -176908384 2076022369 -1909622295 1131128966 -1819478456 580405661 1158121610 1634653549 -648083077 1119612948 -390491429 788380369 2048198120
REM
CELL 1.54180   50.00000   50.00000   50.00000   90.00000   90.00000   90.00000
LATT -1
SFAC C  
C      1  0.5544180000000  0.5528900000000  0.4927720000000 1.0
C      1  0.4420790000000  0.4921980000000  0.4693670000000 1.0
C      1  0.5079320000000  0.4760500000000  0.5116220000000 1.0
C      1  0.5584330000000  0.4738890000000  0.4949170000000 1.0
C      1  0.4949460000000  0.4848860000000  0.4277810000000 1.0
C      1  0.5034560000000  0.4311680000000  0.5192520000000 1.0
C      1  0.5485040000000  0.4985820000000  0.5310420000000 1.0
C      1  0.4886670000000  0.4453900000000  0.4607270000000 1.0
C      1  0.4563250000000  0.5432120000000  0.4638180000000 1.0
C      1  0.4743550000000  0.4792910000000  0.5159130000000 1.0
C      1  0.4645390000000  0.5091070000000  0.5290100000000 1.0
C      1  0.5272590000000  0.5407810000000  0.4809470000000 1.0
C      1  0.5204760000000  0.4768350000000  0.4310130000000 1.0
C      1  0.5415550000000  0.5136760000000  0.5604500000000 1.0
C      1  0.5312960000000  0.4624300000000  0.4792660000000 1.0
C      1  0.5332450000000  0.4959880000000  0.5007540000000 1.0
C      1  0.5215600000000  0.5100040000000  0.5824180000000 1.0
C      1  0.4744290000000  0.4755510000000  0.4530480000000 1.0
C      1  0.5680730000000  0.5276140000000  0.4784450000000 1.0
C      1  0.5360570000000  0.4479010000000  0.4539210000000 1.0
C      1  0.4876200000000  0.4683040000000  0.5653650000000 1.0
C      1  0.5552880000000  0.5022200000000  0.4756080000000 1.0
C      1  0.5303910000000  0.4505270000000  0.5111090000000 1.0
C      1  0.4859170000000  0.4549600000000  0.5366870000000 1.0
C      1  0.4837480000000  0.5283800000000  0.5085890000000 1.0
C      1  0.5152230000000  0.5502890000000  0.5409650000000 1.0
C      1  0.4929770000000  0.5117750000000  0.4182200000000 1.0
C      1  0.4973320000000  0.5718690000000  0.4586920000000 1.0
C      1  0.5657360000000  0.5274680000000  0.5360350000000 1.0
C      1  0.4744160000000  0.5484090000000  0.5645580000000 1.0
C      1  0.4920010000000  0.5471320000000  0.4814190000000 1.0
C      1  0.4456850000000  0.4924990000000  0.5519220000000 1.0
C      1  0.5613010000000  0.5527220000000  0.5249910000000 1.0
C      1  0.5122290000000  0.5102990000000  0.4532180000000 1.0
C      1  0.5360660000000  0.4690710000000  0.5390410000000 1.0
C      1  0.4587630000000  0.4481130000000  0.4921490000000 1.0
C      1  0.5014010000000  0.5707890000000  0.5039700000000 1.0
C      1  0.4214050000000  0.5029880000000  0.5590360000000 1.0
C      1  0.5116950000000  0.5333040000000  0.4291520000000 1.0
C      1  0.5179820000000  0.5512640000000  0.4514870000000 1.0
C      1  0.4470690000000  0.4608220000000  0.4668610000000 1.0
C      1  0.4568360000000  0.4679590000000  0.5605420000000 1.0
C      1  0.4759050000000  0.5211920000000  0.5587040000000 1.0
C      1  0.4595770000000  0.4395540000000  0.4441200000000 1.0
C      1  0.4526310000000  0.5072060000000  0.4952570000000 1.0
C      1  0.4944730000000  0.5060890000000  0.5718240000000 1.0
C      1  0.5127400000000  0.4864690000000  0.5513280000000 1.0
C      1  0.4791950000000  0.4893080000000  0.4837800000000 1.0
C      1  0.5118530000000  0.4889080000000  0.4744430000000 1.0
C      1  0.4448800000000  0.4624640000000  0.5179980000000 1.0
C      1  0.4494300000000  0.5379660000000  0.4906090000000 1.0
C      1  0.5299140000000  0.5609570000000  0.5151650000000 1.0
C      1  0.4926630000000  0.4512630000000  0.4940350000000 1.0
C      1  0.5425890000000  0.4966550000000  0.4480700000000 1.0
C      1  0.5502930000000  0.4662670000000  0.4349360000000 1.0
C      1  0.4915100000000  0.5639320000000  0.5486240000000 1.0
C      1  0.5153750000000  0.5237100000000  0.5066070000000 1.0
C      1  0.4835440000000  0.5257310000000  0.4563720000000 1.0
C      1  0.5150140000000  0.5185020000000  0.5398650000000 1.0
C      1  0.4479620000000  0.4448760000000  0.5437690000000 1.0
C      1  0.5138420000000  0.4337430000000  0.4475840000000 1.0
C      1  0.4694580000000  0.4314680000000  0.5198130000000 1.0
C      1  0.4598200000000  0.5057710000000  0.4465720000000 1.0
C      1  0.4796850000000  0.5755210000000  0.5252030000000 1.0
C      1  0.4644040000000  0.5563470000000  0.5085290000000 1.0
C      1  0.5645580000000  0.4474950000000  0.5106930000000 1.0
END
