TITL C-2847957-7266-184 0.00107562157561301 125000 -188.477289020382 0 0 38 (C1) n - 1
REM
REM in /home/bkarasulu/work/CARBON/AIRSS/Generating-Clusters/AIREBO/with-SteepDescent/Only-C1/SD-CG-opt/Try1-1.4A-POS3A/HFTN-CG
REM
REM
REM
REM
REM
REM ./C.cell (11c1c37f851c82e70ff6c80c92926a4b)
REM
REM compiler GCC version 9.2.1 20190827 (Red Hat 9.2.1-1)
REM options -cpp -mtune=generic -march=x86-64 -g -O0 -fpre-include=/usr/include/finclude/math-vector-fortran.h
REM seed 2085776592 -1170951991 -1977501763 -1932274709 -1625158968 -1452953941 1457680813 -674636571 1380978854 -1275716527 1468601535 -1576145299 -1109245165 -2016851152 -1705129444 447346364 -544896045 1210725653 -893295039 -1427661614 417811430 1359891848 1961972513 1678141179 1461833920 -1069854801 -1384350775 1478840013 -439685389 642123978 662880283 -567363729 1358926692
REM
CELL 1.54180   50.00000   50.00000   50.00000   90.00000   90.00000   90.00000
LATT -1
SFAC C  
C      1  0.4862180000000  0.4256660000000  0.5035520000000 1.0
C      1  0.4881590000000  0.4686960000000  0.5475710000000 1.0
C      1  0.5463450000000  0.5475540000000  0.4523500000000 1.0
C      1  0.5769320000000  0.5110930000000  0.5172620000000 1.0
C      1  0.5069540000000  0.5222710000000  0.4775930000000 1.0
C      1  0.4975540000000  0.4923100000000  0.4424000000000 1.0
C      1  0.4894910000000  0.5254640000000  0.4485830000000 1.0
C      1  0.4810610000000  0.4928270000000  0.4696880000000 1.0
C      1  0.5154650000000  0.5290320000000  0.5357980000000 1.0
C      1  0.4422390000000  0.5161330000000  0.4865100000000 1.0
C      1  0.5191720000000  0.5460930000000  0.5072610000000 1.0
C      1  0.5162630000000  0.4595840000000  0.5325640000000 1.0
C      1  0.5449490000000  0.5540940000000  0.5280560000000 1.0
C      1  0.4996880000000  0.4772530000000  0.5103910000000 1.0
C      1  0.5462450000000  0.5145290000000  0.5281130000000 1.0
C      1  0.5569260000000  0.5346410000000  0.5028660000000 1.0
C      1  0.4625730000000  0.5181090000000  0.4680270000000 1.0
C      1  0.5355690000000  0.4431690000000  0.5353060000000 1.0
C      1  0.4875830000000  0.4256530000000  0.4756820000000 1.0
C      1  0.4677830000000  0.5349580000000  0.5292330000000 1.0
C      1  0.4578820000000  0.4671200000000  0.5015630000000 1.0
C      1  0.4562080000000  0.5110040000000  0.5379870000000 1.0
C      1  0.4815670000000  0.4483420000000  0.4595170000000 1.0
C      1  0.4793800000000  0.4519570000000  0.5192840000000 1.0
C      1  0.4974900000000  0.4935700000000  0.5682630000000 1.0
C      1  0.5355020000000  0.5380960000000  0.4785320000000 1.0
C      1  0.4478440000000  0.4958440000000  0.5113740000000 1.0
C      1  0.4951150000000  0.4638350000000  0.4378910000000 1.0
C      1  0.4960890000000  0.5556540000000  0.4482430000000 1.0
C      1  0.5422970000000  0.5336480000000  0.5559570000000 1.0
C      1  0.4665340000000  0.4675950000000  0.4746420000000 1.0
C      1  0.5106410000000  0.4908680000000  0.4837880000000 1.0
C      1  0.5336790000000  0.4767640000000  0.4702880000000 1.0
C      1  0.5172200000000  0.5112420000000  0.5631910000000 1.0
C      1  0.4811740000000  0.5019200000000  0.5084210000000 1.0
C      1  0.4680910000000  0.4945360000000  0.5566060000000 1.0
C      1  0.4761550000000  0.5266760000000  0.4202830000000 1.0
C      1  0.4899650000000  0.5322030000000  0.5053650000000 1.0
END
