TITL C-2847944-5688-166 -2200.62038214321 125000 -750.871086071089 0 0 136 (C1) n - 1
REM
REM in /home/bkarasulu/work/CARBON/AIRSS/Generating-Clusters/AIREBO/with-SteepDescent/Only-C1/SD-CG-opt/Try1-1.4A-POS3A/HFTN-CG
REM
REM
REM
REM
REM
REM ./C.cell (11c1c37f851c82e70ff6c80c92926a4b)
REM
REM compiler GCC version 9.2.1 20190827 (Red Hat 9.2.1-1)
REM options -cpp -mtune=generic -march=x86-64 -g -O0 -fpre-include=/usr/include/finclude/math-vector-fortran.h
REM seed -1084909392 968299392 11384875 -1653175278 -1688523299 2097017062 -569614330 -575888485 -1343477291 -554296963 -1776406179 741266988 -1862874064 1270268846 1466624138 1409352356 2083094804 1433335665 1093491453 -589499350 1262533308 1317883920 1417397566 1057504726 -1729911251 -1700872002 566711196 -249533250 -1075546822 -63358852 -108975889 267063883 1825568768
REM
CELL 1.54180   50.00000   50.00000   50.00000   90.00000   90.00000   90.00000
LATT -1
SFAC C  
C      1  0.4571510000000  0.5239700000000  0.5416330000000 1.0
C      1  0.4516720000000  0.4326480000000  0.4497300000000 1.0
C      1  0.4801400000000  0.4489540000000  0.5332290000000 1.0
C      1  0.5669830000000  0.5345440000000  0.4831050000000 1.0
C      1  0.4690920000000  0.4506550000000  0.5805010000000 1.0
C      1  0.5706990000000  0.5557710000000  0.5278760000000 1.0
C      1  0.4902540000000  0.5260280000000  0.3902740000000 1.0
C      1  0.4339200000000  0.5464820000000  0.5651080000000 1.0
C      1  0.4269070000000  0.4676350000000  0.4318990000000 1.0
C      1  0.4557930000000  0.5162980000000  0.4267400000000 1.0
C      1  0.4729160000000  0.4265090000000  0.5563040000000 1.0
C      1  0.5782950000000  0.5621540000000  0.4955560000000 1.0
C      1  0.4423150000000  0.5573320000000  0.5191280000000 1.0
C      1  0.5173980000000  0.4663860000000  0.4311790000000 1.0
C      1  0.5393210000000  0.4797090000000  0.5788880000000 1.0
C      1  0.5390400000000  0.5845700000000  0.4602310000000 1.0
C      1  0.5525690000000  0.5348820000000  0.5476510000000 1.0
C      1  0.5568830000000  0.4611920000000  0.4982910000000 1.0
C      1  0.5536180000000  0.4431980000000  0.4627350000000 1.0
C      1  0.4063250000000  0.5103880000000  0.5570270000000 1.0
C      1  0.5489400000000  0.4823030000000  0.5474210000000 1.0
C      1  0.4460870000000  0.4152520000000  0.4692910000000 1.0
C      1  0.4862570000000  0.5079540000000  0.5863050000000 1.0
C      1  0.5392520000000  0.5414510000000  0.4064450000000 1.0
C      1  0.5038960000000  0.4226300000000  0.4628390000000 1.0
C      1  0.4991120000000  0.4786740000000  0.4735060000000 1.0
C      1  0.4448810000000  0.4483480000000  0.4264080000000 1.0
C      1  0.4866710000000  0.5611470000000  0.4955550000000 1.0
C      1  0.4350890000000  0.5180380000000  0.5198760000000 1.0
C      1  0.5468130000000  0.5625530000000  0.5823320000000 1.0
C      1  0.5011610000000  0.4512140000000  0.5799050000000 1.0
C      1  0.4077830000000  0.5009410000000  0.4796180000000 1.0
C      1  0.5516230000000  0.4864480000000  0.4316460000000 1.0
C      1  0.5357300000000  0.4823640000000  0.4897360000000 1.0
C      1  0.4764580000000  0.5367620000000  0.4118410000000 1.0
C      1  0.5859420000000  0.4710090000000  0.5323760000000 1.0
C      1  0.5821780000000  0.5258950000000  0.5587950000000 1.0
C      1  0.4496390000000  0.4233670000000  0.5317050000000 1.0
C      1  0.5090820000000  0.5010460000000  0.4938710000000 1.0
C      1  0.5080720000000  0.5007580000000  0.4491890000000 1.0
C      1  0.5386500000000  0.4502040000000  0.5520440000000 1.0
C      1  0.4949040000000  0.5693020000000  0.5800210000000 1.0
C      1  0.5382460000000  0.4697310000000  0.4580820000000 1.0
C      1  0.4471770000000  0.5007010000000  0.5890390000000 1.0
C      1  0.5336740000000  0.4167850000000  0.4705220000000 1.0
C      1  0.5116560000000  0.5222760000000  0.5931940000000 1.0
C      1  0.4966280000000  0.4440470000000  0.4192770000000 1.0
C      1  0.4665380000000  0.4622280000000  0.4575160000000 1.0
C      1  0.5955010000000  0.5244360000000  0.5290200000000 1.0
C      1  0.5195260000000  0.5534950000000  0.5953850000000 1.0
C      1  0.5041560000000  0.5856190000000  0.4797000000000 1.0
C      1  0.5819260000000  0.4467190000000  0.4804190000000 1.0
C      1  0.4194390000000  0.4917630000000  0.5335110000000 1.0
C      1  0.4730040000000  0.5551560000000  0.5225810000000 1.0
C      1  0.5739520000000  0.4864580000000  0.4514190000000 1.0
C      1  0.5364120000000  0.4954540000000  0.5215650000000 1.0
C      1  0.4327240000000  0.5516690000000  0.4937250000000 1.0
C      1  0.5417610000000  0.5615460000000  0.5112620000000 1.0
C      1  0.4724080000000  0.5901260000000  0.4845690000000 1.0
C      1  0.4893340000000  0.4477350000000  0.4765270000000 1.0
C      1  0.4859660000000  0.4780800000000  0.4367810000000 1.0
C      1  0.4732720000000  0.4798070000000  0.5306780000000 1.0
C      1  0.5082100000000  0.4447660000000  0.5517320000000 1.0
C      1  0.4578750000000  0.4891790000000  0.4114620000000 1.0
C      1  0.4313650000000  0.5709720000000  0.4735620000000 1.0
C      1  0.5135660000000  0.4460100000000  0.5121270000000 1.0
C      1  0.5796710000000  0.4944870000000  0.5500050000000 1.0
C      1  0.5383320000000  0.4026710000000  0.4992380000000 1.0
C      1  0.4154940000000  0.5145310000000  0.4519840000000 1.0
C      1  0.5095960000000  0.5887090000000  0.5353210000000 1.0
C      1  0.5706310000000  0.4496390000000  0.5405110000000 1.0
C      1  0.5234820000000  0.4603900000000  0.5919510000000 1.0
C      1  0.4066790000000  0.4730250000000  0.4846160000000 1.0
C      1  0.4545280000000  0.5142410000000  0.4607060000000 1.0
C      1  0.4283400000000  0.4677350000000  0.5503300000000 1.0
C      1  0.4744240000000  0.4384890000000  0.5035940000000 1.0
C      1  0.4337020000000  0.5211550000000  0.4868500000000 1.0
C      1  0.5187560000000  0.5822130000000  0.5086510000000 1.0
C      1  0.4450010000000  0.4270720000000  0.4981720000000 1.0
C      1  0.5414890000000  0.5508690000000  0.4561920000000 1.0
C      1  0.4464270000000  0.4759210000000  0.4812980000000 1.0
C      1  0.5531030000000  0.4214250000000  0.5409050000000 1.0
C      1  0.5056070000000  0.5430170000000  0.5595990000000 1.0
C      1  0.5538910000000  0.5851650000000  0.4899930000000 1.0
C      1  0.4726130000000  0.4792670000000  0.5985660000000 1.0
C      1  0.4446150000000  0.4775150000000  0.5152360000000 1.0
C      1  0.5436980000000  0.5116820000000  0.4102750000000 1.0
C      1  0.5027560000000  0.4753800000000  0.5142860000000 1.0
C      1  0.4050370000000  0.5286760000000  0.5318700000000 1.0
C      1  0.5073470000000  0.5058700000000  0.3964130000000 1.0
C      1  0.4995750000000  0.4200940000000  0.4324880000000 1.0
C      1  0.5774230000000  0.5179560000000  0.5083210000000 1.0
C      1  0.4940970000000  0.5309530000000  0.4482470000000 1.0
C      1  0.5326020000000  0.5284900000000  0.5670950000000 1.0
C      1  0.5330020000000  0.5334940000000  0.4841680000000 1.0
C      1  0.5015540000000  0.4144620000000  0.5417650000000 1.0
C      1  0.4680280000000  0.4566140000000  0.4083670000000 1.0
C      1  0.5836480000000  0.4983330000000  0.4812270000000 1.0
C      1  0.4345150000000  0.4484990000000  0.5298350000000 1.0
C      1  0.5303190000000  0.4037870000000  0.5270970000000 1.0
C      1  0.4652330000000  0.5503520000000  0.5615060000000 1.0
C      1  0.5009890000000  0.3992870000000  0.4854640000000 1.0
C      1  0.5647310000000  0.4222080000000  0.4947400000000 1.0
C      1  0.5225500000000  0.5723140000000  0.5604560000000 1.0
C      1  0.4262320000000  0.4519030000000  0.4910130000000 1.0
C      1  0.4713160000000  0.4985810000000  0.5569800000000 1.0
C      1  0.5675240000000  0.5271950000000  0.4371970000000 1.0
C      1  0.4814200000000  0.5080010000000  0.4777370000000 1.0
C      1  0.5052640000000  0.5042620000000  0.5320590000000 1.0
C      1  0.4993220000000  0.5368650000000  0.4807470000000 1.0
C      1  0.4968400000000  0.4173840000000  0.5103350000000 1.0
C      1  0.5296690000000  0.4817830000000  0.4052750000000 1.0
C      1  0.4345360000000  0.4877660000000  0.4532090000000 1.0
C      1  0.4255340000000  0.5211930000000  0.5751470000000 1.0
C      1  0.4237570000000  0.5512650000000  0.5390410000000 1.0
C      1  0.4838420000000  0.5743560000000  0.5482340000000 1.0
C      1  0.5385400000000  0.5050290000000  0.5895690000000 1.0
C      1  0.4467180000000  0.5940600000000  0.4795840000000 1.0
C      1  0.4637790000000  0.5458370000000  0.4521960000000 1.0
C      1  0.5873180000000  0.4735120000000  0.5007400000000 1.0
C      1  0.4292670000000  0.5332760000000  0.4363500000000 1.0
C      1  0.4375530000000  0.5591810000000  0.4485640000000 1.0
C      1  0.5449950000000  0.5277920000000  0.5154800000000 1.0
C      1  0.4902240000000  0.5300050000000  0.5378690000000 1.0
C      1  0.5694430000000  0.5688840000000  0.4634220000000 1.0
C      1  0.4624470000000  0.5303130000000  0.5874780000000 1.0
C      1  0.5711890000000  0.5509320000000  0.5790330000000 1.0
C      1  0.4897220000000  0.4820600000000  0.4043080000000 1.0
C      1  0.5268080000000  0.5577580000000  0.4262980000000 1.0
C      1  0.5103280000000  0.5800130000000  0.4476690000000 1.0
C      1  0.5828950000000  0.5243700000000  0.4593640000000 1.0
C      1  0.4941770000000  0.5568100000000  0.4294880000000 1.0
C      1  0.4504300000000  0.4747430000000  0.5674810000000 1.0
C      1  0.5545760000000  0.4167930000000  0.4436820000000 1.0
C      1  0.5343870000000  0.5209560000000  0.4416350000000 1.0
C      1  0.5426360000000  0.4394230000000  0.5140140000000 1.0
END
