TITL C-2848494-1720-504 0.00325307777727462 125000 -163.264924882581 0 0 29 (C1) n - 1
REM
REM in /home/bkarasulu/work/CARBON/AIRSS/Generating-Clusters/AIREBO/with-SteepDescent/Only-C1/SD-CG-opt/Try1-1.4A-POS3A/HFTN-CG
REM
REM
REM
REM
REM
REM ./C.cell (11c1c37f851c82e70ff6c80c92926a4b)
REM
REM compiler GCC version 9.2.1 20190827 (Red Hat 9.2.1-1)
REM options -cpp -mtune=generic -march=x86-64 -g -O0 -fpre-include=/usr/include/finclude/math-vector-fortran.h
REM seed 363359300 -1215710516 -662519943 1847945327 1062823884 -634641318 1770070121 -496003819 245484166 -691012745 394478238 518870245 -1005420241 -389684258 475803303 -528577905 -1779289679 -967085739 1315117623 -801140609 -1774067426 484522336 540181815 984309653 -1440136305 -1578854925 2045335023 1277349306 -748246686 -250508460 795852943 1608919366 -761905026
REM
CELL 1.54180   50.00000   50.00000   50.00000   90.00000   90.00000   90.00000
LATT -1
SFAC C  
C      1  0.5468780000000  0.4850400000000  0.5083140000000 1.0
C      1  0.5075800000000  0.4923870000000  0.4451310000000 1.0
C      1  0.4675570000000  0.5034420000000  0.5352730000000 1.0
C      1  0.4492850000000  0.4542090000000  0.4827050000000 1.0
C      1  0.4883990000000  0.5004010000000  0.5847820000000 1.0
C      1  0.4652120000000  0.5121570000000  0.5659120000000 1.0
C      1  0.5214990000000  0.5445770000000  0.4996930000000 1.0
C      1  0.5294470000000  0.5454850000000  0.5267500000000 1.0
C      1  0.4954190000000  0.5125590000000  0.4669260000000 1.0
C      1  0.5454580000000  0.4958480000000  0.5340720000000 1.0
C      1  0.4783120000000  0.5170710000000  0.4193790000000 1.0
C      1  0.4821280000000  0.4635250000000  0.4272990000000 1.0
C      1  0.5125210000000  0.5836750000000  0.5605930000000 1.0
C      1  0.4812970000000  0.5305890000000  0.4437470000000 1.0
C      1  0.5102250000000  0.4841720000000  0.5678480000000 1.0
C      1  0.5181970000000  0.4674320000000  0.4591340000000 1.0
C      1  0.5362570000000  0.4725860000000  0.4797370000000 1.0
C      1  0.4761590000000  0.4950120000000  0.4834890000000 1.0
C      1  0.4903640000000  0.4911390000000  0.4205910000000 1.0
C      1  0.5401650000000  0.5043160000000  0.4839400000000 1.0
C      1  0.4297980000000  0.4395470000000  0.4923130000000 1.0
C      1  0.5346780000000  0.4825870000000  0.5562630000000 1.0
C      1  0.5458150000000  0.5240910000000  0.5350320000000 1.0
C      1  0.4787380000000  0.4805950000000  0.5570880000000 1.0
C      1  0.4666470000000  0.5020050000000  0.5084480000000 1.0
C      1  0.4894100000000  0.4581440000000  0.4547820000000 1.0
C      1  0.5218230000000  0.5658190000000  0.5438120000000 1.0
C      1  0.5193160000000  0.5229070000000  0.4823790000000 1.0
C      1  0.4714160000000  0.4686850000000  0.4745680000000 1.0
END
