TITL C-2848507-1641-93 -0.00330452147133961 125000 -608.094469396166 0 0 113 (C1) n - 1
REM
REM in /home/bkarasulu/work/CARBON/AIRSS/Generating-Clusters/AIREBO/with-SteepDescent/Only-C1/SD-CG-opt/Try1-1.4A-POS3A/HFTN-CG
REM
REM
REM
REM
REM
REM ./C.cell (11c1c37f851c82e70ff6c80c92926a4b)
REM
REM compiler GCC version 9.2.1 20190827 (Red Hat 9.2.1-1)
REM options -cpp -mtune=generic -march=x86-64 -g -O0 -fpre-include=/usr/include/finclude/math-vector-fortran.h
REM seed 1281070204 -8914174 -383596609 -1141164078 1718250928 -1169175624 -200051831 -1236635683 281833056 -2144490871 489073070 -1240240890 -76351833 -1790934403 -1037278254 -1008453455 -31319181 1138852407 -632477387 -1697796273 1274493431 -1716026613 -2131715669 -1852301181 820887723 -247608850 444066045 -1748023301 -129122931 1711380639 1459852764 -1380132494 -1913570543
REM
CELL 1.54180   50.00000   50.00000   50.00000   90.00000   90.00000   90.00000
LATT -1
SFAC C  
C      1  0.4710010000000  0.5261330000000  0.4446560000000 1.0
C      1  0.5076730000000  0.5677280000000  0.4564530000000 1.0
C      1  0.6034870000000  0.5244900000000  0.4628330000000 1.0
C      1  0.4942100000000  0.4944420000000  0.4843160000000 1.0
C      1  0.4766630000000  0.4794970000000  0.5337900000000 1.0
C      1  0.4053560000000  0.5590910000000  0.4661020000000 1.0
C      1  0.4052230000000  0.4690540000000  0.4864790000000 1.0
C      1  0.5101960000000  0.5306940000000  0.5218930000000 1.0
C      1  0.4835270000000  0.5320820000000  0.4136110000000 1.0
C      1  0.4863580000000  0.5596000000000  0.5675950000000 1.0
C      1  0.5200210000000  0.5031290000000  0.5258730000000 1.0
C      1  0.5092420000000  0.4183780000000  0.5292000000000 1.0
C      1  0.5810710000000  0.5309770000000  0.4784790000000 1.0
C      1  0.5231390000000  0.5287650000000  0.5883690000000 1.0
C      1  0.5698060000000  0.4514270000000  0.4540710000000 1.0
C      1  0.4997850000000  0.4639610000000  0.5485530000000 1.0
C      1  0.4815280000000  0.5576910000000  0.5171200000000 1.0
C      1  0.5453080000000  0.4967360000000  0.5142850000000 1.0
C      1  0.4416990000000  0.4114720000000  0.4879780000000 1.0
C      1  0.4803500000000  0.4187150000000  0.4934720000000 1.0
C      1  0.4693730000000  0.5152090000000  0.4769090000000 1.0
C      1  0.5536000000000  0.5219710000000  0.5811760000000 1.0
C      1  0.4922690000000  0.5173150000000  0.5968720000000 1.0
C      1  0.5634660000000  0.5631970000000  0.5229490000000 1.0
C      1  0.5697580000000  0.5076660000000  0.5594480000000 1.0
C      1  0.5394580000000  0.5325700000000  0.5521190000000 1.0
C      1  0.5189480000000  0.5550950000000  0.5684570000000 1.0
C      1  0.4912700000000  0.4819150000000  0.4342150000000 1.0
C      1  0.4577910000000  0.5734500000000  0.4507850000000 1.0
C      1  0.4804690000000  0.5313500000000  0.5386230000000 1.0
C      1  0.4930100000000  0.4312230000000  0.5561760000000 1.0
C      1  0.5493090000000  0.4483650000000  0.5986040000000 1.0
C      1  0.4995980000000  0.4851920000000  0.5132250000000 1.0
C      1  0.5667400000000  0.5248480000000  0.5329880000000 1.0
C      1  0.5146080000000  0.5861630000000  0.4846190000000 1.0
C      1  0.4452550000000  0.5679430000000  0.5303400000000 1.0
C      1  0.4397860000000  0.5166640000000  0.5600740000000 1.0
C      1  0.5000870000000  0.4735040000000  0.4632840000000 1.0
C      1  0.5366280000000  0.5641160000000  0.4937250000000 1.0
C      1  0.5705020000000  0.4906740000000  0.4207440000000 1.0
C      1  0.5372300000000  0.4202470000000  0.5007570000000 1.0
C      1  0.5548740000000  0.4735770000000  0.4360060000000 1.0
C      1  0.4536110000000  0.4223810000000  0.5137240000000 1.0
C      1  0.5659630000000  0.5788770000000  0.4942550000000 1.0
C      1  0.5806450000000  0.4806190000000  0.5062980000000 1.0
C      1  0.4834880000000  0.5802710000000  0.4969970000000 1.0
C      1  0.5443910000000  0.4982180000000  0.4809270000000 1.0
C      1  0.5111070000000  0.4392080000000  0.4336490000000 1.0
C      1  0.5169130000000  0.4981520000000  0.4228740000000 1.0
C      1  0.4630010000000  0.4690730000000  0.5828040000000 1.0
C      1  0.5296620000000  0.4870310000000  0.4523830000000 1.0
C      1  0.4713740000000  0.5692520000000  0.5462700000000 1.0
C      1  0.5554610000000  0.4675180000000  0.4890910000000 1.0
C      1  0.5664530000000  0.4852820000000  0.5368360000000 1.0
C      1  0.4225410000000  0.5380900000000  0.4502390000000 1.0
C      1  0.4970970000000  0.5213690000000  0.5634610000000 1.0
C      1  0.5454340000000  0.4351770000000  0.5280070000000 1.0
C      1  0.4641660000000  0.4490520000000  0.5586910000000 1.0
C      1  0.5419120000000  0.4475690000000  0.4250710000000 1.0
C      1  0.4732480000000  0.5435320000000  0.5865280000000 1.0
C      1  0.5202360000000  0.4756130000000  0.5676670000000 1.0
C      1  0.5084260000000  0.5229760000000  0.4797470000000 1.0
C      1  0.4614130000000  0.5069110000000  0.5368330000000 1.0
C      1  0.5290770000000  0.5478740000000  0.4159740000000 1.0
C      1  0.5021680000000  0.5367940000000  0.4530900000000 1.0
C      1  0.4435760000000  0.4758580000000  0.4951140000000 1.0
C      1  0.5518230000000  0.4362240000000  0.4773660000000 1.0
C      1  0.4616660000000  0.4121770000000  0.4655910000000 1.0
C      1  0.4127280000000  0.5698940000000  0.4905040000000 1.0
C      1  0.4853340000000  0.5317430000000  0.4992520000000 1.0
C      1  0.5389350000000  0.4266730000000  0.4491280000000 1.0
C      1  0.5367040000000  0.5308230000000  0.4868180000000 1.0
C      1  0.4730540000000  0.4319160000000  0.4421070000000 1.0
C      1  0.5081420000000  0.4031620000000  0.5012420000000 1.0
C      1  0.4377330000000  0.4855870000000  0.5271180000000 1.0
C      1  0.4359300000000  0.4441960000000  0.5398980000000 1.0
C      1  0.5102760000000  0.5269450000000  0.4115040000000 1.0
C      1  0.4597570000000  0.4959670000000  0.4337030000000 1.0
C      1  0.4992260000000  0.4113240000000  0.4490590000000 1.0
C      1  0.5210490000000  0.6056220000000  0.5087000000000 1.0
C      1  0.5152330000000  0.4506160000000  0.5256530000000 1.0
C      1  0.5134560000000  0.4400810000000  0.4872490000000 1.0
C      1  0.5336730000000  0.4515990000000  0.5765300000000 1.0
C      1  0.4795910000000  0.5797690000000  0.4667150000000 1.0
C      1  0.5021150000000  0.3946710000000  0.4702400000000 1.0
C      1  0.4683640000000  0.4937300000000  0.5913540000000 1.0
C      1  0.4223450000000  0.5132030000000  0.5343690000000 1.0
C      1  0.5274180000000  0.4283040000000  0.5561770000000 1.0
C      1  0.4834200000000  0.4522410000000  0.4195510000000 1.0
C      1  0.4651330000000  0.4510660000000  0.5247620000000 1.0
C      1  0.5842120000000  0.5534420000000  0.5001590000000 1.0
C      1  0.5323860000000  0.5788980000000  0.5753780000000 1.0
C      1  0.4844990000000  0.4444220000000  0.4715810000000 1.0
C      1  0.4263910000000  0.5274150000000  0.5076620000000 1.0
C      1  0.5293980000000  0.5204190000000  0.4459500000000 1.0
C      1  0.4551380000000  0.4584890000000  0.4766130000000 1.0
C      1  0.5542010000000  0.5390690000000  0.4598560000000 1.0
C      1  0.4170150000000  0.5194670000000  0.4761180000000 1.0
C      1  0.4205000000000  0.4604800000000  0.5148160000000 1.0
C      1  0.5221030000000  0.5036210000000  0.5563300000000 1.0
C      1  0.4491880000000  0.5485770000000  0.4451040000000 1.0
C      1  0.5686800000000  0.4541870000000  0.5252500000000 1.0
C      1  0.5347730000000  0.5593760000000  0.4406940000000 1.0
C      1  0.4547040000000  0.5194220000000  0.5835490000000 1.0
C      1  0.4438250000000  0.5055500000000  0.4878830000000 1.0
C      1  0.4604100000000  0.4728710000000  0.4114570000000 1.0
C      1  0.4308910000000  0.5023810000000  0.4501960000000 1.0
C      1  0.5239640000000  0.4668680000000  0.4988580000000 1.0
C      1  0.5201110000000  0.6098480000000  0.4645040000000 1.0
C      1  0.5798450000000  0.5145890000000  0.5082480000000 1.0
C      1  0.4279250000000  0.5574200000000  0.5106800000000 1.0
C      1  0.4131360000000  0.4810150000000  0.4659620000000 1.0
C      1  0.5325670000000  0.5516330000000  0.5248110000000 1.0
END
