TITL C-2848506-1665-381 -0.00132683467886326 125000 -694.061479098847 0 0 131 (C1) n - 1
REM
REM in /home/bkarasulu/work/CARBON/AIRSS/Generating-Clusters/AIREBO/with-SteepDescent/Only-C1/SD-CG-opt/Try1-1.4A-POS3A/HFTN-CG
REM
REM
REM
REM
REM
REM ./C.cell (11c1c37f851c82e70ff6c80c92926a4b)
REM
REM compiler GCC version 9.2.1 20190827 (Red Hat 9.2.1-1)
REM options -cpp -mtune=generic -march=x86-64 -g -O0 -fpre-include=/usr/include/finclude/math-vector-fortran.h
REM seed -2025905235 1313837808 -1291451585 1051894325 -1333603069 1752914940 -70485045 -1591798118 1554400930 -1870217220 -10922030 970353351 -512103740 1346783231 637114151 -936335186 1079505926 -1394245941 805938663 -612279617 206637794 -832391099 1957657765 1604118380 1902897716 1805602716 1430075666 -260697571 563878971 -750065145 -1834744612 -387302836 -1804467951
REM
CELL 1.54180   50.00000   50.00000   50.00000   90.00000   90.00000   90.00000
LATT -1
SFAC C  
C      1  0.5148930000000  0.4024170000000  0.4876520000000 1.0
C      1  0.5318440000000  0.5238920000000  0.5998880000000 1.0
C      1  0.4378900000000  0.5078330000000  0.4805790000000 1.0
C      1  0.5621040000000  0.4414790000000  0.4934450000000 1.0
C      1  0.5755970000000  0.4899190000000  0.5456870000000 1.0
C      1  0.4683750000000  0.5038340000000  0.4951420000000 1.0
C      1  0.4420130000000  0.5791540000000  0.4829550000000 1.0
C      1  0.5439610000000  0.5744460000000  0.4975720000000 1.0
C      1  0.4681600000000  0.4499960000000  0.4762980000000 1.0
C      1  0.4873210000000  0.4736290000000  0.4114200000000 1.0
C      1  0.4217440000000  0.4428030000000  0.5043600000000 1.0
C      1  0.5056660000000  0.5845930000000  0.5211700000000 1.0
C      1  0.4179000000000  0.5429660000000  0.4563310000000 1.0
C      1  0.5261890000000  0.5322630000000  0.4995970000000 1.0
C      1  0.5068810000000  0.5006610000000  0.5136020000000 1.0
C      1  0.5434240000000  0.4696020000000  0.4973460000000 1.0
C      1  0.4315090000000  0.5301430000000  0.5054410000000 1.0
C      1  0.4784150000000  0.4201960000000  0.4267870000000 1.0
C      1  0.4871650000000  0.4835360000000  0.5311940000000 1.0
C      1  0.4202620000000  0.5666940000000  0.5596950000000 1.0
C      1  0.5616800000000  0.5572860000000  0.4762940000000 1.0
C      1  0.5319880000000  0.4368270000000  0.4783540000000 1.0
C      1  0.5267150000000  0.4050370000000  0.5136310000000 1.0
C      1  0.4605150000000  0.4683040000000  0.4316660000000 1.0
C      1  0.4487470000000  0.5568480000000  0.5153410000000 1.0
C      1  0.4456130000000  0.4184380000000  0.4669280000000 1.0
C      1  0.4163550000000  0.4920720000000  0.4509100000000 1.0
C      1  0.4509700000000  0.4332480000000  0.5157000000000 1.0
C      1  0.5326710000000  0.4687380000000  0.5358620000000 1.0
C      1  0.5023040000000  0.4879260000000  0.5603470000000 1.0
C      1  0.5007620000000  0.5446600000000  0.4700070000000 1.0
C      1  0.4669990000000  0.5740990000000  0.4642640000000 1.0
C      1  0.6136240000000  0.4989630000000  0.4706640000000 1.0
C      1  0.4899750000000  0.5348300000000  0.5738540000000 1.0
C      1  0.5115500000000  0.5079190000000  0.4808680000000 1.0
C      1  0.4807140000000  0.5724830000000  0.4900790000000 1.0
C      1  0.4218340000000  0.4817020000000  0.5388810000000 1.0
C      1  0.5865040000000  0.4793080000000  0.5214820000000 1.0
C      1  0.5059680000000  0.4463810000000  0.4650810000000 1.0
C      1  0.4500470000000  0.4348670000000  0.5472540000000 1.0
C      1  0.4856260000000  0.4743740000000  0.4923290000000 1.0
C      1  0.5098370000000  0.4126360000000  0.5345800000000 1.0
C      1  0.5245990000000  0.6017380000000  0.5308650000000 1.0
C      1  0.5305440000000  0.4737010000000  0.4421530000000 1.0
C      1  0.4888140000000  0.4236950000000  0.4827450000000 1.0
C      1  0.4618250000000  0.5405860000000  0.5745200000000 1.0
C      1  0.5803960000000  0.4816410000000  0.4337600000000 1.0
C      1  0.5389180000000  0.4988200000000  0.5248640000000 1.0
C      1  0.5032140000000  0.4861770000000  0.5941830000000 1.0
C      1  0.4742950000000  0.4556100000000  0.5183290000000 1.0
C      1  0.5197550000000  0.5330670000000  0.4253410000000 1.0
C      1  0.4381340000000  0.4679220000000  0.4125040000000 1.0
C      1  0.5191130000000  0.5060360000000  0.4047180000000 1.0
C      1  0.5177610000000  0.5727110000000  0.5573930000000 1.0
C      1  0.4531770000000  0.5279500000000  0.4453560000000 1.0
C      1  0.5937020000000  0.5402050000000  0.5251040000000 1.0
C      1  0.5032670000000  0.4162830000000  0.4245850000000 1.0
C      1  0.4765380000000  0.5212570000000  0.4254050000000 1.0
C      1  0.4455410000000  0.4891230000000  0.5156060000000 1.0
C      1  0.5338590000000  0.5437680000000  0.4621530000000 1.0
C      1  0.4478380000000  0.4851030000000  0.4583870000000 1.0
C      1  0.4911920000000  0.5505310000000  0.4193800000000 1.0
C      1  0.5449540000000  0.5863470000000  0.5469530000000 1.0
C      1  0.5862620000000  0.4516710000000  0.5150970000000 1.0
C      1  0.5183670000000  0.5349540000000  0.5299450000000 1.0
C      1  0.5697920000000  0.4324880000000  0.5315470000000 1.0
C      1  0.5481470000000  0.4927910000000  0.4732550000000 1.0
C      1  0.4996730000000  0.4557210000000  0.5839110000000 1.0
C      1  0.4821770000000  0.5226380000000  0.5198920000000 1.0
C      1  0.5207100000000  0.5369670000000  0.5775980000000 1.0
C      1  0.5529500000000  0.4151740000000  0.5136700000000 1.0
C      1  0.4444900000000  0.4653290000000  0.4929010000000 1.0
C      1  0.4792600000000  0.5532910000000  0.5166210000000 1.0
C      1  0.5324570000000  0.5627230000000  0.4360990000000 1.0
C      1  0.4600080000000  0.5666300000000  0.5560470000000 1.0
C      1  0.5662940000000  0.4705900000000  0.5642120000000 1.0
C      1  0.5068650000000  0.4785110000000  0.4660840000000 1.0
C      1  0.5836690000000  0.4959690000000  0.4976320000000 1.0
C      1  0.5527030000000  0.5884990000000  0.4677480000000 1.0
C      1  0.5553710000000  0.4474620000000  0.5496060000000 1.0
C      1  0.4229810000000  0.5187400000000  0.4420590000000 1.0
C      1  0.4642080000000  0.4915080000000  0.5507140000000 1.0
C      1  0.5871610000000  0.5279800000000  0.5464030000000 1.0
C      1  0.4713200000000  0.4975390000000  0.4066050000000 1.0
C      1  0.5138040000000  0.4810010000000  0.4152700000000 1.0
C      1  0.3848490000000  0.5188870000000  0.5078880000000 1.0
C      1  0.4387310000000  0.5249040000000  0.5770040000000 1.0
C      1  0.5547810000000  0.4888330000000  0.4268600000000 1.0
C      1  0.4386290000000  0.5440870000000  0.5421550000000 1.0
C      1  0.4068090000000  0.4998620000000  0.4925150000000 1.0
C      1  0.5266720000000  0.4674300000000  0.5681830000000 1.0
C      1  0.4921840000000  0.4126170000000  0.5582250000000 1.0
C      1  0.5002380000000  0.4435770000000  0.5342980000000 1.0
C      1  0.5854090000000  0.4807190000000  0.4669880000000 1.0
C      1  0.4459190000000  0.5134100000000  0.5394130000000 1.0
C      1  0.4095310000000  0.4725360000000  0.5112440000000 1.0
C      1  0.4154540000000  0.4712800000000  0.4770200000000 1.0
C      1  0.4167450000000  0.5114430000000  0.5547510000000 1.0
C      1  0.4703450000000  0.5567380000000  0.4425020000000 1.0
C      1  0.5649500000000  0.4296190000000  0.4604210000000 1.0
C      1  0.5128470000000  0.4618300000000  0.5091140000000 1.0
C      1  0.4306510000000  0.4583120000000  0.5569680000000 1.0
C      1  0.4570290000000  0.4692650000000  0.5661590000000 1.0
C      1  0.4091660000000  0.5237200000000  0.5244090000000 1.0
C      1  0.5210440000000  0.4261090000000  0.4447890000000 1.0
C      1  0.5797930000000  0.5451360000000  0.4449100000000 1.0
C      1  0.5548770000000  0.5140180000000  0.4989610000000 1.0
C      1  0.4372480000000  0.5867630000000  0.5110180000000 1.0
C      1  0.5293930000000  0.4957160000000  0.6014450000000 1.0
C      1  0.4401400000000  0.5476520000000  0.4775930000000 1.0
C      1  0.5891840000000  0.5194610000000  0.4750020000000 1.0
C      1  0.5001530000000  0.5174780000000  0.4495870000000 1.0
C      1  0.5397980000000  0.4071070000000  0.4646450000000 1.0
C      1  0.5418150000000  0.5874540000000  0.4424100000000 1.0
C      1  0.4618340000000  0.4388970000000  0.4452890000000 1.0
C      1  0.4366520000000  0.5851890000000  0.5407210000000 1.0
C      1  0.4881480000000  0.5699480000000  0.5436240000000 1.0
C      1  0.4792010000000  0.4436950000000  0.5629050000000 1.0
C      1  0.5573210000000  0.4627930000000  0.4600740000000 1.0
C      1  0.5702240000000  0.5439210000000  0.5041770000000 1.0
C      1  0.5389840000000  0.5469890000000  0.5507190000000 1.0
C      1  0.5494670000000  0.5168180000000  0.4283810000000 1.0
C      1  0.4823740000000  0.4885290000000  0.4481100000000 1.0
C      1  0.4989780000000  0.5173160000000  0.5489820000000 1.0
C      1  0.5562140000000  0.5178410000000  0.5471290000000 1.0
C      1  0.4592350000000  0.4146800000000  0.4921870000000 1.0
C      1  0.5560370000000  0.5647340000000  0.5266890000000 1.0
C      1  0.5594390000000  0.5216350000000  0.4586740000000 1.0
C      1  0.5501310000000  0.4793470000000  0.5878510000000 1.0
C      1  0.4699710000000  0.5309080000000  0.4746060000000 1.0
C      1  0.5129940000000  0.5633520000000  0.4956500000000 1.0
END
