TITL C-2848500-1637-186 -0.0001992288667911 125000 -399.688278674114 0 0 74 (C1) n - 1
REM
REM in /home/bkarasulu/work/CARBON/AIRSS/Generating-Clusters/AIREBO/with-SteepDescent/Only-C1/SD-CG-opt/Try1-1.4A-POS3A/HFTN-CG
REM
REM
REM
REM
REM
REM ./C.cell (11c1c37f851c82e70ff6c80c92926a4b)
REM
REM compiler GCC version 9.2.1 20190827 (Red Hat 9.2.1-1)
REM options -cpp -mtune=generic -march=x86-64 -g -O0 -fpre-include=/usr/include/finclude/math-vector-fortran.h
REM seed -108231566 -2027571756 437777786 -901900874 -1501547745 308356466 -603828696 -1156111268 1297534552 825428994 1083152896 1046347508 1489949433 -1083511564 -1685688316 -1561251292 -52989123 254154447 700548928 2073610155 -1032217312 -1800404847 1017222017 -112498986 1338664355 -979451841 -26292334 1836593187 508263369 -389747266 857404722 5446676 977441963
REM
CELL 1.54180   50.00000   50.00000   50.00000   90.00000   90.00000   90.00000
LATT -1
SFAC C  
C      1  0.4983150000000  0.4556100000000  0.4819790000000 1.0
C      1  0.5256490000000  0.5678370000000  0.4874610000000 1.0
C      1  0.4953720000000  0.4957300000000  0.5612860000000 1.0
C      1  0.4717970000000  0.4396170000000  0.4829550000000 1.0
C      1  0.4636580000000  0.5235370000000  0.5281640000000 1.0
C      1  0.5430050000000  0.5340650000000  0.5320870000000 1.0
C      1  0.4839970000000  0.5087950000000  0.4780990000000 1.0
C      1  0.5041940000000  0.5312600000000  0.5032480000000 1.0
C      1  0.5031700000000  0.5848950000000  0.4593380000000 1.0
C      1  0.4445960000000  0.4761250000000  0.5087090000000 1.0
C      1  0.5827390000000  0.5051200000000  0.5398120000000 1.0
C      1  0.4574510000000  0.4837550000000  0.5651230000000 1.0
C      1  0.4268250000000  0.5351320000000  0.5187610000000 1.0
C      1  0.4571590000000  0.4486030000000  0.4372350000000 1.0
C      1  0.4441920000000  0.4937310000000  0.4421320000000 1.0
C      1  0.5489320000000  0.4723300000000  0.4512910000000 1.0
C      1  0.4732240000000  0.4342800000000  0.5131390000000 1.0
C      1  0.5596370000000  0.4822460000000  0.5431500000000 1.0
C      1  0.4601780000000  0.5138930000000  0.5667010000000 1.0
C      1  0.5707360000000  0.5496660000000  0.5080760000000 1.0
C      1  0.5193660000000  0.4315070000000  0.4781890000000 1.0
C      1  0.4894080000000  0.5618740000000  0.5025790000000 1.0
C      1  0.4158410000000  0.5680650000000  0.4554810000000 1.0
C      1  0.5545940000000  0.4500520000000  0.4763500000000 1.0
C      1  0.5404420000000  0.4992380000000  0.4795100000000 1.0
C      1  0.5719690000000  0.4722650000000  0.5124010000000 1.0
C      1  0.5396230000000  0.4822460000000  0.5156430000000 1.0
C      1  0.4944830000000  0.4872950000000  0.4248340000000 1.0
C      1  0.5357620000000  0.5361800000000  0.5654180000000 1.0
C      1  0.5445090000000  0.4828350000000  0.5706510000000 1.0
C      1  0.5261590000000  0.4522430000000  0.5243570000000 1.0
C      1  0.4714020000000  0.5373250000000  0.4911860000000 1.0
C      1  0.4367490000000  0.4726740000000  0.5419360000000 1.0
C      1  0.4379500000000  0.5276360000000  0.5468140000000 1.0
C      1  0.4954240000000  0.5303030000000  0.4542670000000 1.0
C      1  0.5028770000000  0.4499620000000  0.5494550000000 1.0
C      1  0.4739980000000  0.5095110000000  0.4383730000000 1.0
C      1  0.5263470000000  0.4272900000000  0.4512300000000 1.0
C      1  0.4562980000000  0.4512040000000  0.5262780000000 1.0
C      1  0.4784120000000  0.5491310000000  0.5286990000000 1.0
C      1  0.5218050000000  0.4916130000000  0.4536370000000 1.0
C      1  0.5223040000000  0.4943740000000  0.5814570000000 1.0
C      1  0.5126490000000  0.5242100000000  0.5833240000000 1.0
C      1  0.4840700000000  0.4661180000000  0.5615140000000 1.0
C      1  0.5292610000000  0.4693310000000  0.4859340000000 1.0
C      1  0.4101160000000  0.4707670000000  0.5491370000000 1.0
C      1  0.5299520000000  0.4506540000000  0.4353310000000 1.0
C      1  0.4575320000000  0.4916360000000  0.4129700000000 1.0
C      1  0.4964120000000  0.4832780000000  0.4680090000000 1.0
C      1  0.5344020000000  0.5148030000000  0.5054130000000 1.0
C      1  0.5397380000000  0.5625480000000  0.5141560000000 1.0
C      1  0.4630920000000  0.5005290000000  0.5036140000000 1.0
C      1  0.5007340000000  0.5096420000000  0.5243660000000 1.0
C      1  0.5652140000000  0.5012870000000  0.4592770000000 1.0
C      1  0.4656570000000  0.4281200000000  0.4536670000000 1.0
C      1  0.5754430000000  0.5294140000000  0.5308160000000 1.0
C      1  0.4287450000000  0.5571010000000  0.4754820000000 1.0
C      1  0.5808450000000  0.5427660000000  0.4827010000000 1.0
C      1  0.4417890000000  0.5431240000000  0.4954350000000 1.0
C      1  0.5207400000000  0.5125440000000  0.5461260000000 1.0
C      1  0.4992950000000  0.5877940000000  0.4893520000000 1.0
C      1  0.4429910000000  0.4679540000000  0.4537820000000 1.0
C      1  0.4870830000000  0.5333430000000  0.5722090000000 1.0
C      1  0.5130450000000  0.5126450000000  0.4314730000000 1.0
C      1  0.4747770000000  0.4622760000000  0.4150320000000 1.0
C      1  0.5388960000000  0.4336640000000  0.5008200000000 1.0
C      1  0.5116530000000  0.5554690000000  0.4589970000000 1.0
C      1  0.5201550000000  0.5654040000000  0.5418640000000 1.0
C      1  0.4934770000000  0.5546940000000  0.5513930000000 1.0
C      1  0.5087020000000  0.4587260000000  0.4190200000000 1.0
C      1  0.4982590000000  0.4328020000000  0.5240990000000 1.0
C      1  0.4775530000000  0.4927050000000  0.5324300000000 1.0
C      1  0.5804780000000  0.5227260000000  0.4637830000000 1.0
C      1  0.4467020000000  0.4608730000000  0.4809820000000 1.0
END
