TITL C-2847951-7423-190 -0.000160134645002892 125000 -141.19099264534 0 0 26 (C1) n - 1
REM
REM in /home/bkarasulu/work/CARBON/AIRSS/Generating-Clusters/AIREBO/with-SteepDescent/Only-C1/SD-CG-opt/Try1-1.4A-POS3A/HFTN-CG
REM
REM
REM
REM
REM
REM ./C.cell (11c1c37f851c82e70ff6c80c92926a4b)
REM
REM compiler GCC version 9.2.1 20190827 (Red Hat 9.2.1-1)
REM options -cpp -mtune=generic -march=x86-64 -g -O0 -fpre-include=/usr/include/finclude/math-vector-fortran.h
REM seed 1546519750 2118637192 277302574 -1995671722 -1237985800 -1468497626 1050130603 -644009964 -1696621662 1637009912 1258409621 -1449127965 -1675366566 -1244715441 1966012015 -1099730124 -1489642086 -1967492165 753045577 -483827342 1011009500 902099749 -302997988 -1386928261 1501859513 -310972571 695603099 1049344547 -823214216 346425213 -698443918 859502032 -1880179999
REM
CELL 1.54180   50.00000   50.00000   50.00000   90.00000   90.00000   90.00000
LATT -1
SFAC C  
C      1  0.4742160000000  0.5428340000000  0.4952910000000 1.0
C      1  0.5125480000000  0.5098350000000  0.5018900000000 1.0
C      1  0.5297940000000  0.5078180000000  0.4484120000000 1.0
C      1  0.5459050000000  0.5048460000000  0.5062160000000 1.0
C      1  0.5387980000000  0.5190050000000  0.4780220000000 1.0
C      1  0.5361910000000  0.5174440000000  0.5353480000000 1.0
C      1  0.5347650000000  0.4792220000000  0.5243180000000 1.0
C      1  0.4538360000000  0.4586190000000  0.4942430000000 1.0
C      1  0.5111090000000  0.5298620000000  0.4623420000000 1.0
C      1  0.4694210000000  0.4795110000000  0.5024850000000 1.0
C      1  0.4746720000000  0.5696880000000  0.4869250000000 1.0
C      1  0.4656030000000  0.4952100000000  0.5255340000000 1.0
C      1  0.5190090000000  0.4819480000000  0.4462180000000 1.0
C      1  0.4896770000000  0.5070590000000  0.5344910000000 1.0
C      1  0.4867690000000  0.5222780000000  0.4742340000000 1.0
C      1  0.5316780000000  0.4509510000000  0.5068100000000 1.0
C      1  0.5146500000000  0.4965770000000  0.5428700000000 1.0
C      1  0.5507930000000  0.4500800000000  0.5316260000000 1.0
C      1  0.5234790000000  0.5423330000000  0.5321430000000 1.0
C      1  0.5167320000000  0.4499930000000  0.4839680000000 1.0
C      1  0.5062580000000  0.4711510000000  0.4689420000000 1.0
C      1  0.4909400000000  0.4913690000000  0.4854980000000 1.0
C      1  0.4437000000000  0.5131700000000  0.5239550000000 1.0
C      1  0.4959070000000  0.5345270000000  0.5164910000000 1.0
C      1  0.4461730000000  0.5343310000000  0.5065260000000 1.0
C      1  0.4373780000000  0.4403370000000  0.4852000000000 1.0
END
