TITL C-2847944-5688-35 -0.00144799679474857 125000 -771.258523099113 0 0 149 (C1) n - 1
REM
REM in /home/bkarasulu/work/CARBON/AIRSS/Generating-Clusters/AIREBO/with-SteepDescent/Only-C1/SD-CG-opt/Try1-1.4A-POS3A/HFTN-CG
REM
REM
REM
REM
REM
REM ./C.cell (11c1c37f851c82e70ff6c80c92926a4b)
REM
REM compiler GCC version 9.2.1 20190827 (Red Hat 9.2.1-1)
REM options -cpp -mtune=generic -march=x86-64 -g -O0 -fpre-include=/usr/include/finclude/math-vector-fortran.h
REM seed -1349960145 -847341101 -821653185 -728371206 198666999 -1494639075 611981898 -634259499 905109640 -924672691 2117915893 -247937405 -1759885398 -100351339 278548199 980689126 -2074865684 1433946273 -986558578 -574020692 -1485690289 -134082699 1802780616 -204438736 1553725464 -563122516 1279163719 -2100264489 1742604949 964518491 -94285917 -876089765 -2062348712
REM
CELL 1.54180   50.00000   50.00000   50.00000   90.00000   90.00000   90.00000
LATT -1
SFAC C  
C      1  0.5728010000000  0.5458380000000  0.4648620000000 1.0
C      1  0.4555870000000  0.4671900000000  0.3737800000000 1.0
C      1  0.5316470000000  0.5519010000000  0.5398450000000 1.0
C      1  0.5406880000000  0.4504500000000  0.4628290000000 1.0
C      1  0.4289040000000  0.4950580000000  0.5510830000000 1.0
C      1  0.4623790000000  0.5278610000000  0.5662780000000 1.0
C      1  0.4924500000000  0.5121280000000  0.4767730000000 1.0
C      1  0.5614720000000  0.4820860000000  0.5797530000000 1.0
C      1  0.5425060000000  0.4945500000000  0.4265310000000 1.0
C      1  0.5324390000000  0.4824400000000  0.4714620000000 1.0
C      1  0.5574130000000  0.5215190000000  0.4129400000000 1.0
C      1  0.4741910000000  0.5124560000000  0.4088410000000 1.0
C      1  0.5458970000000  0.4205610000000  0.4761890000000 1.0
C      1  0.4407680000000  0.5645230000000  0.4706960000000 1.0
C      1  0.5781140000000  0.5673200000000  0.4981470000000 1.0
C      1  0.4176470000000  0.5041490000000  0.4433620000000 1.0
C      1  0.4941340000000  0.5337140000000  0.4246630000000 1.0
C      1  0.5025560000000  0.4706830000000  0.4277400000000 1.0
C      1  0.3775270000000  0.5047940000000  0.5429300000000 1.0
C      1  0.4021090000000  0.5089570000000  0.4877710000000 1.0
C      1  0.4210810000000  0.4633160000000  0.4706900000000 1.0
C      1  0.5168770000000  0.5165430000000  0.5003560000000 1.0
C      1  0.4773470000000  0.4472560000000  0.4906490000000 1.0
C      1  0.4672610000000  0.4783820000000  0.3936570000000 1.0
C      1  0.5066200000000  0.5651140000000  0.5084110000000 1.0
C      1  0.4842530000000  0.4323040000000  0.5204260000000 1.0
C      1  0.5348870000000  0.5326460000000  0.4358760000000 1.0
C      1  0.5627240000000  0.4192150000000  0.5278880000000 1.0
C      1  0.5066140000000  0.5918020000000  0.4902410000000 1.0
C      1  0.4993000000000  0.4901070000000  0.4037350000000 1.0
C      1  0.4018830000000  0.4983480000000  0.5367630000000 1.0
C      1  0.3993620000000  0.4803960000000  0.4883900000000 1.0
C      1  0.5962390000000  0.4710380000000  0.5355450000000 1.0
C      1  0.4516680000000  0.4249600000000  0.4899840000000 1.0
C      1  0.4640700000000  0.4853910000000  0.4267840000000 1.0
C      1  0.6110950000000  0.4441900000000  0.5487450000000 1.0
C      1  0.5576220000000  0.5451810000000  0.5069500000000 1.0
C      1  0.5769290000000  0.4840370000000  0.5570360000000 1.0
C      1  0.4428690000000  0.5117200000000  0.4305560000000 1.0
C      1  0.5431520000000  0.5132960000000  0.4619750000000 1.0
C      1  0.4293660000000  0.5429120000000  0.5247500000000 1.0
C      1  0.4867080000000  0.5152110000000  0.5843850000000 1.0
C      1  0.5597150000000  0.4397240000000  0.5008520000000 1.0
C      1  0.5274270000000  0.5841810000000  0.4570510000000 1.0
C      1  0.5783330000000  0.5617980000000  0.5492560000000 1.0
C      1  0.5144280000000  0.3915530000000  0.5029640000000 1.0
C      1  0.6007810000000  0.5226450000000  0.5185910000000 1.0
C      1  0.5274930000000  0.4459490000000  0.5097610000000 1.0
C      1  0.4186750000000  0.5125350000000  0.5136660000000 1.0
C      1  0.5149110000000  0.5342880000000  0.3999200000000 1.0
C      1  0.5598340000000  0.4935330000000  0.5036180000000 1.0
C      1  0.5244170000000  0.4303890000000  0.4405080000000 1.0
C      1  0.4999000000000  0.5392960000000  0.4577240000000 1.0
C      1  0.4260950000000  0.4846120000000  0.5812280000000 1.0
C      1  0.4544570000000  0.5745010000000  0.5584890000000 1.0
C      1  0.4027190000000  0.4416490000000  0.5128670000000 1.0
C      1  0.4155050000000  0.5197100000000  0.4662570000000 1.0
C      1  0.4801740000000  0.5644080000000  0.4291180000000 1.0
C      1  0.5199270000000  0.4719890000000  0.5569160000000 1.0
C      1  0.6102470000000  0.4961360000000  0.5207230000000 1.0
C      1  0.5205750000000  0.5594150000000  0.4397130000000 1.0
C      1  0.4497660000000  0.4707340000000  0.5396580000000 1.0
C      1  0.4991120000000  0.4518170000000  0.4649060000000 1.0
C      1  0.4508870000000  0.5615050000000  0.4383700000000 1.0
C      1  0.4815170000000  0.4756290000000  0.5264130000000 1.0
C      1  0.3954500000000  0.5701970000000  0.4959670000000 1.0
C      1  0.5302810000000  0.4565830000000  0.4254290000000 1.0
C      1  0.5713590000000  0.5191030000000  0.4438990000000 1.0
C      1  0.4782930000000  0.4839320000000  0.5947430000000 1.0
C      1  0.4758160000000  0.5741900000000  0.5844130000000 1.0
C      1  0.4526550000000  0.4311950000000  0.5448540000000 1.0
C      1  0.5678710000000  0.5029230000000  0.5323780000000 1.0
C      1  0.4112070000000  0.4780120000000  0.4448810000000 1.0
C      1  0.5443320000000  0.5585620000000  0.4717070000000 1.0
C      1  0.5024640000000  0.4651050000000  0.5050220000000 1.0
C      1  0.5130220000000  0.5080630000000  0.4365740000000 1.0
C      1  0.5268220000000  0.5460350000000  0.4966760000000 1.0
C      1  0.5021560000000  0.4850840000000  0.4585610000000 1.0
C      1  0.4740770000000  0.4532360000000  0.5702750000000 1.0
C      1  0.4779760000000  0.4174340000000  0.5503570000000 1.0
C      1  0.5209180000000  0.4300210000000  0.5360530000000 1.0
C      1  0.5651850000000  0.4593000000000  0.5281100000000 1.0
C      1  0.5587090000000  0.5399350000000  0.5663820000000 1.0
C      1  0.5273300000000  0.4856260000000  0.5048690000000 1.0
C      1  0.5785860000000  0.4382140000000  0.5511730000000 1.0
C      1  0.5048540000000  0.4054500000000  0.5237190000000 1.0
C      1  0.4538410000000  0.4685070000000  0.4782290000000 1.0
C      1  0.5195390000000  0.4368780000000  0.5759260000000 1.0
C      1  0.4554720000000  0.4584290000000  0.4456580000000 1.0
C      1  0.5401970000000  0.5801050000000  0.5311000000000 1.0
C      1  0.4460680000000  0.4452360000000  0.5167120000000 1.0
C      1  0.4691690000000  0.4871310000000  0.5622640000000 1.0
C      1  0.5283700000000  0.5071190000000  0.3990230000000 1.0
C      1  0.5008680000000  0.5701960000000  0.5616210000000 1.0
C      1  0.5679050000000  0.5775660000000  0.5280020000000 1.0
C      1  0.4871780000000  0.5037890000000  0.5414280000000 1.0
C      1  0.4198620000000  0.4367130000000  0.4874700000000 1.0
C      1  0.4989250000000  0.4138860000000  0.5672410000000 1.0
C      1  0.4388700000000  0.5417340000000  0.4222870000000 1.0
C      1  0.4945480000000  0.4236950000000  0.4373100000000 1.0
C      1  0.5782100000000  0.4258680000000  0.4683310000000 1.0
C      1  0.4558710000000  0.3972950000000  0.4939870000000 1.0
C      1  0.4431470000000  0.4936970000000  0.4988390000000 1.0
C      1  0.4193920000000  0.5592350000000  0.4966170000000 1.0
C      1  0.5664160000000  0.4815280000000  0.4723080000000 1.0
C      1  0.4398270000000  0.5235520000000  0.5511830000000 1.0
C      1  0.5092560000000  0.5841500000000  0.5355610000000 1.0
C      1  0.5460670000000  0.4294870000000  0.5559490000000 1.0
C      1  0.4702890000000  0.5081370000000  0.4512870000000 1.0
C      1  0.5280350000000  0.5534310000000  0.5733710000000 1.0
C      1  0.5371110000000  0.6003640000000  0.4826750000000 1.0
C      1  0.4839140000000  0.5414440000000  0.5025320000000 1.0
C      1  0.4967990000000  0.4522220000000  0.5450910000000 1.0
C      1  0.5561590000000  0.4718240000000  0.4413740000000 1.0
C      1  0.4940520000000  0.5669740000000  0.4707010000000 1.0
C      1  0.4416500000000  0.4319310000000  0.4582390000000 1.0
C      1  0.4349910000000  0.4505470000000  0.5626950000000 1.0
C      1  0.5422000000000  0.4621300000000  0.5781580000000 1.0
C      1  0.5399270000000  0.4747130000000  0.5340270000000 1.0
C      1  0.5005220000000  0.4584740000000  0.5909960000000 1.0
C      1  0.5933810000000  0.5378220000000  0.4907790000000 1.0
C      1  0.5872010000000  0.4496810000000  0.4834560000000 1.0
C      1  0.4805050000000  0.5298410000000  0.5309770000000 1.0
C      1  0.4115660000000  0.4590560000000  0.5409550000000 1.0
C      1  0.4370940000000  0.5748780000000  0.5362610000000 1.0
C      1  0.5345680000000  0.5172240000000  0.5587390000000 1.0
C      1  0.5407540000000  0.5223510000000  0.5256850000000 1.0
C      1  0.5199730000000  0.4066200000000  0.4802090000000 1.0
C      1  0.5629920000000  0.5962880000000  0.4915450000000 1.0
C      1  0.5794310000000  0.5309080000000  0.5405040000000 1.0
C      1  0.4756830000000  0.5515310000000  0.5517730000000 1.0
C      1  0.4567000000000  0.5534500000000  0.5093990000000 1.0
C      1  0.5515990000000  0.5081440000000  0.5862930000000 1.0
C      1  0.4391440000000  0.5335120000000  0.4734140000000 1.0
C      1  0.4952760000000  0.5896500000000  0.4461850000000 1.0
C      1  0.4562850000000  0.5829090000000  0.5093620000000 1.0
C      1  0.4811650000000  0.4484830000000  0.4294610000000 1.0
C      1  0.4977790000000  0.4201980000000  0.4694570000000 1.0
C      1  0.4616320000000  0.5194870000000  0.4891350000000 1.0
C      1  0.5081190000000  0.5704320000000  0.4137750000000 1.0
C      1  0.5094210000000  0.5003610000000  0.5637720000000 1.0
C      1  0.4625800000000  0.5869570000000  0.4570500000000 1.0
C      1  0.4967030000000  0.5467120000000  0.5858860000000 1.0
C      1  0.4491130000000  0.4662290000000  0.5893670000000 1.0
C      1  0.5552230000000  0.5192480000000  0.4885720000000 1.0
C      1  0.5923540000000  0.5114830000000  0.4692920000000 1.0
C      1  0.4226790000000  0.4691200000000  0.5104200000000 1.0
C      1  0.5976960000000  0.4792820000000  0.4779850000000 1.0
C      1  0.4733250000000  0.5924150000000  0.4872230000000 1.0
END
