TITL C-2847953-8112-738 -0.00140007057562183 125000 -439.688233094108 0 0 78 (C1) n - 1
REM
REM in /home/bkarasulu/work/CARBON/AIRSS/Generating-Clusters/AIREBO/with-SteepDescent/Only-C1/SD-CG-opt/Try1-1.4A-POS3A/HFTN-CG
REM
REM
REM
REM
REM
REM ./C.cell (11c1c37f851c82e70ff6c80c92926a4b)
REM
REM compiler GCC version 9.2.1 20190827 (Red Hat 9.2.1-1)
REM options -cpp -mtune=generic -march=x86-64 -g -O0 -fpre-include=/usr/include/finclude/math-vector-fortran.h
REM seed -1000342422 943559966 744893034 -523402249 1223249242 -1809078423 -155460567 -1060960702 272849660 -565868923 -1820525909 -2126924690 210125826 -555758457 -669094753 -1212042083 -1064100795 -336668981 684263903 -1018407129 492331672 2045214807 1062759159 591752453 -925950564 -1289121606 -998174239 596505450 -1699228210 1289928008 -1425716274 1210682868 1036362031
REM
CELL 1.54180   50.00000   50.00000   50.00000   90.00000   90.00000   90.00000
LATT -1
SFAC C  
C      1  0.4959530000000  0.5837150000000  0.4993700000000 1.0
C      1  0.5054950000000  0.5310190000000  0.4257550000000 1.0
C      1  0.4911620000000  0.4108200000000  0.4747370000000 1.0
C      1  0.5443870000000  0.5408550000000  0.4241790000000 1.0
C      1  0.4501370000000  0.4577710000000  0.4604070000000 1.0
C      1  0.4620290000000  0.4454910000000  0.4838370000000 1.0
C      1  0.4548560000000  0.4692180000000  0.5348280000000 1.0
C      1  0.5275900000000  0.5028270000000  0.5485210000000 1.0
C      1  0.4365760000000  0.5389840000000  0.5296560000000 1.0
C      1  0.4395070000000  0.4896480000000  0.4387960000000 1.0
C      1  0.4714200000000  0.4931000000000  0.4342650000000 1.0
C      1  0.4961310000000  0.5090690000000  0.5384930000000 1.0
C      1  0.5284460000000  0.4795170000000  0.4303510000000 1.0
C      1  0.4884710000000  0.5129220000000  0.5873590000000 1.0
C      1  0.4399500000000  0.5072480000000  0.4925010000000 1.0
C      1  0.4457380000000  0.5167160000000  0.5481680000000 1.0
C      1  0.4681170000000  0.4610890000000  0.4386950000000 1.0
C      1  0.5153660000000  0.4182380000000  0.5258550000000 1.0
C      1  0.5265780000000  0.5348160000000  0.5370100000000 1.0
C      1  0.4289330000000  0.4678780000000  0.5236040000000 1.0
C      1  0.4843160000000  0.4288490000000  0.5251480000000 1.0
C      1  0.5156450000000  0.5762170000000  0.4731830000000 1.0
C      1  0.5695810000000  0.5119830000000  0.4881680000000 1.0
C      1  0.4220890000000  0.4799220000000  0.5005490000000 1.0
C      1  0.4759890000000  0.4749340000000  0.4889990000000 1.0
C      1  0.5572060000000  0.5081010000000  0.5383070000000 1.0
C      1  0.5286020000000  0.5124640000000  0.4524990000000 1.0
C      1  0.4322370000000  0.4835570000000  0.4693510000000 1.0
C      1  0.5614700000000  0.4668950000000  0.4777200000000 1.0
C      1  0.5210750000000  0.4604350000000  0.5085520000000 1.0
C      1  0.4535770000000  0.5613870000000  0.5353360000000 1.0
C      1  0.5800430000000  0.4854710000000  0.4867210000000 1.0
C      1  0.5256560000000  0.4926440000000  0.5102740000000 1.0
C      1  0.5142320000000  0.5198660000000  0.5728630000000 1.0
C      1  0.4798950000000  0.4599280000000  0.5723260000000 1.0
C      1  0.4972600000000  0.5172690000000  0.4644550000000 1.0
C      1  0.5233820000000  0.5251980000000  0.5045210000000 1.0
C      1  0.5564420000000  0.5246350000000  0.5124810000000 1.0
C      1  0.5482900000000  0.4282460000000  0.4886450000000 1.0
C      1  0.4745870000000  0.4233880000000  0.4940430000000 1.0
C      1  0.4339530000000  0.5349590000000  0.5018930000000 1.0
C      1  0.4941140000000  0.5180960000000  0.6428330000000 1.0
C      1  0.5178440000000  0.4833070000000  0.4607660000000 1.0
C      1  0.4669610000000  0.4975730000000  0.5335030000000 1.0
C      1  0.4872240000000  0.4860880000000  0.4631030000000 1.0
C      1  0.5530830000000  0.4415830000000  0.4586330000000 1.0
C      1  0.4920070000000  0.4473250000000  0.4367830000000 1.0
C      1  0.6051360000000  0.4793590000000  0.4942250000000 1.0
C      1  0.5496820000000  0.5462070000000  0.4504650000000 1.0
C      1  0.4728900000000  0.5522690000000  0.5547690000000 1.0
C      1  0.5324790000000  0.4331530000000  0.5100540000000 1.0
C      1  0.5278320000000  0.5745520000000  0.5048920000000 1.0
C      1  0.4792680000000  0.5419130000000  0.4538320000000 1.0
C      1  0.4643620000000  0.5300790000000  0.5732530000000 1.0
C      1  0.5258200000000  0.4482120000000  0.4434030000000 1.0
C      1  0.4466940000000  0.5556770000000  0.4874630000000 1.0
C      1  0.4670630000000  0.5709370000000  0.5064620000000 1.0
C      1  0.4910690000000  0.5204920000000  0.4950240000000 1.0
C      1  0.5040980000000  0.4243600000000  0.4541490000000 1.0
C      1  0.5307780000000  0.5455510000000  0.5693720000000 1.0
C      1  0.4917830000000  0.4562700000000  0.5082630000000 1.0
C      1  0.5444160000000  0.5564850000000  0.5178130000000 1.0
C      1  0.4466820000000  0.4942350000000  0.5721290000000 1.0
C      1  0.4557990000000  0.5515270000000  0.4612580000000 1.0
C      1  0.4907080000000  0.5168240000000  0.6175730000000 1.0
C      1  0.5786030000000  0.5004740000000  0.5510450000000 1.0
C      1  0.5577470000000  0.5204870000000  0.4652550000000 1.0
C      1  0.4809590000000  0.5189410000000  0.4211730000000 1.0
C      1  0.5333700000000  0.4754000000000  0.4837070000000 1.0
C      1  0.5292330000000  0.5453690000000  0.4776320000000 1.0
C      1  0.4885730000000  0.5472690000000  0.5096450000000 1.0
C      1  0.4685060000000  0.5010270000000  0.5026270000000 1.0
C      1  0.5730030000000  0.4299490000000  0.4428780000000 1.0
C      1  0.4949880000000  0.5418660000000  0.5382550000000 1.0
C      1  0.4722950000000  0.4505430000000  0.5463150000000 1.0
C      1  0.5101360000000  0.5521430000000  0.4502120000000 1.0
C      1  0.4719080000000  0.4864080000000  0.5802210000000 1.0
C      1  0.5305180000000  0.5107600000000  0.4185920000000 1.0
END
