TITL C-2847955-7945-412 -8.41410879627948e-05 125000 -366.674113621522 0 0 67 (C1) n - 1
REM
REM in /home/bkarasulu/work/CARBON/AIRSS/Generating-Clusters/AIREBO/with-SteepDescent/Only-C1/SD-CG-opt/Try1-1.4A-POS3A/HFTN-CG
REM
REM
REM
REM
REM
REM ./C.cell (11c1c37f851c82e70ff6c80c92926a4b)
REM
REM compiler GCC version 9.2.1 20190827 (Red Hat 9.2.1-1)
REM options -cpp -mtune=generic -march=x86-64 -g -O0 -fpre-include=/usr/include/finclude/math-vector-fortran.h
REM seed -1282803330 -1569778750 1430255931 -1148465191 603515953 -1542549583 -467552081 -1947465201 -930638829 917026368 -1094317400 -1521391697 307497664 -1565454438 -1289594718 -969001495 -1370201426 982355854 993410478 695818413 297480465 -275838995 -117691669 254116092 1722575014 109592594 939190584 436972744 -367677553 -872108277 -2023476525 638747054 -1732725983
REM
CELL 1.54180   50.00000   50.00000   50.00000   90.00000   90.00000   90.00000
LATT -1
SFAC C  
C      1  0.4922570000000  0.4886920000000  0.5135640000000 1.0
C      1  0.5350340000000  0.4795200000000  0.4983040000000 1.0
C      1  0.4651110000000  0.5388790000000  0.5140140000000 1.0
C      1  0.4846800000000  0.4406370000000  0.5264120000000 1.0
C      1  0.5040160000000  0.4602910000000  0.5145520000000 1.0
C      1  0.4575590000000  0.5217100000000  0.5379920000000 1.0
C      1  0.4240930000000  0.4918850000000  0.4664480000000 1.0
C      1  0.5062990000000  0.5214370000000  0.5416920000000 1.0
C      1  0.4309090000000  0.4397100000000  0.4757760000000 1.0
C      1  0.5368180000000  0.5534910000000  0.5024830000000 1.0
C      1  0.4289580000000  0.5095970000000  0.5365700000000 1.0
C      1  0.5513870000000  0.5136370000000  0.5307160000000 1.0
C      1  0.4405920000000  0.5302710000000  0.4456980000000 1.0
C      1  0.4605910000000  0.5672250000000  0.4784660000000 1.0
C      1  0.4681410000000  0.5278260000000  0.5677950000000 1.0
C      1  0.5587690000000  0.4810360000000  0.5304490000000 1.0
C      1  0.5433730000000  0.5125620000000  0.4687490000000 1.0
C      1  0.4451770000000  0.4662020000000  0.5202930000000 1.0
C      1  0.5758040000000  0.4522900000000  0.4832790000000 1.0
C      1  0.5427530000000  0.5465110000000  0.5297250000000 1.0
C      1  0.4720000000000  0.4710430000000  0.4702350000000 1.0
C      1  0.4706800000000  0.5232600000000  0.4865660000000 1.0
C      1  0.4508620000000  0.5418230000000  0.4687990000000 1.0
C      1  0.5499980000000  0.5601410000000  0.4540580000000 1.0
C      1  0.4360560000000  0.4925150000000  0.4917390000000 1.0
C      1  0.4403100000000  0.5020280000000  0.4458050000000 1.0
C      1  0.4932630000000  0.4376090000000  0.4477860000000 1.0
C      1  0.5801850000000  0.5166070000000  0.4541170000000 1.0
C      1  0.4886170000000  0.5971240000000  0.4521260000000 1.0
C      1  0.5346000000000  0.4367290000000  0.5425350000000 1.0
C      1  0.5364500000000  0.4163160000000  0.5226050000000 1.0
C      1  0.4814210000000  0.4983150000000  0.5443220000000 1.0
C      1  0.5577310000000  0.5341100000000  0.4477780000000 1.0
C      1  0.5199490000000  0.5446220000000  0.5479190000000 1.0
C      1  0.4658960000000  0.4902740000000  0.4457450000000 1.0
C      1  0.5231110000000  0.4837670000000  0.4179020000000 1.0
C      1  0.5156650000000  0.4934960000000  0.4738560000000 1.0
C      1  0.4687410000000  0.4930670000000  0.4933010000000 1.0
C      1  0.5581360000000  0.5155500000000  0.5608030000000 1.0
C      1  0.5145980000000  0.4457900000000  0.4897050000000 1.0
C      1  0.4519870000000  0.4520320000000  0.4900960000000 1.0
C      1  0.5730160000000  0.5026190000000  0.4822490000000 1.0
C      1  0.5256370000000  0.4413020000000  0.5689850000000 1.0
C      1  0.5631880000000  0.4745190000000  0.4874480000000 1.0
C      1  0.4671670000000  0.4310640000000  0.5084480000000 1.0
C      1  0.4603510000000  0.5870350000000  0.5240580000000 1.0
C      1  0.4254090000000  0.4882370000000  0.5184170000000 1.0
C      1  0.4947770000000  0.4849800000000  0.5726120000000 1.0
C      1  0.5042360000000  0.5533970000000  0.4664930000000 1.0
C      1  0.4848080000000  0.5737410000000  0.4648560000000 1.0
C      1  0.4752840000000  0.4460560000000  0.5538790000000 1.0
C      1  0.4876650000000  0.5076940000000  0.4409460000000 1.0
C      1  0.5302110000000  0.5617850000000  0.4742210000000 1.0
C      1  0.5769910000000  0.5179320000000  0.5089220000000 1.0
C      1  0.5259980000000  0.4657950000000  0.4382620000000 1.0
C      1  0.5141480000000  0.5626760000000  0.5668350000000 1.0
C      1  0.5329910000000  0.4626090000000  0.5277370000000 1.0
C      1  0.4970500000000  0.5213810000000  0.4678460000000 1.0
C      1  0.5218130000000  0.5053220000000  0.5160850000000 1.0
C      1  0.5044720000000  0.4627850000000  0.4644110000000 1.0
C      1  0.4612540000000  0.5660340000000  0.5075020000000 1.0
C      1  0.5271770000000  0.4224690000000  0.4966540000000 1.0
C      1  0.5052280000000  0.5045720000000  0.4195360000000 1.0
C      1  0.5068470000000  0.4605260000000  0.5753960000000 1.0
C      1  0.4813380000000  0.5092800000000  0.5827880000000 1.0
C      1  0.5277890000000  0.5264550000000  0.4926580000000 1.0
C      1  0.4625790000000  0.4701030000000  0.5419800000000 1.0
END
