TITL C-2847953-8112-234 0.00137177900969117 125000 -329.597473773739 0 0 61 (C1) n - 1
REM
REM in /home/bkarasulu/work/CARBON/AIRSS/Generating-Clusters/AIREBO/with-SteepDescent/Only-C1/SD-CG-opt/Try1-1.4A-POS3A/HFTN-CG
REM
REM
REM
REM
REM
REM ./C.cell (11c1c37f851c82e70ff6c80c92926a4b)
REM
REM compiler GCC version 9.2.1 20190827 (Red Hat 9.2.1-1)
REM options -cpp -mtune=generic -march=x86-64 -g -O0 -fpre-include=/usr/include/finclude/math-vector-fortran.h
REM seed -216857359 952780282 -259119458 -400996675 1576015517 -171768014 -1041291398 820601771 1799152686 -1954158915 -652837687 495171812 -1052760732 -341898340 -23742483 -725450236 -2123446223 660656291 -1289550509 1954017136 127780746 -735404744 -2015665636 -2091534927 1909557596 1157948240 -1772392461 -1352267264 -1038766171 -1178977433 414043254 291051506 -615629877
REM
CELL 1.54180   50.00000   50.00000   50.00000   90.00000   90.00000   90.00000
LATT -1
SFAC C  
C      1  0.5241830000000  0.5289800000000  0.4309850000000 1.0
C      1  0.4396330000000  0.5299230000000  0.4882150000000 1.0
C      1  0.5101520000000  0.4404570000000  0.5154730000000 1.0
C      1  0.5902390000000  0.5313520000000  0.5210000000000 1.0
C      1  0.5562430000000  0.4726380000000  0.4825680000000 1.0
C      1  0.4847030000000  0.5600090000000  0.4370740000000 1.0
C      1  0.5399950000000  0.4495440000000  0.4275130000000 1.0
C      1  0.5233960000000  0.4867840000000  0.5641930000000 1.0
C      1  0.5479770000000  0.5450830000000  0.5798110000000 1.0
C      1  0.4809680000000  0.4518610000000  0.5076600000000 1.0
C      1  0.5102140000000  0.5564530000000  0.5212990000000 1.0
C      1  0.4981300000000  0.4890660000000  0.5759560000000 1.0
C      1  0.4355540000000  0.4862910000000  0.5313540000000 1.0
C      1  0.5638160000000  0.5505340000000  0.4875610000000 1.0
C      1  0.4495830000000  0.5299300000000  0.4619690000000 1.0
C      1  0.5022470000000  0.4815960000000  0.4894670000000 1.0
C      1  0.4792920000000  0.4835030000000  0.5139260000000 1.0
C      1  0.5069190000000  0.5041990000000  0.4252660000000 1.0
C      1  0.5043760000000  0.5297300000000  0.5411560000000 1.0
C      1  0.4698130000000  0.4434610000000  0.4497120000000 1.0
C      1  0.5395250000000  0.4838420000000  0.5170950000000 1.0
C      1  0.4784540000000  0.5266330000000  0.5193700000000 1.0
C      1  0.4500740000000  0.5071200000000  0.4445020000000 1.0
C      1  0.5458640000000  0.5262140000000  0.4490090000000 1.0
C      1  0.5256570000000  0.4424980000000  0.5420430000000 1.0
C      1  0.4731650000000  0.5458370000000  0.4586180000000 1.0
C      1  0.4165110000000  0.5131810000000  0.5397430000000 1.0
C      1  0.5095300000000  0.5530620000000  0.4265610000000 1.0
C      1  0.4877500000000  0.5101240000000  0.4945190000000 1.0
C      1  0.5405310000000  0.5577560000000  0.5057700000000 1.0
C      1  0.4764700000000  0.4999250000000  0.4377530000000 1.0
C      1  0.5090640000000  0.4087030000000  0.5058410000000 1.0
C      1  0.5243570000000  0.5034400000000  0.5382840000000 1.0
C      1  0.5371230000000  0.4667640000000  0.5458390000000 1.0
C      1  0.4920660000000  0.4513500000000  0.4356400000000 1.0
C      1  0.4952860000000  0.5339700000000  0.4760450000000 1.0
C      1  0.4556580000000  0.5490540000000  0.5075480000000 1.0
C      1  0.4810540000000  0.5129510000000  0.5593620000000 1.0
C      1  0.5207800000000  0.4398870000000  0.4710600000000 1.0
C      1  0.5011690000000  0.5579210000000  0.5691930000000 1.0
C      1  0.4460380000000  0.5245730000000  0.5273170000000 1.0
C      1  0.4810500000000  0.5428160000000  0.5708980000000 1.0
C      1  0.4247480000000  0.5076740000000  0.5068910000000 1.0
C      1  0.4460750000000  0.4189700000000  0.4924130000000 1.0
C      1  0.4726990000000  0.4332930000000  0.4787040000000 1.0
C      1  0.5002790000000  0.5098320000000  0.4566570000000 1.0
C      1  0.4334950000000  0.4563120000000  0.5253070000000 1.0
C      1  0.5576300000000  0.5029880000000  0.4956070000000 1.0
C      1  0.4646170000000  0.4908950000000  0.5389130000000 1.0
C      1  0.5291860000000  0.5445400000000  0.5591180000000 1.0
C      1  0.5438200000000  0.5375460000000  0.5311530000000 1.0
C      1  0.5261300000000  0.4620860000000  0.4946490000000 1.0
C      1  0.5644790000000  0.5185270000000  0.5233360000000 1.0
C      1  0.5015650000000  0.4218610000000  0.4811200000000 1.0
C      1  0.5119830000000  0.5532420000000  0.4895550000000 1.0
C      1  0.4741690000000  0.4746090000000  0.5662630000000 1.0
C      1  0.4280440000000  0.4941000000000  0.4363410000000 1.0
C      1  0.5578400000000  0.5257420000000  0.4743430000000 1.0
C      1  0.5892670000000  0.5509060000000  0.5007760000000 1.0
C      1  0.5188090000000  0.4465910000000  0.4438060000000 1.0
C      1  0.4505580000000  0.4412720000000  0.5108790000000 1.0
END
