TITL C-2848495-5024-416 -0.00107475902746683 125000 -462.810441929744 0 0 92 (C1) n - 1
REM
REM in /home/bkarasulu/work/CARBON/AIRSS/Generating-Clusters/AIREBO/with-SteepDescent/Only-C1/SD-CG-opt/Try1-1.4A-POS3A/HFTN-CG
REM
REM
REM
REM
REM
REM ./C.cell (11c1c37f851c82e70ff6c80c92926a4b)
REM
REM compiler GCC version 9.2.1 20190827 (Red Hat 9.2.1-1)
REM options -cpp -mtune=generic -march=x86-64 -g -O0 -fpre-include=/usr/include/finclude/math-vector-fortran.h
REM seed 977130470 948096849 1994345577 1523363886 -757024883 1391479405 -191615618 1160002500 -483239648 -408566147 1198558656 -656110188 197362944 969886858 -2012493391 99331401 612634940 219755076 -1639425643 1167494672 1409502269 621636177 -183842022 993502466 1432630970 1476064069 -1486499618 -1685914801 1735799897 1147592422 1155974352 -1075329667 2045943050
REM
CELL 1.54180   50.00000   50.00000   50.00000   90.00000   90.00000   90.00000
LATT -1
SFAC C  
C      1  0.4366180000000  0.4977710000000  0.5233470000000 1.0
C      1  0.5096270000000  0.5786990000000  0.4995670000000 1.0
C      1  0.4615090000000  0.5324030000000  0.5467520000000 1.0
C      1  0.4816120000000  0.5036990000000  0.4509920000000 1.0
C      1  0.4740990000000  0.5725240000000  0.5161510000000 1.0
C      1  0.5283130000000  0.4736080000000  0.5425370000000 1.0
C      1  0.5748730000000  0.5151180000000  0.5258360000000 1.0
C      1  0.4590100000000  0.5431030000000  0.5154190000000 1.0
C      1  0.4685290000000  0.4940760000000  0.5227870000000 1.0
C      1  0.4642290000000  0.5087140000000  0.5786810000000 1.0
C      1  0.4535480000000  0.4807600000000  0.5699810000000 1.0
C      1  0.5546580000000  0.4804900000000  0.5070120000000 1.0
C      1  0.5133200000000  0.5028730000000  0.5159000000000 1.0
C      1  0.4796420000000  0.5038920000000  0.5505460000000 1.0
C      1  0.5835080000000  0.4835370000000  0.5006090000000 1.0
C      1  0.5442420000000  0.5010070000000  0.5302010000000 1.0
C      1  0.5078900000000  0.4721810000000  0.5766640000000 1.0
C      1  0.4818230000000  0.5492340000000  0.5645480000000 1.0
C      1  0.4269740000000  0.4844470000000  0.5533060000000 1.0
C      1  0.5108660000000  0.4930090000000  0.4840480000000 1.0
C      1  0.4889670000000  0.5285710000000  0.4087830000000 1.0
C      1  0.4270740000000  0.5466650000000  0.5265630000000 1.0
C      1  0.4216750000000  0.5563400000000  0.4761020000000 1.0
C      1  0.4252540000000  0.5222030000000  0.5109170000000 1.0
C      1  0.4424670000000  0.4599500000000  0.5119960000000 1.0
C      1  0.5081890000000  0.4424200000000  0.5610730000000 1.0
C      1  0.5275520000000  0.5266490000000  0.5556470000000 1.0
C      1  0.5478310000000  0.4634590000000  0.4700140000000 1.0
C      1  0.5655020000000  0.5573310000000  0.5421270000000 1.0
C      1  0.4744160000000  0.4422400000000  0.4795750000000 1.0
C      1  0.5025690000000  0.4482860000000  0.4637570000000 1.0
C      1  0.5524310000000  0.5474270000000  0.4598010000000 1.0
C      1  0.4796410000000  0.5806190000000  0.4835960000000 1.0
C      1  0.5862200000000  0.5049170000000  0.4823540000000 1.0
C      1  0.4283220000000  0.5275670000000  0.4838170000000 1.0
C      1  0.5032410000000  0.5455190000000  0.4957750000000 1.0
C      1  0.4708820000000  0.5422220000000  0.4608640000000 1.0
C      1  0.5475400000000  0.5004900000000  0.5644670000000 1.0
C      1  0.4540700000000  0.5110100000000  0.4333780000000 1.0
C      1  0.4534730000000  0.5368320000000  0.4252560000000 1.0
C      1  0.5382700000000  0.4542410000000  0.5003790000000 1.0
C      1  0.4283070000000  0.4624370000000  0.4811750000000 1.0
C      1  0.5604390000000  0.5179470000000  0.4444830000000 1.0
C      1  0.4817750000000  0.4629580000000  0.5186170000000 1.0
C      1  0.5652890000000  0.5446940000000  0.5118330000000 1.0
C      1  0.4852640000000  0.5217040000000  0.5120960000000 1.0
C      1  0.5328780000000  0.4840230000000  0.5870560000000 1.0
C      1  0.4967930000000  0.4197240000000  0.5401970000000 1.0
C      1  0.4609420000000  0.4728760000000  0.4865270000000 1.0
C      1  0.5272240000000  0.4794070000000  0.4606130000000 1.0
C      1  0.5295970000000  0.5209220000000  0.4789200000000 1.0
C      1  0.5007660000000  0.5710400000000  0.4613720000000 1.0
C      1  0.5467640000000  0.5509650000000  0.5577060000000 1.0
C      1  0.5629590000000  0.5259940000000  0.4835260000000 1.0
C      1  0.4544870000000  0.5577590000000  0.4845970000000 1.0
C      1  0.5224140000000  0.4344870000000  0.4211560000000 1.0
C      1  0.4755820000000  0.4300920000000  0.5252840000000 1.0
C      1  0.5002040000000  0.5361600000000  0.5390600000000 1.0
C      1  0.4714370000000  0.5331970000000  0.5878230000000 1.0
C      1  0.5046500000000  0.5193530000000  0.4346870000000 1.0
C      1  0.4486780000000  0.4224990000000  0.4793290000000 1.0
C      1  0.4381660000000  0.4357210000000  0.5517890000000 1.0
C      1  0.5712220000000  0.4699540000000  0.4554680000000 1.0
C      1  0.5594850000000  0.5717860000000  0.4939200000000 1.0
C      1  0.5320730000000  0.5604160000000  0.4837550000000 1.0
C      1  0.5060080000000  0.4612040000000  0.4950450000000 1.0
C      1  0.5008360000000  0.5675950000000  0.5304780000000 1.0
C      1  0.5264420000000  0.4348710000000  0.5332930000000 1.0
C      1  0.5173160000000  0.4173830000000  0.5062360000000 1.0
C      1  0.5354430000000  0.5284090000000  0.5120870000000 1.0
C      1  0.5225700000000  0.4840910000000  0.4320960000000 1.0
C      1  0.4521040000000  0.5196880000000  0.4727420000000 1.0
C      1  0.5345560000000  0.5456620000000  0.4335010000000 1.0
C      1  0.5550850000000  0.4472340000000  0.5291190000000 1.0
C      1  0.5081420000000  0.4546430000000  0.4347690000000 1.0
C      1  0.4791750000000  0.4600570000000  0.4235590000000 1.0
C      1  0.4514880000000  0.4276520000000  0.5088460000000 1.0
C      1  0.4675580000000  0.4832030000000  0.4285790000000 1.0
C      1  0.4146370000000  0.4719670000000  0.5260200000000 1.0
C      1  0.5124970000000  0.5635400000000  0.4328690000000 1.0
C      1  0.5044710000000  0.5372580000000  0.4628140000000 1.0
C      1  0.5026710000000  0.4229400000000  0.4842750000000 1.0
C      1  0.4262990000000  0.4375020000000  0.4687450000000 1.0
C      1  0.5854170000000  0.4577540000000  0.5179020000000 1.0
C      1  0.4781420000000  0.5022220000000  0.4847900000000 1.0
C      1  0.4793610000000  0.4582260000000  0.5684070000000 1.0
C      1  0.4820840000000  0.5521970000000  0.4317370000000 1.0
C      1  0.4575700000000  0.4611680000000  0.5424530000000 1.0
C      1  0.5351690000000  0.5126550000000  0.4253090000000 1.0
C      1  0.5087560000000  0.4983040000000  0.5553330000000 1.0
C      1  0.5610650000000  0.4720870000000  0.5515400000000 1.0
C      1  0.5772660000000  0.4982700000000  0.4553400000000 1.0
END
