TITL C-2847957-7266-263 0.00166537568305237 125000 -492.296447371801 0 0 87 (C1) n - 1
REM
REM in /home/bkarasulu/work/CARBON/AIRSS/Generating-Clusters/AIREBO/with-SteepDescent/Only-C1/SD-CG-opt/Try1-1.4A-POS3A/HFTN-CG
REM
REM
REM
REM
REM
REM ./C.cell (11c1c37f851c82e70ff6c80c92926a4b)
REM
REM compiler GCC version 9.2.1 20190827 (Red Hat 9.2.1-1)
REM options -cpp -mtune=generic -march=x86-64 -g -O0 -fpre-include=/usr/include/finclude/math-vector-fortran.h
REM seed -505200569 1531626066 -1399149999 -1935841774 -1522502410 2016070417 551843666 1449900847 -768170063 -1328682623 376399524 -362946486 -585389511 1442721891 1684130112 1816588586 1663202377 1754469676 -69012269 -668625783 1137341472 -944229793 444367558 -1516819566 250531847 -631942709 -1311594597 532933349 -1256647250 649870725 1170800219 861751168 -450160769
REM
CELL 1.54180   50.00000   50.00000   50.00000   90.00000   90.00000   90.00000
LATT -1
SFAC C  
C      1  0.5062820000000  0.5326090000000  0.4983390000000 1.0
C      1  0.5704010000000  0.4760620000000  0.5209920000000 1.0
C      1  0.4228160000000  0.4783300000000  0.4854840000000 1.0
C      1  0.5028080000000  0.4392480000000  0.4567700000000 1.0
C      1  0.5108940000000  0.5847970000000  0.4994230000000 1.0
C      1  0.5360150000000  0.4648520000000  0.4323730000000 1.0
C      1  0.4925570000000  0.4727500000000  0.5133760000000 1.0
C      1  0.4234760000000  0.5282240000000  0.4836750000000 1.0
C      1  0.5681200000000  0.5273620000000  0.4715900000000 1.0
C      1  0.5613020000000  0.4943570000000  0.5483300000000 1.0
C      1  0.5785170000000  0.4678340000000  0.4628940000000 1.0
C      1  0.5363420000000  0.4967490000000  0.4258440000000 1.0
C      1  0.4990890000000  0.4549590000000  0.4851310000000 1.0
C      1  0.5114580000000  0.4283920000000  0.5432290000000 1.0
C      1  0.5240990000000  0.4993020000000  0.4770760000000 1.0
C      1  0.4844720000000  0.4135640000000  0.5495760000000 1.0
C      1  0.4942780000000  0.5151280000000  0.5401570000000 1.0
C      1  0.4967540000000  0.5573170000000  0.4856220000000 1.0
C      1  0.4458710000000  0.5049420000000  0.5070530000000 1.0
C      1  0.5446920000000  0.4859860000000  0.5746190000000 1.0
C      1  0.4703170000000  0.4373490000000  0.4802020000000 1.0
C      1  0.4181930000000  0.5038330000000  0.4398370000000 1.0
C      1  0.5458370000000  0.5308190000000  0.5810050000000 1.0
C      1  0.4962040000000  0.5523380000000  0.5732200000000 1.0
C      1  0.5705900000000  0.5215510000000  0.5652370000000 1.0
C      1  0.4713490000000  0.4764770000000  0.5397260000000 1.0
C      1  0.4431250000000  0.5171930000000  0.4272890000000 1.0
C      1  0.5110170000000  0.4925940000000  0.4463960000000 1.0
C      1  0.4491790000000  0.4366350000000  0.5068300000000 1.0
C      1  0.4591520000000  0.4407060000000  0.4523280000000 1.0
C      1  0.4715220000000  0.5623260000000  0.4524100000000 1.0
C      1  0.5470300000000  0.5148540000000  0.4968330000000 1.0
C      1  0.5119050000000  0.5605410000000  0.5508560000000 1.0
C      1  0.4351710000000  0.4806520000000  0.5233410000000 1.0
C      1  0.4948330000000  0.5675280000000  0.5241570000000 1.0
C      1  0.5294830000000  0.5698250000000  0.5232710000000 1.0
C      1  0.5231550000000  0.4698330000000  0.5609660000000 1.0
C      1  0.4765160000000  0.4617740000000  0.5636830000000 1.0
C      1  0.4739340000000  0.5170710000000  0.5158640000000 1.0
C      1  0.4558190000000  0.5215310000000  0.5528270000000 1.0
C      1  0.5757630000000  0.4880820000000  0.4894300000000 1.0
C      1  0.5355990000000  0.4693900000000  0.4780220000000 1.0
C      1  0.5091350000000  0.5343740000000  0.4365150000000 1.0
C      1  0.4862130000000  0.5127550000000  0.4422010000000 1.0
C      1  0.4496500000000  0.4954080000000  0.5456230000000 1.0
C      1  0.5424500000000  0.5495190000000  0.4741900000000 1.0
C      1  0.4651860000000  0.4357770000000  0.5621100000000 1.0
C      1  0.4713650000000  0.5511110000000  0.5157180000000 1.0
C      1  0.4561000000000  0.5389520000000  0.4397840000000 1.0
C      1  0.5437720000000  0.5471190000000  0.5070630000000 1.0
C      1  0.5405720000000  0.5435670000000  0.5512970000000 1.0
C      1  0.4645900000000  0.5608000000000  0.4856390000000 1.0
C      1  0.4118620000000  0.5045990000000  0.4708120000000 1.0
C      1  0.4580890000000  0.4254510000000  0.5316150000000 1.0
C      1  0.5842720000000  0.5001400000000  0.4591760000000 1.0
C      1  0.4295340000000  0.4574150000000  0.5065070000000 1.0
C      1  0.4862090000000  0.4220570000000  0.5034870000000 1.0
C      1  0.4406030000000  0.4838120000000  0.4491690000000 1.0
C      1  0.5228560000000  0.5284220000000  0.5265410000000 1.0
C      1  0.4996590000000  0.5619920000000  0.4461560000000 1.0
C      1  0.5316190000000  0.5252690000000  0.4564390000000 1.0
C      1  0.4949200000000  0.5009620000000  0.4944880000000 1.0
C      1  0.5334770000000  0.4453650000000  0.5472610000000 1.0
C      1  0.5388100000000  0.4997340000000  0.5261600000000 1.0
C      1  0.4975070000000  0.4740680000000  0.5778980000000 1.0
C      1  0.4583410000000  0.4646360000000  0.4394800000000 1.0
C      1  0.5290840000000  0.4532190000000  0.5010740000000 1.0
C      1  0.4746930000000  0.5131090000000  0.4700050000000 1.0
C      1  0.5459910000000  0.4538690000000  0.5229320000000 1.0
C      1  0.5095040000000  0.4544180000000  0.4346500000000 1.0
C      1  0.5515340000000  0.4611330000000  0.4561320000000 1.0
C      1  0.4502710000000  0.4957520000000  0.4761580000000 1.0
C      1  0.4258360000000  0.5304140000000  0.5138050000000 1.0
C      1  0.5301190000000  0.5077960000000  0.5874230000000 1.0
C      1  0.5012840000000  0.5022270000000  0.5860920000000 1.0
C      1  0.4468460000000  0.5404850000000  0.5333660000000 1.0
C      1  0.4850530000000  0.5232520000000  0.5691510000000 1.0
C      1  0.4955770000000  0.4399450000000  0.5218410000000 1.0
C      1  0.5211290000000  0.5731800000000  0.4690540000000 1.0
C      1  0.5756770000000  0.5089760000000  0.5142120000000 1.0
C      1  0.5228010000000  0.5217660000000  0.4089330000000 1.0
C      1  0.5594510000000  0.5127800000000  0.4414650000000 1.0
C      1  0.5679270000000  0.5313380000000  0.5347670000000 1.0
C      1  0.4503640000000  0.5355580000000  0.4724980000000 1.0
C      1  0.4868940000000  0.4751850000000  0.4295900000000 1.0
C      1  0.4648330000000  0.4987710000000  0.4197560000000 1.0
C      1  0.5124040000000  0.4878560000000  0.5364830000000 1.0
END
