TITL C-2847948-6138-207 -0.00147842972155916 125000 -293.588280878579 0 0 54 (C1) n - 1
REM
REM in /home/bkarasulu/work/CARBON/AIRSS/Generating-Clusters/AIREBO/with-SteepDescent/Only-C1/SD-CG-opt/Try1-1.4A-POS3A/HFTN-CG
REM
REM
REM
REM
REM
REM ./C.cell (11c1c37f851c82e70ff6c80c92926a4b)
REM
REM compiler GCC version 9.2.1 20190827 (Red Hat 9.2.1-1)
REM options -cpp -mtune=generic -march=x86-64 -g -O0 -fpre-include=/usr/include/finclude/math-vector-fortran.h
REM seed 1890564347 -256935779 1201283056 -342828918 -1464531998 1516991408 -1286270023 -2116753481 1177319139 -784544423 -701850283 1976085793 261228860 -1934211718 -2147448888 556304427 1604150482 -1626558600 2059689741 -2010871815 -1116247256 -870885158 717514125 -734773887 249075125 1097622976 1047730724 -1252374601 1880998176 -1659763728 1973262851 1790054676 449815210
REM
CELL 1.54180   50.00000   50.00000   50.00000   90.00000   90.00000   90.00000
LATT -1
SFAC C  
C      1  0.4558200000000  0.5591120000000  0.4663480000000 1.0
C      1  0.5652170000000  0.4847680000000  0.5106960000000 1.0
C      1  0.4611420000000  0.4818620000000  0.4759260000000 1.0
C      1  0.5128900000000  0.4591750000000  0.4416250000000 1.0
C      1  0.4974190000000  0.5120780000000  0.5179770000000 1.0
C      1  0.4589320000000  0.4373480000000  0.5008230000000 1.0
C      1  0.5018110000000  0.4735810000000  0.5499210000000 1.0
C      1  0.5372400000000  0.4863010000000  0.4934610000000 1.0
C      1  0.4957640000000  0.5117530000000  0.5839290000000 1.0
C      1  0.5407780000000  0.4590710000000  0.4347640000000 1.0
C      1  0.4844340000000  0.5357110000000  0.5542800000000 1.0
C      1  0.4857270000000  0.4260890000000  0.5282760000000 1.0
C      1  0.5348370000000  0.4600920000000  0.4795340000000 1.0
C      1  0.5508010000000  0.4890350000000  0.4380100000000 1.0
C      1  0.4392950000000  0.4950920000000  0.5482530000000 1.0
C      1  0.4943840000000  0.5033950000000  0.5507180000000 1.0
C      1  0.4734290000000  0.4557360000000  0.4599740000000 1.0
C      1  0.4584510000000  0.5352290000000  0.4902520000000 1.0
C      1  0.5671370000000  0.5281380000000  0.4881630000000 1.0
C      1  0.4979940000000  0.4122510000000  0.5083300000000 1.0
C      1  0.5738910000000  0.5004620000000  0.4862440000000 1.0
C      1  0.4753310000000  0.4849530000000  0.4460570000000 1.0
C      1  0.5304580000000  0.4719550000000  0.5406790000000 1.0
C      1  0.4792350000000  0.4868140000000  0.5042840000000 1.0
C      1  0.5130260000000  0.5330660000000  0.5698960000000 1.0
C      1  0.4652190000000  0.5590490000000  0.5134680000000 1.0
C      1  0.4576390000000  0.5413230000000  0.5399190000000 1.0
C      1  0.4370810000000  0.4907390000000  0.4945750000000 1.0
C      1  0.5019230000000  0.5168400000000  0.4678700000000 1.0
C      1  0.4517920000000  0.4720210000000  0.5409610000000 1.0
C      1  0.5574260000000  0.4575840000000  0.4612640000000 1.0
C      1  0.4409950000000  0.5194820000000  0.5333030000000 1.0
C      1  0.4943300000000  0.5545030000000  0.5303180000000 1.0
C      1  0.5021980000000  0.4855410000000  0.4383940000000 1.0
C      1  0.5723610000000  0.4863100000000  0.4612850000000 1.0
C      1  0.5213480000000  0.5360690000000  0.5208380000000 1.0
C      1  0.5029100000000  0.5793580000000  0.4897470000000 1.0
C      1  0.4810540000000  0.4578480000000  0.5341880000000 1.0
C      1  0.4860760000000  0.5224940000000  0.4876590000000 1.0
C      1  0.5046280000000  0.4163660000000  0.4819640000000 1.0
C      1  0.5364120000000  0.5392740000000  0.4940680000000 1.0
C      1  0.4867860000000  0.4550660000000  0.5007720000000 1.0
C      1  0.5329110000000  0.5363640000000  0.5512890000000 1.0
C      1  0.4760220000000  0.5705960000000  0.4852200000000 1.0
C      1  0.5200300000000  0.4876760000000  0.5174550000000 1.0
C      1  0.5327090000000  0.5111510000000  0.4772990000000 1.0
C      1  0.4496640000000  0.4660200000000  0.5107100000000 1.0
C      1  0.4390770000000  0.5165920000000  0.5050070000000 1.0
C      1  0.5590180000000  0.4718870000000  0.5354990000000 1.0
C      1  0.5040500000000  0.4477040000000  0.4724030000000 1.0
C      1  0.5256650000000  0.5073490000000  0.4452130000000 1.0
C      1  0.5043140000000  0.5833450000000  0.5187480000000 1.0
C      1  0.4447920000000  0.5627460000000  0.4422460000000 1.0
C      1  0.5261250000000  0.5656360000000  0.4798960000000 1.0
END
