TITL C-2848494-1720-704 0.00389277273131482 125000 -536.572194823205 0 0 96 (C1) n - 1
REM
REM in /home/bkarasulu/work/CARBON/AIRSS/Generating-Clusters/AIREBO/with-SteepDescent/Only-C1/SD-CG-opt/Try1-1.4A-POS3A/HFTN-CG
REM
REM
REM
REM
REM
REM ./C.cell (11c1c37f851c82e70ff6c80c92926a4b)
REM
REM compiler GCC version 9.2.1 20190827 (Red Hat 9.2.1-1)
REM options -cpp -mtune=generic -march=x86-64 -g -O0 -fpre-include=/usr/include/finclude/math-vector-fortran.h
REM seed 1619288518 1175388845 -140878264 -901114394 1095169437 -1043941091 -602611735 -858281654 -605572943 50309666 1502277584 1372554542 -1547036359 -656082401 1203423166 553975124 787407925 2077550645 530361327 2079131092 1652875463 -52696567 -1369373035 50826579 1722990691 612782878 731076335 879060711 -597804323 1723424652 822892397 -515801670 1601204737
REM
CELL 1.54180   50.00000   50.00000   50.00000   90.00000   90.00000   90.00000
LATT -1
SFAC C  
C      1  0.4978410000000  0.5466610000000  0.5203520000000 1.0
C      1  0.5282390000000  0.5601930000000  0.5682180000000 1.0
C      1  0.4762320000000  0.4643290000000  0.5352580000000 1.0
C      1  0.5557190000000  0.5635040000000  0.5662600000000 1.0
C      1  0.4617320000000  0.5312320000000  0.5560500000000 1.0
C      1  0.5418430000000  0.4458100000000  0.4346770000000 1.0
C      1  0.5755460000000  0.4959930000000  0.4893690000000 1.0
C      1  0.4902170000000  0.5458420000000  0.5638470000000 1.0
C      1  0.5004530000000  0.4496080000000  0.4664220000000 1.0
C      1  0.5320420000000  0.5249580000000  0.4560830000000 1.0
C      1  0.5456640000000  0.4683090000000  0.4176870000000 1.0
C      1  0.5369220000000  0.4390890000000  0.5558540000000 1.0
C      1  0.4621890000000  0.5193660000000  0.4914330000000 1.0
C      1  0.5372240000000  0.5092370000000  0.5217000000000 1.0
C      1  0.4500670000000  0.4301310000000  0.4952110000000 1.0
C      1  0.4835940000000  0.5144970000000  0.4311400000000 1.0
C      1  0.5219010000000  0.4795380000000  0.5281040000000 1.0
C      1  0.4647560000000  0.5597080000000  0.4780350000000 1.0
C      1  0.4548830000000  0.4729770000000  0.5159030000000 1.0
C      1  0.5283110000000  0.4899470000000  0.4199120000000 1.0
C      1  0.5342050000000  0.5391200000000  0.5056960000000 1.0
C      1  0.4926400000000  0.5447400000000  0.4867970000000 1.0
C      1  0.5114500000000  0.4736190000000  0.5599380000000 1.0
C      1  0.5775750000000  0.5256940000000  0.4995310000000 1.0
C      1  0.4428880000000  0.5121900000000  0.5754290000000 1.0
C      1  0.5044540000000  0.4503780000000  0.5223410000000 1.0
C      1  0.5467820000000  0.4632590000000  0.5446280000000 1.0
C      1  0.5003250000000  0.4692470000000  0.4394530000000 1.0
C      1  0.4918420000000  0.5182700000000  0.5926910000000 1.0
C      1  0.4937350000000  0.4890310000000  0.4665910000000 1.0
C      1  0.5185250000000  0.5318890000000  0.5766110000000 1.0
C      1  0.4644140000000  0.5442610000000  0.5147540000000 1.0
C      1  0.5073880000000  0.5804150000000  0.4764120000000 1.0
C      1  0.4832090000000  0.5737350000000  0.5457020000000 1.0
C      1  0.5118950000000  0.5640630000000  0.4306130000000 1.0
C      1  0.5079080000000  0.4852450000000  0.4972830000000 1.0
C      1  0.5389730000000  0.4607310000000  0.5054930000000 1.0
C      1  0.5552290000000  0.4484020000000  0.4595520000000 1.0
C      1  0.5359780000000  0.5536770000000  0.4392100000000 1.0
C      1  0.4332010000000  0.5408390000000  0.5226170000000 1.0
C      1  0.4508790000000  0.5259340000000  0.4624340000000 1.0
C      1  0.5237980000000  0.5506380000000  0.4770080000000 1.0
C      1  0.5640890000000  0.5066330000000  0.5509910000000 1.0
C      1  0.4840750000000  0.4373580000000  0.5540040000000 1.0
C      1  0.5002650000000  0.4845700000000  0.4106710000000 1.0
C      1  0.4123680000000  0.4999870000000  0.4796730000000 1.0
C      1  0.4889380000000  0.5157420000000  0.5482520000000 1.0
C      1  0.4216290000000  0.5250140000000  0.4721130000000 1.0
C      1  0.4802360000000  0.4332600000000  0.5106790000000 1.0
C      1  0.5562320000000  0.5103660000000  0.4652910000000 1.0
C      1  0.4339280000000  0.5492810000000  0.4896750000000 1.0
C      1  0.4747440000000  0.4450130000000  0.4792920000000 1.0
C      1  0.5119280000000  0.5069160000000  0.4439420000000 1.0
C      1  0.4837450000000  0.4413480000000  0.4311180000000 1.0
C      1  0.4726150000000  0.5772620000000  0.5164020000000 1.0
C      1  0.4303820000000  0.4916650000000  0.5272690000000 1.0
C      1  0.4095080000000  0.4634740000000  0.4952360000000 1.0
C      1  0.5092570000000  0.4426470000000  0.5651170000000 1.0
C      1  0.5249140000000  0.4668940000000  0.4775800000000 1.0
C      1  0.4880240000000  0.5517330000000  0.4176430000000 1.0
C      1  0.5422790000000  0.5102420000000  0.5701930000000 1.0
C      1  0.5698300000000  0.4479100000000  0.4999990000000 1.0
C      1  0.4305690000000  0.4495360000000  0.5115240000000 1.0
C      1  0.5293150000000  0.4291250000000  0.5130410000000 1.0
C      1  0.4609680000000  0.4634670000000  0.4373640000000 1.0
C      1  0.5544230000000  0.4779830000000  0.4700880000000 1.0
C      1  0.4350490000000  0.5166400000000  0.5424700000000 1.0
C      1  0.4698920000000  0.5397120000000  0.4437790000000 1.0
C      1  0.5319760000000  0.4861570000000  0.5787470000000 1.0
C      1  0.4934460000000  0.5142730000000  0.4973210000000 1.0
C      1  0.4363290000000  0.4257650000000  0.5324420000000 1.0
C      1  0.4632830000000  0.4876820000000  0.4251050000000 1.0
C      1  0.5756980000000  0.5456660000000  0.4810420000000 1.0
C      1  0.5469330000000  0.4278060000000  0.4846020000000 1.0
C      1  0.4213450000000  0.4712810000000  0.4685020000000 1.0
C      1  0.4078520000000  0.4904100000000  0.5098020000000 1.0
C      1  0.4606170000000  0.4171050000000  0.5315000000000 1.0
C      1  0.5074500000000  0.5166870000000  0.5251820000000 1.0
C      1  0.5227510000000  0.4257420000000  0.4635100000000 1.0
C      1  0.4777110000000  0.5020810000000  0.4000350000000 1.0
C      1  0.4511160000000  0.4657460000000  0.4663310000000 1.0
C      1  0.5138190000000  0.4314440000000  0.4336040000000 1.0
C      1  0.5687340000000  0.4804010000000  0.5389480000000 1.0
C      1  0.5652740000000  0.5275510000000  0.5278090000000 1.0
C      1  0.5552300000000  0.5572860000000  0.4658720000000 1.0
C      1  0.5785630000000  0.4750990000000  0.5121880000000 1.0
C      1  0.5395750000000  0.5602820000000  0.5235310000000 1.0
C      1  0.5413820000000  0.4157490000000  0.5388590000000 1.0
C      1  0.5637050000000  0.5565840000000  0.5397730000000 1.0
C      1  0.4834900000000  0.4864620000000  0.5572930000000 1.0
C      1  0.4719270000000  0.5024720000000  0.5818260000000 1.0
C      1  0.4671680000000  0.4859170000000  0.4878520000000 1.0
C      1  0.4455870000000  0.5789700000000  0.4984740000000 1.0
C      1  0.4873230000000  0.5670470000000  0.4541360000000 1.0
C      1  0.5146860000000  0.5676180000000  0.5411690000000 1.0
C      1  0.4951590000000  0.5906310000000  0.4988370000000 1.0
END
