TITL C-2847953-8112-269 -0.000658563297951224 125000 -323.380636231574 0 0 58 (C1) n - 1
REM
REM in /home/bkarasulu/work/CARBON/AIRSS/Generating-Clusters/AIREBO/with-SteepDescent/Only-C1/SD-CG-opt/Try1-1.4A-POS3A/HFTN-CG
REM
REM
REM
REM
REM
REM ./C.cell (11c1c37f851c82e70ff6c80c92926a4b)
REM
REM compiler GCC version 9.2.1 20190827 (Red Hat 9.2.1-1)
REM options -cpp -mtune=generic -march=x86-64 -g -O0 -fpre-include=/usr/include/finclude/math-vector-fortran.h
REM seed -1889156270 2054105869 -1059718722 -1088450262 1456918192 -1032678915 1473628391 453294381 340248565 -1875493860 -1402982253 -281542542 -1310467648 -1731399280 -1267777462 -284704521 -1840663816 1649152104 -1726745131 -1525398161 1160595872 1955353043 470380569 1571412135 -118003103 -1655769586 -1401940889 1266778201 424203952 -113594975 -670849043 621400275 647928693
REM
CELL 1.54180   50.00000   50.00000   50.00000   90.00000   90.00000   90.00000
LATT -1
SFAC C  
C      1  0.4708360000000  0.5422130000000  0.4743150000000 1.0
C      1  0.5162550000000  0.4582450000000  0.5230840000000 1.0
C      1  0.4501220000000  0.4843110000000  0.5427330000000 1.0
C      1  0.5608640000000  0.4814380000000  0.4550720000000 1.0
C      1  0.5314330000000  0.4470640000000  0.4963640000000 1.0
C      1  0.4603190000000  0.5013920000000  0.5642720000000 1.0
C      1  0.5499390000000  0.5025850000000  0.5572150000000 1.0
C      1  0.5474800000000  0.5402630000000  0.5217830000000 1.0
C      1  0.5001790000000  0.4615990000000  0.4349400000000 1.0
C      1  0.5399030000000  0.4901120000000  0.4449150000000 1.0
C      1  0.4510070000000  0.4776790000000  0.4413490000000 1.0
C      1  0.4810320000000  0.4868580000000  0.5787380000000 1.0
C      1  0.4945780000000  0.4933920000000  0.4719120000000 1.0
C      1  0.5241890000000  0.5559440000000  0.4523720000000 1.0
C      1  0.4621030000000  0.5292650000000  0.5608720000000 1.0
C      1  0.4632280000000  0.4348870000000  0.4781790000000 1.0
C      1  0.5420990000000  0.4943290000000  0.5012360000000 1.0
C      1  0.4888600000000  0.4422820000000  0.5192720000000 1.0
C      1  0.5104600000000  0.4406450000000  0.4508390000000 1.0
C      1  0.5105840000000  0.5411780000000  0.4340800000000 1.0
C      1  0.5683030000000  0.4799620000000  0.4849630000000 1.0
C      1  0.5408710000000  0.5281540000000  0.5475360000000 1.0
C      1  0.4871490000000  0.4320460000000  0.4931220000000 1.0
C      1  0.4353780000000  0.5014560000000  0.4820230000000 1.0
C      1  0.4907670000000  0.5424560000000  0.5018790000000 1.0
C      1  0.5569920000000  0.4573580000000  0.5041380000000 1.0
C      1  0.4695300000000  0.4977800000000  0.4209000000000 1.0
C      1  0.5245450000000  0.5393530000000  0.4994700000000 1.0
C      1  0.4822620000000  0.5697410000000  0.5405180000000 1.0
C      1  0.5241190000000  0.4989030000000  0.5269380000000 1.0
C      1  0.5713220000000  0.5089400000000  0.4994410000000 1.0
C      1  0.5112730000000  0.5843200000000  0.4945810000000 1.0
C      1  0.4920130000000  0.5164080000000  0.4354670000000 1.0
C      1  0.4584030000000  0.5530180000000  0.5044680000000 1.0
C      1  0.5055780000000  0.4786320000000  0.4985200000000 1.0
C      1  0.4564960000000  0.4578100000000  0.4664030000000 1.0
C      1  0.4579240000000  0.5256350000000  0.5213740000000 1.0
C      1  0.4831710000000  0.4817000000000  0.5205360000000 1.0
C      1  0.4525720000000  0.5532750000000  0.5386160000000 1.0
C      1  0.4649160000000  0.4846440000000  0.4807420000000 1.0
C      1  0.4457250000000  0.5068050000000  0.4537460000000 1.0
C      1  0.5121750000000  0.4357490000000  0.4789050000000 1.0
C      1  0.4880370000000  0.5142360000000  0.5206520000000 1.0
C      1  0.5325460000000  0.4748740000000  0.5478800000000 1.0
C      1  0.4668420000000  0.5248780000000  0.4531190000000 1.0
C      1  0.5091550000000  0.4889230000000  0.4444190000000 1.0
C      1  0.5101450000000  0.4727880000000  0.5702790000000 1.0
C      1  0.4945980000000  0.5733010000000  0.5156660000000 1.0
C      1  0.5591300000000  0.4611070000000  0.5317400000000 1.0
C      1  0.4700310000000  0.4570640000000  0.5399400000000 1.0
C      1  0.4877140000000  0.5434160000000  0.5544560000000 1.0
C      1  0.4828910000000  0.4565540000000  0.5678890000000 1.0
C      1  0.5168230000000  0.5101210000000  0.4895840000000 1.0
C      1  0.4538550000000  0.4959650000000  0.5108480000000 1.0
C      1  0.5092420000000  0.5245760000000  0.5435560000000 1.0
C      1  0.5234200000000  0.5633240000000  0.4791860000000 1.0
C      1  0.4759120000000  0.4662640000000  0.4219730000000 1.0
C      1  0.5727060000000  0.5327820000000  0.5109850000000 1.0
END
