TITL C-2848495-5024-297 -0.00191310006245261 125000 -347.846246491005 0 0 66 (C1) n - 1
REM
REM in /home/bkarasulu/work/CARBON/AIRSS/Generating-Clusters/AIREBO/with-SteepDescent/Only-C1/SD-CG-opt/Try1-1.4A-POS3A/HFTN-CG
REM
REM
REM
REM
REM
REM ./C.cell (11c1c37f851c82e70ff6c80c92926a4b)
REM
REM compiler GCC version 9.2.1 20190827 (Red Hat 9.2.1-1)
REM options -cpp -mtune=generic -march=x86-64 -g -O0 -fpre-include=/usr/include/finclude/math-vector-fortran.h
REM seed 2076507925 -862298525 -533599147 620273014 2127142318 -1802933533 -705111062 1206406737 -1323943978 1728851625 -1226689271 -1951856519 -1671271034 -333036550 -730665090 -1924499934 -228847651 -1625785837 1679099623 799502484 -2125927850 -694503914 -1641665613 -1155625286 702374749 19242339 -1644981530 721890629 -1844508110 -863759838 235773189 -161880160 -2101210103
REM
CELL 1.54180   50.00000   50.00000   50.00000   90.00000   90.00000   90.00000
LATT -1
SFAC C  
C      1  0.5091060000000  0.4783360000000  0.4537910000000 1.0
C      1  0.4461620000000  0.5151990000000  0.5622860000000 1.0
C      1  0.4984820000000  0.4283240000000  0.4870690000000 1.0
C      1  0.4322410000000  0.5478720000000  0.5152260000000 1.0
C      1  0.4586320000000  0.4615890000000  0.4784380000000 1.0
C      1  0.5091540000000  0.4653600000000  0.5371990000000 1.0
C      1  0.4914490000000  0.5879570000000  0.4704000000000 1.0
C      1  0.5378840000000  0.4927820000000  0.5677340000000 1.0
C      1  0.5116080000000  0.5449830000000  0.5561770000000 1.0
C      1  0.5017380000000  0.5233670000000  0.4873710000000 1.0
C      1  0.5268890000000  0.4307000000000  0.4709800000000 1.0
C      1  0.4505360000000  0.5276050000000  0.4572180000000 1.0
C      1  0.4541800000000  0.5602110000000  0.5021170000000 1.0
C      1  0.4486000000000  0.4518980000000  0.4560580000000 1.0
C      1  0.4863270000000  0.4567530000000  0.4936490000000 1.0
C      1  0.5878080000000  0.4714300000000  0.4837050000000 1.0
C      1  0.4772900000000  0.4609420000000  0.5261800000000 1.0
C      1  0.5618400000000  0.5092370000000  0.5044490000000 1.0
C      1  0.5026060000000  0.5683810000000  0.5105980000000 1.0
C      1  0.5095960000000  0.4752230000000  0.4854370000000 1.0
C      1  0.4759450000000  0.5047330000000  0.5655450000000 1.0
C      1  0.4484110000000  0.4824020000000  0.4958940000000 1.0
C      1  0.5370160000000  0.4920610000000  0.5944900000000 1.0
C      1  0.4962530000000  0.5275660000000  0.4376400000000 1.0
C      1  0.5549150000000  0.4842200000000  0.5448850000000 1.0
C      1  0.4982340000000  0.5558440000000  0.4792860000000 1.0
C      1  0.5703480000000  0.5051880000000  0.5332970000000 1.0
C      1  0.5484000000000  0.5633740000000  0.4781840000000 1.0
C      1  0.4919280000000  0.4112700000000  0.5092870000000 1.0
C      1  0.4931950000000  0.5048850000000  0.4623730000000 1.0
C      1  0.4256880000000  0.4556530000000  0.4331110000000 1.0
C      1  0.5609380000000  0.4693050000000  0.4746740000000 1.0
C      1  0.5436480000000  0.5467770000000  0.5507290000000 1.0
C      1  0.4451420000000  0.4512660000000  0.5206880000000 1.0
C      1  0.5516120000000  0.4394850000000  0.4730380000000 1.0
C      1  0.5398460000000  0.4686930000000  0.5259890000000 1.0
C      1  0.5255070000000  0.5137210000000  0.4271730000000 1.0
C      1  0.4719220000000  0.5455730000000  0.4423160000000 1.0
C      1  0.4072540000000  0.5544810000000  0.5069730000000 1.0
C      1  0.4264510000000  0.4743520000000  0.5161140000000 1.0
C      1  0.5249030000000  0.5432330000000  0.4385460000000 1.0
C      1  0.5789670000000  0.4811090000000  0.4295730000000 1.0
C      1  0.5228580000000  0.5698190000000  0.5373630000000 1.0
C      1  0.5025500000000  0.4469790000000  0.4584400000000 1.0
C      1  0.5627990000000  0.5356110000000  0.5341960000000 1.0
C      1  0.4349990000000  0.5282220000000  0.5344710000000 1.0
C      1  0.5324510000000  0.4898270000000  0.4390410000000 1.0
C      1  0.5574030000000  0.4813520000000  0.4465460000000 1.0
C      1  0.5220210000000  0.5084260000000  0.5097840000000 1.0
C      1  0.5407380000000  0.4840530000000  0.4956700000000 1.0
C      1  0.4725650000000  0.5760340000000  0.5147160000000 1.0
C      1  0.5567870000000  0.5404920000000  0.5013590000000 1.0
C      1  0.4647080000000  0.5518650000000  0.4751500000000 1.0
C      1  0.5174690000000  0.4977770000000  0.5415780000000 1.0
C      1  0.5356280000000  0.5650300000000  0.5078390000000 1.0
C      1  0.5265310000000  0.5582000000000  0.4611320000000 1.0
C      1  0.4362090000000  0.4946220000000  0.5368220000000 1.0
C      1  0.4979360000000  0.4738480000000  0.5669300000000 1.0
C      1  0.4440220000000  0.4294030000000  0.4329130000000 1.0
C      1  0.4802370000000  0.4279010000000  0.5336450000000 1.0
C      1  0.4717070000000  0.4911140000000  0.5115040000000 1.0
C      1  0.4962400000000  0.5207120000000  0.5492300000000 1.0
C      1  0.4900290000000  0.5134210000000  0.5171690000000 1.0
C      1  0.4611860000000  0.5025020000000  0.4607450000000 1.0
C      1  0.4912720000000  0.3979080000000  0.5387030000000 1.0
C      1  0.4630050000000  0.4815460000000  0.5491690000000 1.0
END
