TITL C-2847947-6848-509 0.00071520823264234 125000 -539.392972514788 0 0 94 (C1) n - 1
REM
REM in /home/bkarasulu/work/CARBON/AIRSS/Generating-Clusters/AIREBO/with-SteepDescent/Only-C1/SD-CG-opt/Try1-1.4A-POS3A/HFTN-CG
REM
REM
REM
REM
REM
REM ./C.cell (11c1c37f851c82e70ff6c80c92926a4b)
REM
REM compiler GCC version 9.2.1 20190827 (Red Hat 9.2.1-1)
REM options -cpp -mtune=generic -march=x86-64 -g -O0 -fpre-include=/usr/include/finclude/math-vector-fortran.h
REM seed -1305899586 -183598363 -160148701 -115258165 804439928 -1098897877 1048248028 635763431 336597306 -1781766042 1736744193 1926840903 621860258 -1899418009 -1578434750 -1985349732 -1384590714 -484315203 -2005601485 -181717089 912790944 -1220322332 -1085237785 -1089075738 1067071606 -1715663153 -578123524 2061580195 -1057827402 800437368 -1484541820 159885377 974237163
REM
CELL 1.54180   50.00000   50.00000   50.00000   90.00000   90.00000   90.00000
LATT -1
SFAC C  
C      1  0.4868610000000  0.4770030000000  0.5583020000000 1.0
C      1  0.4944450000000  0.5805290000000  0.5399780000000 1.0
C      1  0.5054460000000  0.5441770000000  0.5275080000000 1.0
C      1  0.5855150000000  0.5765090000000  0.4996540000000 1.0
C      1  0.4115470000000  0.4203290000000  0.5357720000000 1.0
C      1  0.4348230000000  0.5207820000000  0.4425310000000 1.0
C      1  0.5366370000000  0.4642540000000  0.4482800000000 1.0
C      1  0.4797360000000  0.5691020000000  0.5847540000000 1.0
C      1  0.5305890000000  0.5430920000000  0.5119070000000 1.0
C      1  0.5365440000000  0.4547050000000  0.5432770000000 1.0
C      1  0.4990940000000  0.4950550000000  0.5095900000000 1.0
C      1  0.5859980000000  0.5045210000000  0.5279620000000 1.0
C      1  0.4219740000000  0.5148530000000  0.4799290000000 1.0
C      1  0.4192670000000  0.4711270000000  0.4565040000000 1.0
C      1  0.4702160000000  0.5273970000000  0.5591550000000 1.0
C      1  0.4286620000000  0.4760450000000  0.4854710000000 1.0
C      1  0.4701980000000  0.4375110000000  0.5163280000000 1.0
C      1  0.4897140000000  0.5370800000000  0.4723160000000 1.0
C      1  0.5057070000000  0.4583730000000  0.5837020000000 1.0
C      1  0.4242560000000  0.4360830000000  0.5191020000000 1.0
C      1  0.5536280000000  0.5228580000000  0.4993990000000 1.0
C      1  0.4573020000000  0.5763150000000  0.4673740000000 1.0
C      1  0.5000500000000  0.4890580000000  0.4022100000000 1.0
C      1  0.5445940000000  0.5770760000000  0.4698860000000 1.0
C      1  0.4561360000000  0.5456630000000  0.4525510000000 1.0
C      1  0.4448240000000  0.5814800000000  0.4952100000000 1.0
C      1  0.5433460000000  0.4985580000000  0.4849840000000 1.0
C      1  0.5161270000000  0.5508090000000  0.4378800000000 1.0
C      1  0.5528060000000  0.4900460000000  0.4557710000000 1.0
C      1  0.5352190000000  0.5344190000000  0.4248730000000 1.0
C      1  0.4605020000000  0.4964220000000  0.5191620000000 1.0
C      1  0.4462000000000  0.4330290000000  0.4665900000000 1.0
C      1  0.5124830000000  0.5036960000000  0.4834720000000 1.0
C      1  0.5816950000000  0.5553440000000  0.5175120000000 1.0
C      1  0.4763710000000  0.4697670000000  0.5089530000000 1.0
C      1  0.4161220000000  0.4957020000000  0.5327120000000 1.0
C      1  0.5209380000000  0.4657020000000  0.4154430000000 1.0
C      1  0.4624630000000  0.5070360000000  0.4416120000000 1.0
C      1  0.5311230000000  0.4498600000000  0.4980730000000 1.0
C      1  0.5522250000000  0.5446200000000  0.5599080000000 1.0
C      1  0.5243350000000  0.4755400000000  0.5933890000000 1.0
C      1  0.5199970000000  0.4806670000000  0.5538510000000 1.0
C      1  0.4644380000000  0.5461350000000  0.5835740000000 1.0
C      1  0.4779980000000  0.5615420000000  0.4853590000000 1.0
C      1  0.4155490000000  0.4973420000000  0.5065640000000 1.0
C      1  0.5248490000000  0.4122860000000  0.4660370000000 1.0
C      1  0.5253970000000  0.5609800000000  0.5718380000000 1.0
C      1  0.5254530000000  0.5584510000000  0.4629080000000 1.0
C      1  0.5466900000000  0.4753170000000  0.5061920000000 1.0
C      1  0.4637300000000  0.4572130000000  0.4826000000000 1.0
C      1  0.4408860000000  0.5384190000000  0.4813790000000 1.0
C      1  0.4357840000000  0.4502860000000  0.5007080000000 1.0
C      1  0.4968990000000  0.4188890000000  0.4720210000000 1.0
C      1  0.4147910000000  0.5003030000000  0.4525290000000 1.0
C      1  0.4851110000000  0.4479990000000  0.4616780000000 1.0
C      1  0.4754710000000  0.4819910000000  0.4245830000000 1.0
C      1  0.4515070000000  0.5007870000000  0.4893990000000 1.0
C      1  0.5785140000000  0.5259260000000  0.5114700000000 1.0
C      1  0.5001550000000  0.4869200000000  0.4600640000000 1.0
C      1  0.5430250000000  0.4449380000000  0.4237770000000 1.0
C      1  0.4990870000000  0.4457480000000  0.5528330000000 1.0
C      1  0.5151440000000  0.4583160000000  0.4707730000000 1.0
C      1  0.4659660000000  0.4973210000000  0.5517950000000 1.0
C      1  0.4814570000000  0.5631770000000  0.5152320000000 1.0
C      1  0.4676320000000  0.4181270000000  0.4885060000000 1.0
C      1  0.5911070000000  0.5113430000000  0.5546230000000 1.0
C      1  0.4439120000000  0.5542560000000  0.5049700000000 1.0
C      1  0.5244340000000  0.4876080000000  0.5243350000000 1.0
C      1  0.5779090000000  0.4774480000000  0.5171930000000 1.0
C      1  0.5817090000000  0.4822230000000  0.4658330000000 1.0
C      1  0.5006650000000  0.5337340000000  0.5561920000000 1.0
C      1  0.5548250000000  0.5517650000000  0.5306300000000 1.0
C      1  0.4838730000000  0.5148100000000  0.4174370000000 1.0
C      1  0.5195550000000  0.5358100000000  0.4832320000000 1.0
C      1  0.5012870000000  0.5735120000000  0.5666900000000 1.0
C      1  0.5632190000000  0.4570690000000  0.5376470000000 1.0
C      1  0.5265990000000  0.5270580000000  0.5723390000000 1.0
C      1  0.5388610000000  0.5095480000000  0.4344600000000 1.0
C      1  0.4348160000000  0.4898930000000  0.5514150000000 1.0
C      1  0.5786280000000  0.5311420000000  0.5690080000000 1.0
C      1  0.5154290000000  0.4373120000000  0.5244330000000 1.0
C      1  0.4773550000000  0.4563810000000  0.4355170000000 1.0
C      1  0.5131210000000  0.4927750000000  0.4333640000000 1.0
C      1  0.4752730000000  0.5081020000000  0.4696680000000 1.0
C      1  0.4863650000000  0.5388940000000  0.4385270000000 1.0
C      1  0.5304260000000  0.4986990000000  0.5772550000000 1.0
C      1  0.4842490000000  0.5196230000000  0.5226560000000 1.0
C      1  0.4956380000000  0.4182590000000  0.5084010000000 1.0
C      1  0.5420930000000  0.4267390000000  0.4779790000000 1.0
C      1  0.5697810000000  0.5827360000000  0.4781460000000 1.0
C      1  0.4595620000000  0.5419670000000  0.5302940000000 1.0
C      1  0.4268700000000  0.4439340000000  0.4504180000000 1.0
C      1  0.5887620000000  0.4724000000000  0.4877550000000 1.0
C      1  0.4924330000000  0.4243490000000  0.5749270000000 1.0
END
