TITL C-2847959-7740-274 0.00147747209710399 125000 -544.55624013046 0 0 102 (C1) n - 1
REM
REM in /home/bkarasulu/work/CARBON/AIRSS/Generating-Clusters/AIREBO/with-SteepDescent/Only-C1/SD-CG-opt/Try1-1.4A-POS3A/HFTN-CG
REM
REM
REM
REM
REM
REM ./C.cell (11c1c37f851c82e70ff6c80c92926a4b)
REM
REM compiler GCC version 9.2.1 20190827 (Red Hat 9.2.1-1)
REM options -cpp -mtune=generic -march=x86-64 -g -O0 -fpre-include=/usr/include/finclude/math-vector-fortran.h
REM seed 714177982 856136870 -845263036 613311174 -1695759540 -779525857 -484418009 1648094264 751472104 -887152672 523310854 -1121600337 -1179605086 -405395333 31636350 -1118047743 -2109245640 -1336594197 1191712468 1279021801 796124033 -581461976 -230652625 -1169186732 -2100060367 1677598710 -2049390805 522332281 -1171040830 513034155 125607024 -1370280164 -379278062
REM
CELL 1.54180   50.00000   50.00000   50.00000   90.00000   90.00000   90.00000
LATT -1
SFAC C  
C      1  0.5807200000000  0.4489960000000  0.5173590000000 1.0
C      1  0.4216640000000  0.4621190000000  0.5776760000000 1.0
C      1  0.4416890000000  0.5081310000000  0.5843600000000 1.0
C      1  0.5491000000000  0.4108240000000  0.4991420000000 1.0
C      1  0.5371240000000  0.5181920000000  0.4908640000000 1.0
C      1  0.5621950000000  0.4967690000000  0.5386350000000 1.0
C      1  0.4687640000000  0.5082780000000  0.5913170000000 1.0
C      1  0.4204620000000  0.4824540000000  0.5127620000000 1.0
C      1  0.4635170000000  0.5820090000000  0.5327570000000 1.0
C      1  0.4918200000000  0.5884750000000  0.4846500000000 1.0
C      1  0.5298980000000  0.5069290000000  0.5422170000000 1.0
C      1  0.4873660000000  0.5442660000000  0.5238260000000 1.0
C      1  0.4567010000000  0.5622080000000  0.4575060000000 1.0
C      1  0.5604250000000  0.4789980000000  0.4567710000000 1.0
C      1  0.4226540000000  0.5235790000000  0.5408290000000 1.0
C      1  0.4483400000000  0.5536090000000  0.5423480000000 1.0
C      1  0.5363710000000  0.5669510000000  0.4249110000000 1.0
C      1  0.5775650000000  0.4759430000000  0.5165420000000 1.0
C      1  0.4419930000000  0.5359940000000  0.4541260000000 1.0
C      1  0.5047040000000  0.5253010000000  0.4933490000000 1.0
C      1  0.4625060000000  0.5754820000000  0.4815580000000 1.0
C      1  0.4440330000000  0.4830280000000  0.4510990000000 1.0
C      1  0.5462430000000  0.5557640000000  0.4760990000000 1.0
C      1  0.5270550000000  0.4781570000000  0.5146190000000 1.0
C      1  0.5780750000000  0.5543220000000  0.4773010000000 1.0
C      1  0.4573550000000  0.5109180000000  0.4367810000000 1.0
C      1  0.5149420000000  0.5242870000000  0.5673450000000 1.0
C      1  0.5376240000000  0.4827630000000  0.5770730000000 1.0
C      1  0.5099340000000  0.5655390000000  0.4432840000000 1.0
C      1  0.4391690000000  0.4932370000000  0.5390420000000 1.0
C      1  0.4305080000000  0.4570600000000  0.4615980000000 1.0
C      1  0.4704300000000  0.4737470000000  0.4703790000000 1.0
C      1  0.4556160000000  0.4403530000000  0.5236730000000 1.0
C      1  0.5876030000000  0.5307360000000  0.4642660000000 1.0
C      1  0.5098870000000  0.4149020000000  0.4593230000000 1.0
C      1  0.6221950000000  0.5024090000000  0.4848990000000 1.0
C      1  0.5715740000000  0.5264840000000  0.4417250000000 1.0
C      1  0.5258600000000  0.4739900000000  0.5483450000000 1.0
C      1  0.5288360000000  0.4342810000000  0.5476030000000 1.0
C      1  0.4785590000000  0.4407760000000  0.4721010000000 1.0
C      1  0.4296970000000  0.4344490000000  0.4855550000000 1.0
C      1  0.4774260000000  0.4149480000000  0.5197340000000 1.0
C      1  0.4594430000000  0.4278330000000  0.5530310000000 1.0
C      1  0.4864940000000  0.4783530000000  0.5489130000000 1.0
C      1  0.4215580000000  0.5085430000000  0.4514090000000 1.0
C      1  0.4462430000000  0.5387500000000  0.5125810000000 1.0
C      1  0.4951280000000  0.5362750000000  0.4395830000000 1.0
C      1  0.5741970000000  0.4876240000000  0.4847780000000 1.0
C      1  0.5291220000000  0.5155970000000  0.4632920000000 1.0
C      1  0.5030750000000  0.4733650000000  0.4932280000000 1.0
C      1  0.5472760000000  0.4952560000000  0.5013220000000 1.0
C      1  0.5407860000000  0.4742510000000  0.4275950000000 1.0
C      1  0.5014660000000  0.4205210000000  0.5326030000000 1.0
C      1  0.5633030000000  0.4986940000000  0.4289680000000 1.0
C      1  0.5241320000000  0.4122100000000  0.4872310000000 1.0
C      1  0.4964610000000  0.5741330000000  0.5358170000000 1.0
C      1  0.5019770000000  0.4518130000000  0.5580780000000 1.0
C      1  0.4740600000000  0.4826420000000  0.5017430000000 1.0
C      1  0.4894460000000  0.5194300000000  0.4649880000000 1.0
C      1  0.5290030000000  0.4383040000000  0.4579080000000 1.0
C      1  0.4220150000000  0.5140930000000  0.5096330000000 1.0
C      1  0.4714980000000  0.5195440000000  0.4119890000000 1.0
C      1  0.4517020000000  0.5699850000000  0.5063410000000 1.0
C      1  0.4975400000000  0.5570810000000  0.4940200000000 1.0
C      1  0.5072340000000  0.4950270000000  0.4249650000000 1.0
C      1  0.5346880000000  0.5537730000000  0.5080230000000 1.0
C      1  0.5961210000000  0.5078930000000  0.4786430000000 1.0
C      1  0.5000690000000  0.5993470000000  0.5134080000000 1.0
C      1  0.5291100000000  0.5646640000000  0.5378820000000 1.0
C      1  0.4582720000000  0.4398860000000  0.4448230000000 1.0
C      1  0.5342630000000  0.5156310000000  0.4238620000000 1.0
C      1  0.5171960000000  0.5707840000000  0.4718140000000 1.0
C      1  0.4715860000000  0.5026670000000  0.5432280000000 1.0
C      1  0.5068940000000  0.4902240000000  0.4646670000000 1.0
C      1  0.4569730000000  0.4694600000000  0.5224950000000 1.0
C      1  0.4845240000000  0.5215720000000  0.5663740000000 1.0
C      1  0.5059500000000  0.4395590000000  0.4904770000000 1.0
C      1  0.4637020000000  0.5261580000000  0.4862370000000 1.0
C      1  0.4774580000000  0.5639310000000  0.4386980000000 1.0
C      1  0.4326820000000  0.5188680000000  0.4811330000000 1.0
C      1  0.5287460000000  0.5040560000000  0.5874220000000 1.0
C      1  0.5563520000000  0.4447440000000  0.5550670000000 1.0
C      1  0.5297130000000  0.4683670000000  0.4570630000000 1.0
C      1  0.5384040000000  0.5436720000000  0.5554290000000 1.0
C      1  0.4685950000000  0.5485060000000  0.5677840000000 1.0
C      1  0.4799120000000  0.5127630000000  0.5129570000000 1.0
C      1  0.4819310000000  0.4879340000000  0.4416930000000 1.0
C      1  0.5411490000000  0.5407110000000  0.4460020000000 1.0
C      1  0.4200600000000  0.4638240000000  0.4934550000000 1.0
C      1  0.5620520000000  0.5287070000000  0.5507940000000 1.0
C      1  0.4799140000000  0.4323840000000  0.5669860000000 1.0
C      1  0.4875770000000  0.5705510000000  0.5682390000000 1.0
C      1  0.5704190000000  0.4265080000000  0.5057590000000 1.0
C      1  0.4375390000000  0.5341260000000  0.5680370000000 1.0
C      1  0.4927580000000  0.4380360000000  0.4413040000000 1.0
C      1  0.5172410000000  0.4525520000000  0.4225760000000 1.0
C      1  0.4581660000000  0.4270320000000  0.4941260000000 1.0
C      1  0.5171720000000  0.4474010000000  0.5199170000000 1.0
C      1  0.4324770000000  0.4856930000000  0.5696010000000 1.0
C      1  0.5042970000000  0.5246390000000  0.4103090000000 1.0
C      1  0.5664660000000  0.4675410000000  0.5540070000000 1.0
C      1  0.5182140000000  0.5288580000000  0.5243460000000 1.0
END
