TITL C-2848496-4490-513 0.00099086305413592 125000 -187.896826727881 0 0 34 (C1) n - 1
REM
REM in /home/bkarasulu/work/CARBON/AIRSS/Generating-Clusters/AIREBO/with-SteepDescent/Only-C1/SD-CG-opt/Try1-1.4A-POS3A/HFTN-CG
REM
REM
REM
REM
REM
REM ./C.cell (11c1c37f851c82e70ff6c80c92926a4b)
REM
REM compiler GCC version 9.2.1 20190827 (Red Hat 9.2.1-1)
REM options -cpp -mtune=generic -march=x86-64 -g -O0 -fpre-include=/usr/include/finclude/math-vector-fortran.h
REM seed -904907270 141232987 -1532175580 -543694659 -2122877496 -59453336 -528286165 1655831919 -1929088570 -1191159724 1087587638 -1167776157 -2121506705 -869307250 -1179205178 -1233931632 53594370 1575934711 -1536146439 587272011 510832666 -1071366096 -1429783774 371568504 1696642464 1506640594 1642339850 983548993 -88616284 -2107835770 -1825590162 -1847865367 2040471001
REM
CELL 1.54180   50.00000   50.00000   50.00000   90.00000   90.00000   90.00000
LATT -1
SFAC C  
C      1  0.5448070000000  0.5216380000000  0.4896270000000 1.0
C      1  0.4745870000000  0.5165040000000  0.4339560000000 1.0
C      1  0.5407270000000  0.5291510000000  0.4578260000000 1.0
C      1  0.5374820000000  0.4520990000000  0.5495730000000 1.0
C      1  0.4484690000000  0.4451860000000  0.5082860000000 1.0
C      1  0.5399590000000  0.4744040000000  0.4809360000000 1.0
C      1  0.4852440000000  0.5396360000000  0.4831120000000 1.0
C      1  0.5323350000000  0.5503780000000  0.4802160000000 1.0
C      1  0.4707730000000  0.4390830000000  0.5225760000000 1.0
C      1  0.4931250000000  0.4519370000000  0.5301890000000 1.0
C      1  0.4962190000000  0.5035330000000  0.4517490000000 1.0
C      1  0.4418100000000  0.4940560000000  0.4956320000000 1.0
C      1  0.4598420000000  0.5377120000000  0.4432190000000 1.0
C      1  0.5616450000000  0.4947350000000  0.4963910000000 1.0
C      1  0.4359010000000  0.4687070000000  0.5032310000000 1.0
C      1  0.4873950000000  0.5159480000000  0.5511200000000 1.0
C      1  0.4701860000000  0.5236960000000  0.5304360000000 1.0
C      1  0.5061780000000  0.5580630000000  0.4854800000000 1.0
C      1  0.4536940000000  0.5448270000000  0.5349980000000 1.0
C      1  0.5147700000000  0.5119660000000  0.5448610000000 1.0
C      1  0.4784620000000  0.5128220000000  0.5764050000000 1.0
C      1  0.5408370000000  0.4473770000000  0.4875780000000 1.0
C      1  0.4690120000000  0.5099740000000  0.5043200000000 1.0
C      1  0.5084540000000  0.4742590000000  0.4410630000000 1.0
C      1  0.4591910000000  0.5403760000000  0.4713440000000 1.0
C      1  0.5282160000000  0.5086270000000  0.4445400000000 1.0
C      1  0.5362740000000  0.4795980000000  0.4514690000000 1.0
C      1  0.4948450000000  0.5079450000000  0.4840410000000 1.0
C      1  0.5556490000000  0.4412060000000  0.5650060000000 1.0
C      1  0.5341340000000  0.5271750000000  0.5558170000000 1.0
C      1  0.4405530000000  0.5232830000000  0.4853660000000 1.0
C      1  0.5201320000000  0.4912930000000  0.5266360000000 1.0
C      1  0.5219340000000  0.4982110000000  0.4974530000000 1.0
C      1  0.5171600000000  0.4645970000000  0.5355490000000 1.0
END
