TITL C-2847952-8118-196 -0.000486155897428568 125000 -309.653798769947 0 0 54 (C1) n - 1
REM
REM in /home/bkarasulu/work/CARBON/AIRSS/Generating-Clusters/AIREBO/with-SteepDescent/Only-C1/SD-CG-opt/Try1-1.4A-POS3A/HFTN-CG
REM
REM
REM
REM
REM
REM ./C.cell (11c1c37f851c82e70ff6c80c92926a4b)
REM
REM compiler GCC version 9.2.1 20190827 (Red Hat 9.2.1-1)
REM options -cpp -mtune=generic -march=x86-64 -g -O0 -fpre-include=/usr/include/finclude/math-vector-fortran.h
REM seed -199718129 -1989925890 107315544 -908688829 -212320738 1853026652 -981315425 -1945250773 -473451270 -69016420 -456220699 657151511 1883343202 1105887551 -804686444 -511908505 1736585397 253356391 -100619964 -887356910 1878563339 2058262300 -1230345334 452152439 1830502307 -1370424281 -240254367 -31821585 -1812608761 -1421150268 155167687 733327128 -349045865
REM
CELL 1.54180   50.00000   50.00000   50.00000   90.00000   90.00000   90.00000
LATT -1
SFAC C  
C      1  0.4671980000000  0.5557060000000  0.5253260000000 1.0
C      1  0.5150930000000  0.4645570000000  0.4382630000000 1.0
C      1  0.4422800000000  0.5443860000000  0.4831930000000 1.0
C      1  0.5150770000000  0.5506640000000  0.5345540000000 1.0
C      1  0.4922300000000  0.5226800000000  0.4609280000000 1.0
C      1  0.5458650000000  0.4430260000000  0.4748650000000 1.0
C      1  0.4715910000000  0.4861350000000  0.4552620000000 1.0
C      1  0.5329750000000  0.5067420000000  0.4793040000000 1.0
C      1  0.5519210000000  0.5223920000000  0.5526700000000 1.0
C      1  0.4356790000000  0.5213620000000  0.4973920000000 1.0
C      1  0.4525640000000  0.4698420000000  0.5401140000000 1.0
C      1  0.4811170000000  0.5754520000000  0.4685890000000 1.0
C      1  0.4791480000000  0.4494220000000  0.4691350000000 1.0
C      1  0.4667840000000  0.5593460000000  0.4948840000000 1.0
C      1  0.5248820000000  0.5314050000000  0.5527750000000 1.0
C      1  0.4678110000000  0.4251040000000  0.4695860000000 1.0
C      1  0.5611510000000  0.5680860000000  0.5022260000000 1.0
C      1  0.5689210000000  0.5056120000000  0.5390660000000 1.0
C      1  0.5109700000000  0.4935690000000  0.5304460000000 1.0
C      1  0.4343920000000  0.5188540000000  0.4419430000000 1.0
C      1  0.5411560000000  0.4568190000000  0.5470260000000 1.0
C      1  0.5805680000000  0.5168050000000  0.4753390000000 1.0
C      1  0.5107360000000  0.4314220000000  0.5432580000000 1.0
C      1  0.4848080000000  0.4660030000000  0.4907320000000 1.0
C      1  0.5184200000000  0.5408720000000  0.5060470000000 1.0
C      1  0.5426710000000  0.4441310000000  0.5026510000000 1.0
C      1  0.4908140000000  0.5647330000000  0.5381330000000 1.0
C      1  0.5728480000000  0.4824790000000  0.5244310000000 1.0
C      1  0.5568400000000  0.4590520000000  0.5229730000000 1.0
C      1  0.5557710000000  0.5224340000000  0.4837400000000 1.0
C      1  0.5002030000000  0.5554860000000  0.4884180000000 1.0
C      1  0.4785620000000  0.5115120000000  0.5586850000000 1.0
C      1  0.4836560000000  0.4993700000000  0.4841830000000 1.0
C      1  0.5237310000000  0.4909810000000  0.4340180000000 1.0
C      1  0.5330610000000  0.4471370000000  0.4511690000000 1.0
C      1  0.5477070000000  0.5448000000000  0.4978290000000 1.0
C      1  0.5109410000000  0.5076900000000  0.5030300000000 1.0
C      1  0.4874330000000  0.4627650000000  0.4440580000000 1.0
C      1  0.4896850000000  0.4517410000000  0.5163560000000 1.0
C      1  0.4471180000000  0.4948150000000  0.4453710000000 1.0
C      1  0.4642210000000  0.4472110000000  0.5312330000000 1.0
C      1  0.4532930000000  0.4221440000000  0.5320840000000 1.0
C      1  0.4104230000000  0.5138090000000  0.5026840000000 1.0
C      1  0.4553220000000  0.5332580000000  0.5347940000000 1.0
C      1  0.4585150000000  0.4994270000000  0.5360820000000 1.0
C      1  0.5059680000000  0.5101290000000  0.5525390000000 1.0
C      1  0.4444210000000  0.5410530000000  0.4555520000000 1.0
C      1  0.4722650000000  0.5478480000000  0.4497760000000 1.0
C      1  0.5481530000000  0.4519110000000  0.5727740000000 1.0
C      1  0.5124330000000  0.4648170000000  0.5365280000000 1.0
C      1  0.5194800000000  0.5086870000000  0.4549650000000 1.0
C      1  0.4581030000000  0.5067520000000  0.5050570000000 1.0
C      1  0.5181470000000  0.4334960000000  0.5126980000000 1.0
C      1  0.5048790000000  0.5540680000000  0.4552640000000 1.0
END
