TITL C-2847949-8115-132 -14.7036777194714 125000 -580.802152037483 0 0 104 (C1) n - 1
REM
REM in /home/bkarasulu/work/CARBON/AIRSS/Generating-Clusters/AIREBO/with-SteepDescent/Only-C1/SD-CG-opt/Try1-1.4A-POS3A/HFTN-CG
REM
REM
REM
REM
REM
REM ./C.cell (11c1c37f851c82e70ff6c80c92926a4b)
REM
REM compiler GCC version 9.2.1 20190827 (Red Hat 9.2.1-1)
REM options -cpp -mtune=generic -march=x86-64 -g -O0 -fpre-include=/usr/include/finclude/math-vector-fortran.h
REM seed 1417602601 -1686848972 215749812 -1431866893 127178873 1188224019 -1992394429 -414341644 -1057722183 -758422157 371235397 1578223495 -826016825 818102677 -644022012 1220930853 -431220453 1424425435 517774134 1159375022 510350958 -1038462514 -1745018852 -1250855465 642983946 -933875696 -1341663625 -447890158 1794985653 1032960806 -1842034087 1872684611 1026069224
REM
CELL 1.54180   50.00000   50.00000   50.00000   90.00000   90.00000   90.00000
LATT -1
SFAC C  
C      1  0.5037550000000  0.4495740000000  0.5676640000000 1.0
C      1  0.4418390000000  0.5758030000000  0.5012740000000 1.0
C      1  0.4214040000000  0.5263150000000  0.5194340000000 1.0
C      1  0.5380110000000  0.4722610000000  0.5346940000000 1.0
C      1  0.5529310000000  0.4335900000000  0.4432740000000 1.0
C      1  0.4793810000000  0.4800060000000  0.5733330000000 1.0
C      1  0.4656300000000  0.4786660000000  0.4577850000000 1.0
C      1  0.4998180000000  0.5840450000000  0.5343890000000 1.0
C      1  0.5362920000000  0.5146460000000  0.5281110000000 1.0
C      1  0.5284640000000  0.5563420000000  0.5311960000000 1.0
C      1  0.4654480000000  0.4240550000000  0.5072840000000 1.0
C      1  0.5697560000000  0.4414450000000  0.4642950000000 1.0
C      1  0.4335660000000  0.5471660000000  0.4464090000000 1.0
C      1  0.5158440000000  0.5314590000000  0.5766300000000 1.0
C      1  0.5679340000000  0.5139990000000  0.4540490000000 1.0
C      1  0.5294590000000  0.5469890000000  0.4164420000000 1.0
C      1  0.5785130000000  0.4801870000000  0.5642290000000 1.0
C      1  0.4397720000000  0.5024300000000  0.5073720000000 1.0
C      1  0.4455770000000  0.5178080000000  0.5641820000000 1.0
C      1  0.5016920000000  0.5075140000000  0.4147230000000 1.0
C      1  0.5775990000000  0.4891440000000  0.4618780000000 1.0
C      1  0.5855500000000  0.5110500000000  0.5146400000000 1.0
C      1  0.5615860000000  0.5342570000000  0.4766940000000 1.0
C      1  0.4278670000000  0.5590620000000  0.5181230000000 1.0
C      1  0.5591130000000  0.5267700000000  0.5471610000000 1.0
C      1  0.4583820000000  0.4976350000000  0.4003350000000 1.0
C      1  0.4926360000000  0.4709010000000  0.4274820000000 1.0
C      1  0.4849710000000  0.4997020000000  0.4438720000000 1.0
C      1  0.4290570000000  0.4565390000000  0.5219490000000 1.0
C      1  0.5744760000000  0.5345550000000  0.5050500000000 1.0
C      1  0.4754430000000  0.5676130000000  0.5073760000000 1.0
C      1  0.5803000000000  0.4430060000000  0.5165270000000 1.0
C      1  0.5232660000000  0.5430570000000  0.4457510000000 1.0
C      1  0.4496410000000  0.4041930000000  0.5175940000000 1.0
C      1  0.4655330000000  0.4293950000000  0.4385230000000 1.0
C      1  0.4980200000000  0.4491730000000  0.5063550000000 1.0
C      1  0.5356170000000  0.5293140000000  0.4974430000000 1.0
C      1  0.4695740000000  0.4725400000000  0.4055520000000 1.0
C      1  0.4972930000000  0.5460810000000  0.5220700000000 1.0
C      1  0.5412600000000  0.5588670000000  0.5626000000000 1.0
C      1  0.4487300000000  0.5481440000000  0.5383980000000 1.0
C      1  0.4727300000000  0.5365670000000  0.4344720000000 1.0
C      1  0.4121580000000  0.5029400000000  0.4656960000000 1.0
C      1  0.5402630000000  0.5564030000000  0.4684550000000 1.0
C      1  0.4849920000000  0.4334980000000  0.4586320000000 1.0
C      1  0.4902090000000  0.5278110000000  0.4623130000000 1.0
C      1  0.4923490000000  0.5433970000000  0.5819310000000 1.0
C      1  0.4898650000000  0.5167850000000  0.5383630000000 1.0
C      1  0.3961710000000  0.5226380000000  0.5624120000000 1.0
C      1  0.4606310000000  0.5387500000000  0.5079920000000 1.0
C      1  0.5181470000000  0.5311330000000  0.4004400000000 1.0
C      1  0.4809970000000  0.4656120000000  0.4839860000000 1.0
C      1  0.5083420000000  0.4201000000000  0.5176890000000 1.0
C      1  0.4645000000000  0.5439070000000  0.5658450000000 1.0
C      1  0.5325430000000  0.4972960000000  0.4160460000000 1.0
C      1  0.5318410000000  0.4512460000000  0.5092290000000 1.0
C      1  0.4932580000000  0.5070910000000  0.5088130000000 1.0
C      1  0.6021730000000  0.4301480000000  0.5364180000000 1.0
C      1  0.5222470000000  0.5734190000000  0.4847590000000 1.0
C      1  0.5215470000000  0.4807130000000  0.4993990000000 1.0
C      1  0.5014560000000  0.4616080000000  0.4571260000000 1.0
C      1  0.4725550000000  0.5197330000000  0.4117550000000 1.0
C      1  0.5671330000000  0.4900250000000  0.5337320000000 1.0
C      1  0.5884140000000  0.4621270000000  0.4577880000000 1.0
C      1  0.5616210000000  0.5090180000000  0.5718510000000 1.0
C      1  0.5009700000000  0.5603250000000  0.4621160000000 1.0
C      1  0.5052160000000  0.5309060000000  0.4926850000000 1.0
C      1  0.4429170000000  0.4903430000000  0.6092040000000 1.0
C      1  0.5445470000000  0.4812550000000  0.5653220000000 1.0
C      1  0.4203790000000  0.4768420000000  0.4714120000000 1.0
C      1  0.4350700000000  0.5275670000000  0.4659750000000 1.0
C      1  0.4699450000000  0.4942020000000  0.4941980000000 1.0
C      1  0.5597460000000  0.4454890000000  0.4951700000000 1.0
C      1  0.4841970000000  0.5634580000000  0.5482060000000 1.0
C      1  0.4878940000000  0.4656880000000  0.5432870000000 1.0
C      1  0.5178480000000  0.5786040000000  0.5107450000000 1.0
C      1  0.5130650000000  0.4822360000000  0.5692650000000 1.0
C      1  0.4685120000000  0.4505750000000  0.5231940000000 1.0
C      1  0.4261300000000  0.4747030000000  0.4991210000000 1.0
C      1  0.4537090000000  0.4945650000000  0.5859970000000 1.0
C      1  0.5066770000000  0.4822440000000  0.5277550000000 1.0
C      1  0.4110710000000  0.5236410000000  0.4895150000000 1.0
C      1  0.5505650000000  0.4948520000000  0.5044360000000 1.0
C      1  0.5200080000000  0.5119280000000  0.4582240000000 1.0
C      1  0.4401630000000  0.4668490000000  0.4537050000000 1.0
C      1  0.4795450000000  0.4222620000000  0.4833960000000 1.0
C      1  0.4413420000000  0.4429700000000  0.4387890000000 1.0
C      1  0.5552400000000  0.4754490000000  0.4791920000000 1.0
C      1  0.4664120000000  0.4988360000000  0.5487090000000 1.0
C      1  0.4780570000000  0.5804820000000  0.4590230000000 1.0
C      1  0.5451110000000  0.5105690000000  0.4379950000000 1.0
C      1  0.4530050000000  0.4799120000000  0.5282820000000 1.0
C      1  0.4645510000000  0.5849500000000  0.4816350000000 1.0
C      1  0.4190030000000  0.5206330000000  0.5497870000000 1.0
C      1  0.5229310000000  0.4696630000000  0.4190180000000 1.0
C      1  0.5442840000000  0.5363070000000  0.5824220000000 1.0
C      1  0.5230350000000  0.4816710000000  0.4681310000000 1.0
C      1  0.5386500000000  0.4472850000000  0.4242870000000 1.0
C      1  0.5167610000000  0.4117140000000  0.5421730000000 1.0
C      1  0.5152060000000  0.5106570000000  0.5545150000000 1.0
C      1  0.5893700000000  0.4585950000000  0.5442840000000 1.0
C      1  0.5103290000000  0.4240040000000  0.5658780000000 1.0
C      1  0.4619670000000  0.5234650000000  0.4807760000000 1.0
C      1  0.5594270000000  0.5470410000000  0.5248860000000 1.0
END
