TITL C-2847949-8115-105 0.00113193319273651 125000 -777.758614719029 0 0 155 (C1) n - 1
REM
REM in /home/bkarasulu/work/CARBON/AIRSS/Generating-Clusters/AIREBO/with-SteepDescent/Only-C1/SD-CG-opt/Try1-1.4A-POS3A/HFTN-CG
REM
REM
REM
REM
REM
REM ./C.cell (11c1c37f851c82e70ff6c80c92926a4b)
REM
REM compiler GCC version 9.2.1 20190827 (Red Hat 9.2.1-1)
REM options -cpp -mtune=generic -march=x86-64 -g -O0 -fpre-include=/usr/include/finclude/math-vector-fortran.h
REM seed -518469700 -1615527278 1106198881 185258552 415516485 -813043331 40646531 1044448140 1292146028 426938018 1203416567 -1971389201 -829623275 -649221203 643214181 -1720569240 -528408983 1353358341 -1825025676 1853793582 913023027 -921094790 116784011 -1507073274 487709402 1118186572 39507197 -981081195 835909419 -1331522464 315890231 -266599139 -1919104078
REM
CELL 1.54180   50.00000   50.00000   50.00000   90.00000   90.00000   90.00000
LATT -1
SFAC C  
C      1  0.5137210000000  0.5297930000000  0.4836790000000 1.0
C      1  0.4071040000000  0.4726620000000  0.4686280000000 1.0
C      1  0.5942260000000  0.4637240000000  0.4563620000000 1.0
C      1  0.4942030000000  0.4998700000000  0.4142070000000 1.0
C      1  0.5441350000000  0.4292900000000  0.5666300000000 1.0
C      1  0.5256350000000  0.5470950000000  0.5246520000000 1.0
C      1  0.5232830000000  0.4875230000000  0.5961320000000 1.0
C      1  0.4544490000000  0.5881820000000  0.4836300000000 1.0
C      1  0.5606980000000  0.4578860000000  0.4190720000000 1.0
C      1  0.4785820000000  0.6081010000000  0.4961180000000 1.0
C      1  0.4589080000000  0.5353120000000  0.5487840000000 1.0
C      1  0.4306520000000  0.5722600000000  0.4677210000000 1.0
C      1  0.4713340000000  0.4278300000000  0.4342630000000 1.0
C      1  0.5059720000000  0.4663750000000  0.3958990000000 1.0
C      1  0.4752070000000  0.4724390000000  0.4058930000000 1.0
C      1  0.5198680000000  0.5830060000000  0.5360300000000 1.0
C      1  0.4192200000000  0.5497360000000  0.4874200000000 1.0
C      1  0.5007740000000  0.5567320000000  0.4974030000000 1.0
C      1  0.5667670000000  0.4596920000000  0.5316450000000 1.0
C      1  0.4717160000000  0.5128350000000  0.5710010000000 1.0
C      1  0.4285170000000  0.5579960000000  0.5191190000000 1.0
C      1  0.5407640000000  0.4465070000000  0.4723460000000 1.0
C      1  0.5530030000000  0.5764280000000  0.5398810000000 1.0
C      1  0.4808050000000  0.4960720000000  0.4444950000000 1.0
C      1  0.4630470000000  0.5564120000000  0.4841680000000 1.0
C      1  0.4357140000000  0.5411170000000  0.5698700000000 1.0
C      1  0.4344880000000  0.5865440000000  0.5215510000000 1.0
C      1  0.4869950000000  0.5544820000000  0.4600980000000 1.0
C      1  0.5211910000000  0.5003190000000  0.4368720000000 1.0
C      1  0.4392910000000  0.4214710000000  0.5213080000000 1.0
C      1  0.4497370000000  0.5364280000000  0.4616010000000 1.0
C      1  0.4979800000000  0.5295640000000  0.5661870000000 1.0
C      1  0.5612000000000  0.4245570000000  0.5135920000000 1.0
C      1  0.5544340000000  0.5531630000000  0.5076060000000 1.0
C      1  0.5359480000000  0.4040420000000  0.5109790000000 1.0
C      1  0.5867230000000  0.5085200000000  0.4797950000000 1.0
C      1  0.5792950000000  0.4840660000000  0.4426540000000 1.0
C      1  0.5354240000000  0.6041340000000  0.4847830000000 1.0
C      1  0.5146150000000  0.5471060000000  0.4092420000000 1.0
C      1  0.4856380000000  0.4212360000000  0.5542480000000 1.0
C      1  0.5737270000000  0.4422860000000  0.4686090000000 1.0
C      1  0.5533790000000  0.5160770000000  0.4191540000000 1.0
C      1  0.5432020000000  0.5529990000000  0.5625420000000 1.0
C      1  0.4880440000000  0.4448160000000  0.6041930000000 1.0
C      1  0.4108550000000  0.4899830000000  0.4906150000000 1.0
C      1  0.5369480000000  0.4173100000000  0.4450270000000 1.0
C      1  0.4807250000000  0.3965300000000  0.5308490000000 1.0
C      1  0.4504670000000  0.4569600000000  0.5743250000000 1.0
C      1  0.5187550000000  0.4460190000000  0.4464270000000 1.0
C      1  0.5809790000000  0.5573910000000  0.4084800000000 1.0
C      1  0.5618350000000  0.5517420000000  0.4559440000000 1.0
C      1  0.4545780000000  0.4341920000000  0.5493920000000 1.0
C      1  0.5157970000000  0.4836660000000  0.4863710000000 1.0
C      1  0.5473450000000  0.5845350000000  0.5072360000000 1.0
C      1  0.5940540000000  0.4644900000000  0.5112830000000 1.0
C      1  0.4156290000000  0.5414390000000  0.5458980000000 1.0
C      1  0.5220030000000  0.5502830000000  0.4587520000000 1.0
C      1  0.5553820000000  0.5260250000000  0.5809660000000 1.0
C      1  0.5763570000000  0.5545540000000  0.4849630000000 1.0
C      1  0.5034210000000  0.5727760000000  0.4148820000000 1.0
C      1  0.5139730000000  0.5984720000000  0.4643240000000 1.0
C      1  0.5598950000000  0.4382180000000  0.4383170000000 1.0
C      1  0.4143820000000  0.4463560000000  0.4763530000000 1.0
C      1  0.5074360000000  0.4706270000000  0.5167020000000 1.0
C      1  0.4596470000000  0.5446990000000  0.5159150000000 1.0
C      1  0.4454090000000  0.4859720000000  0.5436000000000 1.0
C      1  0.4486260000000  0.4862540000000  0.4394700000000 1.0
C      1  0.5013260000000  0.4729430000000  0.5488840000000 1.0
C      1  0.5126290000000  0.4363950000000  0.5630760000000 1.0
C      1  0.5626790000000  0.4900320000000  0.4177920000000 1.0
C      1  0.4646350000000  0.5054440000000  0.4798000000000 1.0
C      1  0.5369470000000  0.5262920000000  0.5457460000000 1.0
C      1  0.5435470000000  0.5227990000000  0.4989590000000 1.0
C      1  0.4497290000000  0.4589200000000  0.4218220000000 1.0
C      1  0.4416090000000  0.4431410000000  0.4818920000000 1.0
C      1  0.4150560000000  0.4874630000000  0.4461950000000 1.0
C      1  0.5280360000000  0.5335170000000  0.4334150000000 1.0
C      1  0.5840400000000  0.5347180000000  0.5640350000000 1.0
C      1  0.5343580000000  0.4766160000000  0.5560920000000 1.0
C      1  0.4590280000000  0.4106200000000  0.4956450000000 1.0
C      1  0.4164050000000  0.5199580000000  0.5206570000000 1.0
C      1  0.4806110000000  0.4784600000000  0.5036380000000 1.0
C      1  0.5515460000000  0.4578420000000  0.5693880000000 1.0
C      1  0.5368380000000  0.4028780000000  0.4758400000000 1.0
C      1  0.4566260000000  0.4480930000000  0.5120660000000 1.0
C      1  0.4911430000000  0.3955270000000  0.5010220000000 1.0
C      1  0.4983920000000  0.4428420000000  0.4193850000000 1.0
C      1  0.4931130000000  0.5831340000000  0.4773910000000 1.0
C      1  0.4465320000000  0.5149180000000  0.5060460000000 1.0
C      1  0.5847680000000  0.4776770000000  0.4836030000000 1.0
C      1  0.5490600000000  0.4934150000000  0.4551120000000 1.0
C      1  0.5126700000000  0.4946970000000  0.3861180000000 1.0
C      1  0.4626200000000  0.4447160000000  0.6018050000000 1.0
C      1  0.4728530000000  0.5778830000000  0.5528800000000 1.0
C      1  0.5060260000000  0.5263720000000  0.3930370000000 1.0
C      1  0.5132630000000  0.4197880000000  0.4921600000000 1.0
C      1  0.5769610000000  0.5204400000000  0.5049220000000 1.0
C      1  0.4379290000000  0.5182690000000  0.4353840000000 1.0
C      1  0.5177450000000  0.4273650000000  0.5306810000000 1.0
C      1  0.4104160000000  0.4739720000000  0.5141950000000 1.0
C      1  0.5038850000000  0.4636300000000  0.5814990000000 1.0
C      1  0.4125210000000  0.4923970000000  0.5378390000000 1.0
C      1  0.4075160000000  0.5193090000000  0.4504980000000 1.0
C      1  0.4716130000000  0.4118230000000  0.4632230000000 1.0
C      1  0.3957120000000  0.5296040000000  0.5006760000000 1.0
C      1  0.4702020000000  0.4620580000000  0.5399620000000 1.0
C      1  0.5117930000000  0.5334820000000  0.5950250000000 1.0
C      1  0.4543240000000  0.5733910000000  0.4469570000000 1.0
C      1  0.4532520000000  0.5686380000000  0.5701450000000 1.0
C      1  0.4649670000000  0.5935200000000  0.5236830000000 1.0
C      1  0.4680960000000  0.5089790000000  0.5316690000000 1.0
C      1  0.5061070000000  0.4762330000000  0.4555660000000 1.0
C      1  0.5835610000000  0.4364930000000  0.4970390000000 1.0
C      1  0.4742960000000  0.4803710000000  0.5809910000000 1.0
C      1  0.5945160000000  0.5227530000000  0.5339780000000 1.0
C      1  0.4545680000000  0.4488970000000  0.4532630000000 1.0
C      1  0.4267220000000  0.5177650000000  0.4785210000000 1.0
C      1  0.4692090000000  0.4389720000000  0.4023620000000 1.0
C      1  0.5118080000000  0.6045320000000  0.5092550000000 1.0
C      1  0.4661090000000  0.5190110000000  0.4154750000000 1.0
C      1  0.5689610000000  0.5191950000000  0.4583760000000 1.0
C      1  0.4577470000000  0.4776390000000  0.4710780000000 1.0
C      1  0.4867600000000  0.5208300000000  0.4649980000000 1.0
C      1  0.5340910000000  0.4434370000000  0.5055460000000 1.0
C      1  0.4838260000000  0.4323970000000  0.4873860000000 1.0
C      1  0.4862160000000  0.5790970000000  0.4366270000000 1.0
C      1  0.5038000000000  0.4164210000000  0.4539930000000 1.0
C      1  0.3956720000000  0.5170810000000  0.5541220000000 1.0
C      1  0.4975720000000  0.5065010000000  0.5024610000000 1.0
C      1  0.4845140000000  0.4607170000000  0.4767820000000 1.0
C      1  0.5001190000000  0.5604380000000  0.5520980000000 1.0
C      1  0.5662290000000  0.5425010000000  0.4260560000000 1.0
C      1  0.5651940000000  0.4984040000000  0.5227010000000 1.0
C      1  0.5941170000000  0.4884550000000  0.5348740000000 1.0
C      1  0.4832970000000  0.4290540000000  0.5212360000000 1.0
C      1  0.5638250000000  0.4293940000000  0.5443320000000 1.0
C      1  0.5528500000000  0.4753220000000  0.4838700000000 1.0
C      1  0.5410910000000  0.4754310000000  0.5157850000000 1.0
C      1  0.4937760000000  0.5798530000000  0.5179420000000 1.0
C      1  0.4667450000000  0.5448870000000  0.4334880000000 1.0
C      1  0.5725780000000  0.5488670000000  0.5360410000000 1.0
C      1  0.5186340000000  0.5603060000000  0.5810920000000 1.0
C      1  0.5322730000000  0.5141410000000  0.5981490000000 1.0
C      1  0.4495110000000  0.4812900000000  0.5101720000000 1.0
C      1  0.5423570000000  0.5723960000000  0.4747230000000 1.0
C      1  0.5259000000000  0.5054550000000  0.5212460000000 1.0
C      1  0.4348910000000  0.5157450000000  0.5872250000000 1.0
C      1  0.4993290000000  0.5059670000000  0.5424980000000 1.0
C      1  0.5772080000000  0.5026520000000  0.5720500000000 1.0
C      1  0.5519850000000  0.5000000000000  0.5508770000000 1.0
C      1  0.4356830000000  0.4876110000000  0.5754090000000 1.0
C      1  0.5790680000000  0.4723030000000  0.5607350000000 1.0
C      1  0.4609480000000  0.5040010000000  0.6014740000000 1.0
C      1  0.4170390000000  0.4468840000000  0.5168540000000 1.0
C      1  0.4921600000000  0.5411460000000  0.5252390000000 1.0
END
