TITL C-2848505-4874-297 -0.0016751143274512 125000 -418.877212522739 0 0 76 (C1) n - 1
REM
REM in /home/bkarasulu/work/CARBON/AIRSS/Generating-Clusters/AIREBO/with-SteepDescent/Only-C1/SD-CG-opt/Try1-1.4A-POS3A/HFTN-CG
REM
REM
REM
REM
REM
REM ./C.cell (11c1c37f851c82e70ff6c80c92926a4b)
REM
REM compiler GCC version 9.2.1 20190827 (Red Hat 9.2.1-1)
REM options -cpp -mtune=generic -march=x86-64 -g -O0 -fpre-include=/usr/include/finclude/math-vector-fortran.h
REM seed 1530149103 -733416670 1697962707 1421822872 527879410 -1892885804 805892044 -1745047682 -161295302 1207408569 -1605802056 1494690578 -2011722371 -1293762320 867771529 -462826686 825824389 -1126745807 -1093054916 1007606081 -1306538834 -290258012 -1563892952 -742682494 -345997481 2023260453 770102079 -313324862 -2074328426 -2139164970 49993890 1921656659 254620602
REM
CELL 1.54180   50.00000   50.00000   50.00000   90.00000   90.00000   90.00000
LATT -1
SFAC C  
C      1  0.5268230000000  0.4050350000000  0.5266410000000 1.0
C      1  0.5347760000000  0.5634890000000  0.4731930000000 1.0
C      1  0.5216020000000  0.4752160000000  0.5070970000000 1.0
C      1  0.4738020000000  0.5011120000000  0.5407720000000 1.0
C      1  0.4312710000000  0.4549860000000  0.5183470000000 1.0
C      1  0.4436230000000  0.5112800000000  0.5882480000000 1.0
C      1  0.4655630000000  0.5605220000000  0.4367830000000 1.0
C      1  0.5322240000000  0.5172890000000  0.4390300000000 1.0
C      1  0.4869380000000  0.4573140000000  0.4720210000000 1.0
C      1  0.5244870000000  0.5342420000000  0.5748190000000 1.0
C      1  0.5448150000000  0.4895070000000  0.5553260000000 1.0
C      1  0.5023990000000  0.4994930000000  0.5516130000000 1.0
C      1  0.5050000000000  0.5302700000000  0.4651850000000 1.0
C      1  0.4461960000000  0.5662450000000  0.4851330000000 1.0
C      1  0.4687160000000  0.4317830000000  0.4852220000000 1.0
C      1  0.5304770000000  0.5266380000000  0.4874130000000 1.0
C      1  0.5015480000000  0.5296150000000  0.5606750000000 1.0
C      1  0.5295330000000  0.4990110000000  0.4676100000000 1.0
C      1  0.5023010000000  0.5150670000000  0.4355580000000 1.0
C      1  0.5754650000000  0.5206120000000  0.4797440000000 1.0
C      1  0.5913460000000  0.5215810000000  0.5031950000000 1.0
C      1  0.4657790000000  0.4250290000000  0.4287330000000 1.0
C      1  0.4768620000000  0.4571890000000  0.5579850000000 1.0
C      1  0.4409950000000  0.4602670000000  0.4892730000000 1.0
C      1  0.5000810000000  0.4213010000000  0.5342450000000 1.0
C      1  0.5413670000000  0.4509630000000  0.5881660000000 1.0
C      1  0.4966080000000  0.5620140000000  0.4424130000000 1.0
C      1  0.4239850000000  0.5081110000000  0.4561500000000 1.0
C      1  0.5402010000000  0.5433320000000  0.4317650000000 1.0
C      1  0.5020070000000  0.4708130000000  0.5646540000000 1.0
C      1  0.5250400000000  0.5633000000000  0.4459660000000 1.0
C      1  0.5643090000000  0.4895350000000  0.5288720000000 1.0
C      1  0.4844950000000  0.5101150000000  0.5097550000000 1.0
C      1  0.4605540000000  0.5360220000000  0.4911910000000 1.0
C      1  0.4571290000000  0.4343390000000  0.5156200000000 1.0
C      1  0.4836580000000  0.5502930000000  0.4707140000000 1.0
C      1  0.4973120000000  0.5024130000000  0.4799540000000 1.0
C      1  0.4901620000000  0.4793950000000  0.5114400000000 1.0
C      1  0.4851300000000  0.5760150000000  0.5304660000000 1.0
C      1  0.5414600000000  0.4665910000000  0.4275220000000 1.0
C      1  0.4469170000000  0.5486010000000  0.4560520000000 1.0
C      1  0.4533630000000  0.5158110000000  0.4647760000000 1.0
C      1  0.4893730000000  0.4907610000000  0.4340360000000 1.0
C      1  0.5129350000000  0.5616840000000  0.4951010000000 1.0
C      1  0.4731700000000  0.4878540000000  0.4621610000000 1.0
C      1  0.5608160000000  0.4680500000000  0.4554430000000 1.0
C      1  0.4885300000000  0.5423020000000  0.5094820000000 1.0
C      1  0.4830790000000  0.5458540000000  0.5422170000000 1.0
C      1  0.5517990000000  0.4824350000000  0.5049440000000 1.0
C      1  0.5296760000000  0.4681880000000  0.5706050000000 1.0
C      1  0.4867100000000  0.5786790000000  0.4848440000000 1.0
C      1  0.4557680000000  0.4771730000000  0.5525650000000 1.0
C      1  0.5617380000000  0.4922420000000  0.4761610000000 1.0
C      1  0.5302900000000  0.5327770000000  0.5188930000000 1.0
C      1  0.5142540000000  0.4268220000000  0.5061190000000 1.0
C      1  0.5778170000000  0.5152590000000  0.5271820000000 1.0
C      1  0.5433910000000  0.4161000000000  0.4609310000000 1.0
C      1  0.5078860000000  0.4696490000000  0.4245140000000 1.0
C      1  0.4527240000000  0.5153410000000  0.5633840000000 1.0
C      1  0.5162300000000  0.5625150000000  0.5276930000000 1.0
C      1  0.5383230000000  0.4450460000000  0.4665310000000 1.0
C      1  0.5473490000000  0.5214180000000  0.5642060000000 1.0
C      1  0.4444790000000  0.5246720000000  0.5178470000000 1.0
C      1  0.4541630000000  0.5356970000000  0.5420050000000 1.0
C      1  0.4329500000000  0.4771130000000  0.5351660000000 1.0
C      1  0.4771220000000  0.4347990000000  0.5401600000000 1.0
C      1  0.4682230000000  0.4644700000000  0.5065610000000 1.0
C      1  0.5213980000000  0.4712030000000  0.4545320000000 1.0
C      1  0.4676730000000  0.5810530000000  0.5071400000000 1.0
C      1  0.5258900000000  0.5006380000000  0.5293580000000 1.0
C      1  0.4271730000000  0.5026710000000  0.5229930000000 1.0
C      1  0.5562550000000  0.5414330000000  0.4766980000000 1.0
C      1  0.5144890000000  0.4509180000000  0.4880560000000 1.0
C      1  0.4488320000000  0.4641190000000  0.4628410000000 1.0
C      1  0.4669760000000  0.4383600000000  0.4520530000000 1.0
C      1  0.5561970000000  0.5309490000000  0.5382420000000 1.0
END
