TITL C-2847953-8112-450 -0.00117698661248251 125000 -657.276392045407 0 0 121 (C1) n - 1
REM
REM in /home/bkarasulu/work/CARBON/AIRSS/Generating-Clusters/AIREBO/with-SteepDescent/Only-C1/SD-CG-opt/Try1-1.4A-POS3A/HFTN-CG
REM
REM
REM
REM
REM
REM ./C.cell (11c1c37f851c82e70ff6c80c92926a4b)
REM
REM compiler GCC version 9.2.1 20190827 (Red Hat 9.2.1-1)
REM options -cpp -mtune=generic -march=x86-64 -g -O0 -fpre-include=/usr/include/finclude/math-vector-fortran.h
REM seed -1938038610 -1050159947 -1831015410 -316974207 164497235 -1323423126 1424005685 1991913227 -335777349 -527160488 -246687320 1959659152 -1672125479 -322942094 80210422 1223388386 -1914655990 1857531831 1797017285 52508341 1447524523 1146596877 -1455146789 50683220 685258003 -1768729148 2033212427 -708247906 -1910133667 -1508000029 210630828 -29011897 -1381890616
REM
CELL 1.54180   50.00000   50.00000   50.00000   90.00000   90.00000   90.00000
LATT -1
SFAC C  
C      1  0.4174780000000  0.4788960000000  0.4342850000000 1.0
C      1  0.5142810000000  0.4792040000000  0.3822390000000 1.0
C      1  0.5907720000000  0.4994170000000  0.5163930000000 1.0
C      1  0.5159950000000  0.5310510000000  0.5217600000000 1.0
C      1  0.5008230000000  0.5876570000000  0.4943420000000 1.0
C      1  0.4925860000000  0.4952470000000  0.4495190000000 1.0
C      1  0.4714980000000  0.4875720000000  0.5942060000000 1.0
C      1  0.4257470000000  0.5083870000000  0.5487130000000 1.0
C      1  0.5100590000000  0.4430410000000  0.5300810000000 1.0
C      1  0.5069540000000  0.5542210000000  0.5369320000000 1.0
C      1  0.4776610000000  0.5862520000000  0.5191940000000 1.0
C      1  0.4922520000000  0.4837090000000  0.5023650000000 1.0
C      1  0.4630600000000  0.5175810000000  0.4236230000000 1.0
C      1  0.5883670000000  0.4834750000000  0.4435500000000 1.0
C      1  0.4466190000000  0.4428930000000  0.4999770000000 1.0
C      1  0.5439940000000  0.5726440000000  0.4540680000000 1.0
C      1  0.4761070000000  0.5586040000000  0.5373930000000 1.0
C      1  0.4411090000000  0.4460330000000  0.4668320000000 1.0
C      1  0.5717610000000  0.5115540000000  0.4395600000000 1.0
C      1  0.5254200000000  0.4340920000000  0.5785840000000 1.0
C      1  0.5172960000000  0.5506760000000  0.5667320000000 1.0
C      1  0.5626460000000  0.4977910000000  0.4971370000000 1.0
C      1  0.5139770000000  0.4879470000000  0.5747300000000 1.0
C      1  0.5541490000000  0.5803930000000  0.4829060000000 1.0
C      1  0.5085350000000  0.5214470000000  0.5776740000000 1.0
C      1  0.4135210000000  0.4857020000000  0.4818960000000 1.0
C      1  0.4117530000000  0.4965190000000  0.4562660000000 1.0
C      1  0.4710000000000  0.4611570000000  0.4883590000000 1.0
C      1  0.5640160000000  0.4445040000000  0.4692280000000 1.0
C      1  0.4784290000000  0.4065590000000  0.4832950000000 1.0
C      1  0.4806900000000  0.4701330000000  0.5313390000000 1.0
C      1  0.4947330000000  0.4720260000000  0.5960020000000 1.0
C      1  0.5496230000000  0.5508010000000  0.4970330000000 1.0
C      1  0.5409490000000  0.4776530000000  0.5928750000000 1.0
C      1  0.5882740000000  0.5358550000000  0.4553990000000 1.0
C      1  0.4695270000000  0.4521660000000  0.4349120000000 1.0
C      1  0.4962460000000  0.5397780000000  0.4238900000000 1.0
C      1  0.4303680000000  0.4513250000000  0.5239750000000 1.0
C      1  0.4549630000000  0.4915400000000  0.5530390000000 1.0
C      1  0.5499320000000  0.4954540000000  0.5349610000000 1.0
C      1  0.5025640000000  0.4848360000000  0.4068470000000 1.0
C      1  0.4314090000000  0.5316700000000  0.5271610000000 1.0
C      1  0.4227800000000  0.5488910000000  0.4561700000000 1.0
C      1  0.6159320000000  0.4954410000000  0.5144250000000 1.0
C      1  0.4861790000000  0.5093690000000  0.5358750000000 1.0
C      1  0.4320540000000  0.5773930000000  0.4984180000000 1.0
C      1  0.4792980000000  0.5070670000000  0.5681060000000 1.0
C      1  0.4379220000000  0.4613740000000  0.4284740000000 1.0
C      1  0.5015480000000  0.4621020000000  0.4291760000000 1.0
C      1  0.4644880000000  0.5495210000000  0.4311480000000 1.0
C      1  0.4360160000000  0.4655310000000  0.5765490000000 1.0
C      1  0.5577360000000  0.5421970000000  0.4461990000000 1.0
C      1  0.4211090000000  0.4860380000000  0.5735620000000 1.0
C      1  0.5691400000000  0.5198660000000  0.5324490000000 1.0
C      1  0.4770560000000  0.5025770000000  0.4059360000000 1.0
C      1  0.5711620000000  0.5304740000000  0.5010950000000 1.0
C      1  0.5143970000000  0.4127540000000  0.5152220000000 1.0
C      1  0.3914680000000  0.5103770000000  0.5157920000000 1.0
C      1  0.4240320000000  0.5229650000000  0.4535940000000 1.0
C      1  0.5211970000000  0.4968610000000  0.4310810000000 1.0
C      1  0.5945480000000  0.5364010000000  0.4819760000000 1.0
C      1  0.5239280000000  0.5108440000000  0.4684570000000 1.0
C      1  0.5234930000000  0.4760530000000  0.5043060000000 1.0
C      1  0.5170480000000  0.4457160000000  0.4774400000000 1.0
C      1  0.4671200000000  0.5647270000000  0.5696310000000 1.0
C      1  0.5577970000000  0.5115030000000  0.5799190000000 1.0
C      1  0.5563980000000  0.5750470000000  0.5455050000000 1.0
C      1  0.4610450000000  0.5940670000000  0.4581310000000 1.0
C      1  0.5177550000000  0.4986170000000  0.5291230000000 1.0
C      1  0.4149320000000  0.4586500000000  0.4816700000000 1.0
C      1  0.4656360000000  0.4074710000000  0.5297990000000 1.0
C      1  0.5447310000000  0.4506250000000  0.4965640000000 1.0
C      1  0.5292130000000  0.4423860000000  0.4305820000000 1.0
C      1  0.5013960000000  0.4179040000000  0.4666240000000 1.0
C      1  0.5170990000000  0.5811720000000  0.5211770000000 1.0
C      1  0.4506280000000  0.5152370000000  0.4964850000000 1.0
C      1  0.5551450000000  0.4580040000000  0.5475480000000 1.0
C      1  0.5126490000000  0.4709170000000  0.4600920000000 1.0
C      1  0.5458240000000  0.4232470000000  0.5148170000000 1.0
C      1  0.4601020000000  0.4732680000000  0.4594010000000 1.0
C      1  0.5668740000000  0.4087800000000  0.5201950000000 1.0
C      1  0.5487360000000  0.4880630000000  0.4430400000000 1.0
C      1  0.5879130000000  0.4624050000000  0.4567110000000 1.0
C      1  0.4212180000000  0.5578290000000  0.5136840000000 1.0
C      1  0.5357070000000  0.5171450000000  0.5950960000000 1.0
C      1  0.5485310000000  0.5546350000000  0.5618630000000 1.0
C      1  0.5088740000000  0.4723140000000  0.5473730000000 1.0
C      1  0.4537400000000  0.4180040000000  0.4791870000000 1.0
C      1  0.4515140000000  0.4301010000000  0.5374740000000 1.0
C      1  0.4960790000000  0.4442870000000  0.5000060000000 1.0
C      1  0.4978910000000  0.5920730000000  0.5461160000000 1.0
C      1  0.5640740000000  0.5314930000000  0.5608200000000 1.0
C      1  0.4640820000000  0.5331540000000  0.5256450000000 1.0
C      1  0.5510120000000  0.4563630000000  0.4426800000000 1.0
C      1  0.5012280000000  0.5136660000000  0.4889350000000 1.0
C      1  0.4648570000000  0.4954990000000  0.5146300000000 1.0
C      1  0.4209300000000  0.5045940000000  0.5092090000000 1.0
C      1  0.4956020000000  0.4300680000000  0.4389330000000 1.0
C      1  0.5148800000000  0.5806230000000  0.4639010000000 1.0
C      1  0.5516110000000  0.4153540000000  0.4760580000000 1.0
C      1  0.4574550000000  0.4576330000000  0.5523150000000 1.0
C      1  0.4856940000000  0.4019580000000  0.5102180000000 1.0
C      1  0.4488890000000  0.5728310000000  0.4379830000000 1.0
C      1  0.4494220000000  0.5944290000000  0.5106600000000 1.0
C      1  0.5396140000000  0.4846480000000  0.4756240000000 1.0
C      1  0.5503010000000  0.5646760000000  0.4217960000000 1.0
C      1  0.5549730000000  0.4847440000000  0.5641730000000 1.0
C      1  0.5330540000000  0.4409080000000  0.5521110000000 1.0
C      1  0.5201580000000  0.4553560000000  0.5968490000000 1.0
C      1  0.4501300000000  0.5037340000000  0.4480570000000 1.0
C      1  0.4344170000000  0.5762200000000  0.4687590000000 1.0
C      1  0.4314970000000  0.4802640000000  0.5304900000000 1.0
C      1  0.4862930000000  0.5986580000000  0.4666710000000 1.0
C      1  0.5470650000000  0.5783030000000  0.5159300000000 1.0
C      1  0.5264300000000  0.4074900000000  0.4838420000000 1.0
C      1  0.5636420000000  0.4701770000000  0.5169650000000 1.0
C      1  0.5037420000000  0.5534230000000  0.4738670000000 1.0
C      1  0.4848740000000  0.5399240000000  0.4560250000000 1.0
C      1  0.4731110000000  0.5130570000000  0.4709630000000 1.0
C      1  0.4948920000000  0.5748640000000  0.5687430000000 1.0
C      1  0.5218530000000  0.5401330000000  0.4946150000000 1.0
END
