TITL C-2847959-7740-290 0.000686225418029746 125000 -358.432548202419 0 0 67 (C1) n - 1
REM
REM in /home/bkarasulu/work/CARBON/AIRSS/Generating-Clusters/AIREBO/with-SteepDescent/Only-C1/SD-CG-opt/Try1-1.4A-POS3A/HFTN-CG
REM
REM
REM
REM
REM
REM ./C.cell (11c1c37f851c82e70ff6c80c92926a4b)
REM
REM compiler GCC version 9.2.1 20190827 (Red Hat 9.2.1-1)
REM options -cpp -mtune=generic -march=x86-64 -g -O0 -fpre-include=/usr/include/finclude/math-vector-fortran.h
REM seed -152850738 39575816 -48872409 1520144223 -530266512 -197947769 -1443171979 85416411 783937148 1776323600 1298567799 -2142979551 223020074 140054779 -1954366192 1562973487 289815655 -1910109335 919924317 -842190585 -100342910 -1111417328 -862421742 -567581277 127295695 -1110832209 279017647 -490945903 1807690017 -527223689 736353786 644690738 -1263214203
REM
CELL 1.54180   50.00000   50.00000   50.00000   90.00000   90.00000   90.00000
LATT -1
SFAC C  
C      1  0.4627200000000  0.4893470000000  0.4314350000000 1.0
C      1  0.4745810000000  0.4290650000000  0.4734210000000 1.0
C      1  0.5572570000000  0.5628430000000  0.4847310000000 1.0
C      1  0.4405380000000  0.4873040000000  0.5365870000000 1.0
C      1  0.5249830000000  0.4166260000000  0.5197820000000 1.0
C      1  0.4416550000000  0.4651360000000  0.4931700000000 1.0
C      1  0.4984140000000  0.5727280000000  0.4773440000000 1.0
C      1  0.4698040000000  0.5046420000000  0.4597250000000 1.0
C      1  0.5266070000000  0.5680470000000  0.5474090000000 1.0
C      1  0.4618730000000  0.5184070000000  0.5494970000000 1.0
C      1  0.4443450000000  0.5512120000000  0.5354010000000 1.0
C      1  0.4970470000000  0.5201640000000  0.4465160000000 1.0
C      1  0.5511050000000  0.5335810000000  0.5168900000000 1.0
C      1  0.4756770000000  0.5040680000000  0.5219220000000 1.0
C      1  0.5056130000000  0.5567920000000  0.5046090000000 1.0
C      1  0.4761180000000  0.5602430000000  0.5444790000000 1.0
C      1  0.5660620000000  0.4710940000000  0.4941520000000 1.0
C      1  0.4707070000000  0.4924690000000  0.4903340000000 1.0
C      1  0.5107450000000  0.5265270000000  0.4762100000000 1.0
C      1  0.4878450000000  0.4783300000000  0.4226430000000 1.0
C      1  0.4585130000000  0.5411400000000  0.4814630000000 1.0
C      1  0.4988860000000  0.4589580000000  0.4639760000000 1.0
C      1  0.4827020000000  0.5326900000000  0.5049190000000 1.0
C      1  0.5006040000000  0.5304820000000  0.5338610000000 1.0
C      1  0.5758740000000  0.5150560000000  0.5098390000000 1.0
C      1  0.5535530000000  0.5004350000000  0.4887440000000 1.0
C      1  0.5051050000000  0.5091500000000  0.5658810000000 1.0
C      1  0.4700010000000  0.5680890000000  0.4909130000000 1.0
C      1  0.4856850000000  0.5356920000000  0.5639720000000 1.0
C      1  0.4916580000000  0.4408040000000  0.5451200000000 1.0
C      1  0.5477860000000  0.4867230000000  0.5453990000000 1.0
C      1  0.5669430000000  0.5305490000000  0.4803360000000 1.0
C      1  0.5326230000000  0.5449970000000  0.4947160000000 1.0
C      1  0.4935900000000  0.4529920000000  0.4349870000000 1.0
C      1  0.4694450000000  0.4605590000000  0.4788980000000 1.0
C      1  0.4534400000000  0.4020110000000  0.5095310000000 1.0
C      1  0.4417840000000  0.5127750000000  0.4416100000000 1.0
C      1  0.5435630000000  0.5382210000000  0.4568650000000 1.0
C      1  0.4768730000000  0.5431960000000  0.4371940000000 1.0
C      1  0.5412860000000  0.5451920000000  0.5467570000000 1.0
C      1  0.5364220000000  0.4388740000000  0.5096740000000 1.0
C      1  0.4978880000000  0.4187290000000  0.5260490000000 1.0
C      1  0.4741350000000  0.4199930000000  0.5038430000000 1.0
C      1  0.5030000000000  0.5004450000000  0.4889230000000 1.0
C      1  0.4473470000000  0.5163930000000  0.4964220000000 1.0
C      1  0.4612560000000  0.5730630000000  0.5168890000000 1.0
C      1  0.4389070000000  0.5192620000000  0.5250860000000 1.0
C      1  0.5519230000000  0.4614500000000  0.5233410000000 1.0
C      1  0.4824770000000  0.4267590000000  0.4469810000000 1.0
C      1  0.4465340000000  0.4645650000000  0.5209320000000 1.0
C      1  0.5083830000000  0.4977790000000  0.4286210000000 1.0
C      1  0.4867340000000  0.4875880000000  0.5502420000000 1.0
C      1  0.5302000000000  0.5139670000000  0.5351730000000 1.0
C      1  0.5220230000000  0.4490920000000  0.4821440000000 1.0
C      1  0.5750670000000  0.4863410000000  0.5251030000000 1.0
C      1  0.5039230000000  0.5701450000000  0.5321310000000 1.0
C      1  0.5542320000000  0.4515800000000  0.4762790000000 1.0
C      1  0.4530400000000  0.5397580000000  0.4513410000000 1.0
C      1  0.5468230000000  0.5068110000000  0.4555910000000 1.0
C      1  0.4777600000000  0.4516710000000  0.5169010000000 1.0
C      1  0.4559800000000  0.4878460000000  0.5632240000000 1.0
C      1  0.5177200000000  0.5551070000000  0.4591640000000 1.0
C      1  0.5032000000000  0.4691240000000  0.5021720000000 1.0
C      1  0.5230040000000  0.4846710000000  0.5664630000000 1.0
C      1  0.5059860000000  0.4616300000000  0.5555170000000 1.0
C      1  0.5359310000000  0.4947600000000  0.4328440000000 1.0
C      1  0.5264990000000  0.4942620000000  0.5077120000000 1.0
END
