TITL C-2848496-4490-524 0.00360791381894591 125000 -988.178752262486 0 0 181 (C1) n - 1
REM
REM in /home/bkarasulu/work/CARBON/AIRSS/Generating-Clusters/AIREBO/with-SteepDescent/Only-C1/SD-CG-opt/Try1-1.4A-POS3A/HFTN-CG
REM
REM
REM
REM
REM
REM ./C.cell (11c1c37f851c82e70ff6c80c92926a4b)
REM
REM compiler GCC version 9.2.1 20190827 (Red Hat 9.2.1-1)
REM options -cpp -mtune=generic -march=x86-64 -g -O0 -fpre-include=/usr/include/finclude/math-vector-fortran.h
REM seed -1514040266 -1275618691 1237943796 -1230880294 -1934497253 -1456691801 1904803272 -684870471 97901469 1468924558 -1073710941 -654660040 -1094239235 1173315504 1657246948 1743836416 -663055998 1260969555 577406817 1325401468 1318318172 1835293275 -1314440361 -1095974403 -2085617080 1077895906 -1836822923 28313394 833270368 -1708494310 139175176 -968482038 -1818218103
REM
CELL 1.54180   50.00000   50.00000   50.00000   90.00000   90.00000   90.00000
LATT -1
SFAC C  
C      1  0.5703000000000  0.5815110000000  0.5244060000000 1.0
C      1  0.4775880000000  0.4232500000000  0.4267450000000 1.0
C      1  0.4410700000000  0.4609880000000  0.4145110000000 1.0
C      1  0.5878590000000  0.5576110000000  0.5220320000000 1.0
C      1  0.4738710000000  0.4608150000000  0.5640380000000 1.0
C      1  0.5595590000000  0.4370570000000  0.4890240000000 1.0
C      1  0.4502270000000  0.5602550000000  0.4216470000000 1.0
C      1  0.4067930000000  0.4511900000000  0.5447140000000 1.0
C      1  0.5219150000000  0.5931440000000  0.5059080000000 1.0
C      1  0.4672270000000  0.5571240000000  0.4496870000000 1.0
C      1  0.3911430000000  0.5270300000000  0.5268460000000 1.0
C      1  0.4716090000000  0.4394270000000  0.5976570000000 1.0
C      1  0.4925640000000  0.5949820000000  0.4614840000000 1.0
C      1  0.5371560000000  0.4168700000000  0.5409980000000 1.0
C      1  0.5386960000000  0.5266870000000  0.4468040000000 1.0
C      1  0.4574540000000  0.5159860000000  0.5531790000000 1.0
C      1  0.4690920000000  0.5537780000000  0.4010520000000 1.0
C      1  0.5466090000000  0.4588330000000  0.4558530000000 1.0
C      1  0.5908120000000  0.5468700000000  0.4680720000000 1.0
C      1  0.4418960000000  0.4726810000000  0.5363430000000 1.0
C      1  0.5176760000000  0.5441920000000  0.4634530000000 1.0
C      1  0.5696550000000  0.5371290000000  0.5379310000000 1.0
C      1  0.5853570000000  0.4853550000000  0.5709720000000 1.0
C      1  0.4694370000000  0.4514990000000  0.4267270000000 1.0
C      1  0.5650650000000  0.4300140000000  0.5277490000000 1.0
C      1  0.5479140000000  0.6006730000000  0.4976460000000 1.0
C      1  0.4122910000000  0.5173250000000  0.4614490000000 1.0
C      1  0.5295550000000  0.5064280000000  0.5308990000000 1.0
C      1  0.6024200000000  0.5473460000000  0.5006300000000 1.0
C      1  0.5108030000000  0.5506540000000  0.5556820000000 1.0
C      1  0.5241480000000  0.5631590000000  0.5203480000000 1.0
C      1  0.4154300000000  0.5041380000000  0.5309230000000 1.0
C      1  0.4971270000000  0.4853750000000  0.5407610000000 1.0
C      1  0.5941090000000  0.4698480000000  0.5277920000000 1.0
C      1  0.4511810000000  0.5069000000000  0.4212680000000 1.0
C      1  0.5654650000000  0.5398490000000  0.4879630000000 1.0
C      1  0.5718740000000  0.4809450000000  0.5943270000000 1.0
C      1  0.4790880000000  0.4589540000000  0.5321240000000 1.0
C      1  0.5562560000000  0.4861150000000  0.4146530000000 1.0
C      1  0.4904840000000  0.5939570000000  0.5203480000000 1.0
C      1  0.4333180000000  0.4040750000000  0.4981080000000 1.0
C      1  0.5308810000000  0.4111130000000  0.4381820000000 1.0
C      1  0.4071050000000  0.4677870000000  0.4688500000000 1.0
C      1  0.4736300000000  0.3809170000000  0.5211200000000 1.0
C      1  0.4343880000000  0.4397240000000  0.5609480000000 1.0
C      1  0.5894730000000  0.4425510000000  0.5158410000000 1.0
C      1  0.5655440000000  0.5475260000000  0.4452630000000 1.0
C      1  0.5053360000000  0.5821330000000  0.5673320000000 1.0
C      1  0.5424030000000  0.4916800000000  0.5930320000000 1.0
C      1  0.5287310000000  0.4495640000000  0.5681480000000 1.0
C      1  0.4201000000000  0.4697510000000  0.5689870000000 1.0
C      1  0.5267590000000  0.5406270000000  0.5909480000000 1.0
C      1  0.4544650000000  0.4233450000000  0.5389100000000 1.0
C      1  0.5308130000000  0.5499110000000  0.4000260000000 1.0
C      1  0.5784260000000  0.5105500000000  0.4371730000000 1.0
C      1  0.4639570000000  0.4843430000000  0.4051880000000 1.0
C      1  0.5171440000000  0.4310960000000  0.5221210000000 1.0
C      1  0.5571880000000  0.5816580000000  0.4642430000000 1.0
C      1  0.4137060000000  0.4989880000000  0.5622970000000 1.0
C      1  0.4943460000000  0.4881120000000  0.3899390000000 1.0
C      1  0.5376150000000  0.5785960000000  0.5652510000000 1.0
C      1  0.5015250000000  0.5228950000000  0.6063900000000 1.0
C      1  0.5093830000000  0.4771960000000  0.5709990000000 1.0
C      1  0.5405000000000  0.4270840000000  0.4628970000000 1.0
C      1  0.5140430000000  0.5136190000000  0.4008000000000 1.0
C      1  0.4757260000000  0.5039500000000  0.6034650000000 1.0
C      1  0.5946460000000  0.4711320000000  0.4555310000000 1.0
C      1  0.5176560000000  0.5213450000000  0.5658100000000 1.0
C      1  0.5060810000000  0.5757610000000  0.4849610000000 1.0
C      1  0.4655590000000  0.5589570000000  0.5980090000000 1.0
C      1  0.5164130000000  0.4636360000000  0.4990610000000 1.0
C      1  0.4249810000000  0.5704970000000  0.4425310000000 1.0
C      1  0.5189560000000  0.4940820000000  0.4829920000000 1.0
C      1  0.4325310000000  0.5219060000000  0.5755470000000 1.0
C      1  0.4666870000000  0.4294450000000  0.4793280000000 1.0
C      1  0.4979350000000  0.3962460000000  0.5214820000000 1.0
C      1  0.4829030000000  0.4773850000000  0.5923260000000 1.0
C      1  0.4890770000000  0.5363340000000  0.4618470000000 1.0
C      1  0.4145810000000  0.5553250000000  0.5423400000000 1.0
C      1  0.4506090000000  0.4843860000000  0.5655260000000 1.0
C      1  0.4631670000000  0.4653790000000  0.5039570000000 1.0
C      1  0.5302010000000  0.4030880000000  0.5649910000000 1.0
C      1  0.5047590000000  0.5666190000000  0.4132500000000 1.0
C      1  0.4202740000000  0.4642250000000  0.4376890000000 1.0
C      1  0.6438260000000  0.5315020000000  0.4654790000000 1.0
C      1  0.4417050000000  0.4462360000000  0.5210870000000 1.0
C      1  0.4769360000000  0.5658760000000  0.5689580000000 1.0
C      1  0.5471030000000  0.4536800000000  0.5430340000000 1.0
C      1  0.4668310000000  0.5281800000000  0.5097990000000 1.0
C      1  0.4851290000000  0.5148180000000  0.4872850000000 1.0
C      1  0.5443140000000  0.4453420000000  0.5972900000000 1.0
C      1  0.4702590000000  0.4708450000000  0.4528190000000 1.0
C      1  0.5136300000000  0.4126240000000  0.5818990000000 1.0
C      1  0.4928630000000  0.4744030000000  0.4201060000000 1.0
C      1  0.3890790000000  0.5279030000000  0.4945630000000 1.0
C      1  0.4836150000000  0.6081330000000  0.4901870000000 1.0
C      1  0.5037970000000  0.4995110000000  0.5112640000000 1.0
C      1  0.4845490000000  0.5543460000000  0.4971920000000 1.0
C      1  0.4994820000000  0.6069830000000  0.5492180000000 1.0
C      1  0.4400540000000  0.5178410000000  0.4764510000000 1.0
C      1  0.5073650000000  0.4208030000000  0.4264200000000 1.0
C      1  0.4915180000000  0.5612750000000  0.5297460000000 1.0
C      1  0.4477430000000  0.4078650000000  0.4737570000000 1.0
C      1  0.5338040000000  0.4740830000000  0.5213170000000 1.0
C      1  0.5239610000000  0.4705640000000  0.4333130000000 1.0
C      1  0.4927700000000  0.4218460000000  0.4635130000000 1.0
C      1  0.4022230000000  0.4495870000000  0.5167640000000 1.0
C      1  0.6110140000000  0.4854330000000  0.5079830000000 1.0
C      1  0.4503010000000  0.5145860000000  0.6009380000000 1.0
C      1  0.4295530000000  0.4990570000000  0.4427610000000 1.0
C      1  0.4427480000000  0.5436580000000  0.4943100000000 1.0
C      1  0.5418270000000  0.4979940000000  0.5605080000000 1.0
C      1  0.5220940000000  0.3952710000000  0.5056860000000 1.0
C      1  0.4863520000000  0.5795890000000  0.4383180000000 1.0
C      1  0.4480910000000  0.4313460000000  0.5882910000000 1.0
C      1  0.5192360000000  0.3797080000000  0.4600460000000 1.0
C      1  0.5263480000000  0.5422940000000  0.4935910000000 1.0
C      1  0.4668880000000  0.5037370000000  0.4607520000000 1.0
C      1  0.4871850000000  0.4271670000000  0.5307140000000 1.0
C      1  0.6155890000000  0.5239160000000  0.4719890000000 1.0
C      1  0.3860210000000  0.4945990000000  0.5180150000000 1.0
C      1  0.5334750000000  0.5148300000000  0.6099070000000 1.0
C      1  0.4211080000000  0.5446530000000  0.4205380000000 1.0
C      1  0.4024430000000  0.5459100000000  0.4489280000000 1.0
C      1  0.5655580000000  0.5176950000000  0.4125090000000 1.0
C      1  0.3974780000000  0.5499480000000  0.4802560000000 1.0
C      1  0.4864120000000  0.4539260000000  0.4863450000000 1.0
C      1  0.5310590000000  0.5037830000000  0.4291110000000 1.0
C      1  0.5950970000000  0.4625230000000  0.4885350000000 1.0
C      1  0.4842850000000  0.5362790000000  0.5819090000000 1.0
C      1  0.4139070000000  0.5721050000000  0.4885160000000 1.0
C      1  0.4183250000000  0.4269500000000  0.5067450000000 1.0
C      1  0.4273260000000  0.5199710000000  0.4087820000000 1.0
C      1  0.4764630000000  0.5217010000000  0.4338620000000 1.0
C      1  0.4923000000000  0.5350700000000  0.4107650000000 1.0
C      1  0.4484980000000  0.5028260000000  0.5231200000000 1.0
C      1  0.5675230000000  0.4981950000000  0.4667900000000 1.0
C      1  0.4973730000000  0.4397780000000  0.5770230000000 1.0
C      1  0.5494560000000  0.4092600000000  0.5057960000000 1.0
C      1  0.4666370000000  0.5812210000000  0.4909080000000 1.0
C      1  0.5690360000000  0.5450410000000  0.5682270000000 1.0
C      1  0.4886770000000  0.5097460000000  0.5611010000000 1.0
C      1  0.5570520000000  0.5781650000000  0.4332780000000 1.0
C      1  0.5262450000000  0.5334490000000  0.3761400000000 1.0
C      1  0.4455590000000  0.4901600000000  0.4916980000000 1.0
C      1  0.5036100000000  0.4469950000000  0.4470000000000 1.0
C      1  0.6058140000000  0.5139400000000  0.5029920000000 1.0
C      1  0.5662470000000  0.4817840000000  0.5432250000000 1.0
C      1  0.5603540000000  0.4908010000000  0.5107890000000 1.0
C      1  0.5774290000000  0.4667160000000  0.4318960000000 1.0
C      1  0.5204560000000  0.4683330000000  0.6019850000000 1.0
C      1  0.3912120000000  0.5014460000000  0.4796550000000 1.0
C      1  0.5626160000000  0.4706650000000  0.4834270000000 1.0
C      1  0.4574970000000  0.6012340000000  0.5242230000000 1.0
C      1  0.5652610000000  0.4400610000000  0.4344950000000 1.0
C      1  0.5272230000000  0.5821850000000  0.4277880000000 1.0
C      1  0.5533450000000  0.5436050000000  0.4137640000000 1.0
C      1  0.4634840000000  0.4068640000000  0.4469330000000 1.0
C      1  0.5675950000000  0.5736020000000  0.4916060000000 1.0
C      1  0.4381900000000  0.5549930000000  0.5260790000000 1.0
C      1  0.4930370000000  0.4556370000000  0.6148290000000 1.0
C      1  0.4401880000000  0.4742080000000  0.4633910000000 1.0
C      1  0.5464940000000  0.5786450000000  0.5389320000000 1.0
C      1  0.5205220000000  0.4317460000000  0.4900140000000 1.0
C      1  0.5344300000000  0.4539990000000  0.4058620000000 1.0
C      1  0.5691410000000  0.4542530000000  0.6035470000000 1.0
C      1  0.4629200000000  0.5486200000000  0.5438120000000 1.0
C      1  0.5478830000000  0.5578830000000  0.5802230000000 1.0
C      1  0.5399570000000  0.5332590000000  0.5239510000000 1.0
C      1  0.5129020000000  0.4016090000000  0.4761690000000 1.0
C      1  0.5285970000000  0.4834240000000  0.3950360000000 1.0
C      1  0.5747260000000  0.5193070000000  0.5099420000000 1.0
C      1  0.4385550000000  0.5808830000000  0.5081220000000 1.0
C      1  0.6003410000000  0.5019740000000  0.4586430000000 1.0
C      1  0.4049090000000  0.5315110000000  0.5577060000000 1.0
C      1  0.5003250000000  0.4756890000000  0.4649420000000 1.0
C      1  0.4502050000000  0.3969860000000  0.5207350000000 1.0
C      1  0.5426260000000  0.5166630000000  0.4780890000000 1.0
C      1  0.5264010000000  0.5742710000000  0.4585590000000 1.0
C      1  0.3922460000000  0.4718400000000  0.4965040000000 1.0
C      1  0.4438680000000  0.5681040000000  0.4707010000000 1.0
END
