TITL C-2848507-1641-296 0.0060663267322511 125000 -593.471331083678 0 0 112 (C1) n - 1
REM
REM in /home/bkarasulu/work/CARBON/AIRSS/Generating-Clusters/AIREBO/with-SteepDescent/Only-C1/SD-CG-opt/Try1-1.4A-POS3A/HFTN-CG
REM
REM
REM
REM
REM
REM ./C.cell (11c1c37f851c82e70ff6c80c92926a4b)
REM
REM compiler GCC version 9.2.1 20190827 (Red Hat 9.2.1-1)
REM options -cpp -mtune=generic -march=x86-64 -g -O0 -fpre-include=/usr/include/finclude/math-vector-fortran.h
REM seed -1683348846 -653721265 902609593 1420213261 -1233465817 -1939498298 732576508 270387030 -1449086719 1809336115 883941285 -845691321 -1191579277 -590391577 -283652527 -1375074846 -1959881449 -2011212683 539902834 819217047 1357361495 -489011687 1509761768 2072709098 1782699785 1500118000 919095969 -618999505 -325213199 -2139709367 1614270987 -1408359646 1859162642
REM
CELL 1.54180   50.00000   50.00000   50.00000   90.00000   90.00000   90.00000
LATT -1
SFAC C  
C      1  0.5565980000000  0.4823830000000  0.5758390000000 1.0
C      1  0.5387290000000  0.4366920000000  0.5553140000000 1.0
C      1  0.5349710000000  0.4825270000000  0.5212460000000 1.0
C      1  0.5020930000000  0.4510540000000  0.5420800000000 1.0
C      1  0.4816590000000  0.4218320000000  0.4757350000000 1.0
C      1  0.5306620000000  0.4700540000000  0.5913400000000 1.0
C      1  0.4552510000000  0.4810870000000  0.4367680000000 1.0
C      1  0.4138560000000  0.4911560000000  0.4837820000000 1.0
C      1  0.4848210000000  0.5664870000000  0.4434890000000 1.0
C      1  0.5009890000000  0.5561330000000  0.4784800000000 1.0
C      1  0.5076270000000  0.5419250000000  0.5897810000000 1.0
C      1  0.5812080000000  0.5397990000000  0.4766450000000 1.0
C      1  0.5809680000000  0.5516860000000  0.5085340000000 1.0
C      1  0.5402630000000  0.4578080000000  0.4906230000000 1.0
C      1  0.5531470000000  0.5005860000000  0.4215910000000 1.0
C      1  0.4687730000000  0.4507480000000  0.4438120000000 1.0
C      1  0.4190820000000  0.4769810000000  0.4532660000000 1.0
C      1  0.5797110000000  0.4886800000000  0.4990150000000 1.0
C      1  0.4944940000000  0.4518130000000  0.4660930000000 1.0
C      1  0.5495770000000  0.4802980000000  0.4668830000000 1.0
C      1  0.4292460000000  0.5015560000000  0.4315930000000 1.0
C      1  0.5090230000000  0.4791840000000  0.4592080000000 1.0
C      1  0.4948180000000  0.4157830000000  0.4491420000000 1.0
C      1  0.5449750000000  0.5750650000000  0.4612760000000 1.0
C      1  0.5064420000000  0.4976880000000  0.4824450000000 1.0
C      1  0.4811240000000  0.4739600000000  0.5908990000000 1.0
C      1  0.5769960000000  0.4664140000000  0.4775880000000 1.0
C      1  0.4605880000000  0.4684550000000  0.5244720000000 1.0
C      1  0.5147490000000  0.4143160000000  0.5074780000000 1.0
C      1  0.4732720000000  0.5792130000000  0.4952470000000 1.0
C      1  0.4634940000000  0.5710250000000  0.4695960000000 1.0
C      1  0.4371710000000  0.4388470000000  0.4992300000000 1.0
C      1  0.4541200000000  0.5170420000000  0.5728920000000 1.0
C      1  0.4986280000000  0.5419030000000  0.5569740000000 1.0
C      1  0.5514890000000  0.5685820000000  0.5072780000000 1.0
C      1  0.5649490000000  0.5494720000000  0.5385660000000 1.0
C      1  0.4408990000000  0.5520680000000  0.4681330000000 1.0
C      1  0.5353900000000  0.4441680000000  0.4356620000000 1.0
C      1  0.5341820000000  0.5271010000000  0.5697500000000 1.0
C      1  0.5579320000000  0.5123410000000  0.5817550000000 1.0
C      1  0.5135400000000  0.5917690000000  0.4915390000000 1.0
C      1  0.5757240000000  0.4703390000000  0.5503340000000 1.0
C      1  0.5366210000000  0.5146590000000  0.5159630000000 1.0
C      1  0.4302200000000  0.5641590000000  0.5222300000000 1.0
C      1  0.5317570000000  0.5448020000000  0.4694390000000 1.0
C      1  0.5742850000000  0.5188440000000  0.5012750000000 1.0
C      1  0.4758510000000  0.5132120000000  0.4482710000000 1.0
C      1  0.5420320000000  0.5488030000000  0.4372550000000 1.0
C      1  0.5044910000000  0.5185470000000  0.5072170000000 1.0
C      1  0.5055730000000  0.5041570000000  0.4363920000000 1.0
C      1  0.4174520000000  0.4839960000000  0.5114680000000 1.0
C      1  0.4633260000000  0.4229910000000  0.5043530000000 1.0
C      1  0.4537440000000  0.5199010000000  0.5130980000000 1.0
C      1  0.5087850000000  0.4809650000000  0.4129370000000 1.0
C      1  0.4725060000000  0.5636780000000  0.5560480000000 1.0
C      1  0.5604830000000  0.4433460000000  0.5123390000000 1.0
C      1  0.4592600000000  0.4875790000000  0.5688130000000 1.0
C      1  0.4571860000000  0.4080670000000  0.5329340000000 1.0
C      1  0.5092800000000  0.5561850000000  0.4284140000000 1.0
C      1  0.4630840000000  0.4968250000000  0.5362840000000 1.0
C      1  0.5663370000000  0.5319130000000  0.4540120000000 1.0
C      1  0.4324250000000  0.5418780000000  0.4982870000000 1.0
C      1  0.5187110000000  0.4342420000000  0.4822900000000 1.0
C      1  0.4346990000000  0.4465070000000  0.4738970000000 1.0
C      1  0.5070790000000  0.5740490000000  0.5492760000000 1.0
C      1  0.4257200000000  0.5077120000000  0.5280290000000 1.0
C      1  0.5077670000000  0.4818870000000  0.5503700000000 1.0
C      1  0.4989660000000  0.5877010000000  0.4659820000000 1.0
C      1  0.4347060000000  0.4480690000000  0.4430110000000 1.0
C      1  0.4788450000000  0.5385360000000  0.4973500000000 1.0
C      1  0.4888590000000  0.4559630000000  0.4174430000000 1.0
C      1  0.4339180000000  0.4608840000000  0.5157720000000 1.0
C      1  0.4720960000000  0.5355910000000  0.5366610000000 1.0
C      1  0.5663280000000  0.4922870000000  0.5300620000000 1.0
C      1  0.5069700000000  0.5107090000000  0.5677290000000 1.0
C      1  0.4934320000000  0.5008570000000  0.5316320000000 1.0
C      1  0.4572290000000  0.5177590000000  0.4210590000000 1.0
C      1  0.5361130000000  0.4696550000000  0.5518340000000 1.0
C      1  0.5388970000000  0.5707640000000  0.5376960000000 1.0
C      1  0.5029280000000  0.5302140000000  0.4580820000000 1.0
C      1  0.4623680000000  0.5602160000000  0.5173530000000 1.0
C      1  0.4236780000000  0.5178830000000  0.4795590000000 1.0
C      1  0.5535930000000  0.5213870000000  0.5430860000000 1.0
C      1  0.5406190000000  0.5872040000000  0.4874100000000 1.0
C      1  0.5312700000000  0.4428530000000  0.5859430000000 1.0
C      1  0.5621440000000  0.5040620000000  0.4492620000000 1.0
C      1  0.4609270000000  0.4538570000000  0.5736710000000 1.0
C      1  0.5000620000000  0.5763950000000  0.5160780000000 1.0
C      1  0.5462810000000  0.5373100000000  0.4956920000000 1.0
C      1  0.5085160000000  0.4341120000000  0.4314050000000 1.0
C      1  0.4830540000000  0.4849720000000  0.5037230000000 1.0
C      1  0.5342840000000  0.4765910000000  0.4365820000000 1.0
C      1  0.4576800000000  0.4983600000000  0.4870780000000 1.0
C      1  0.4351270000000  0.5272100000000  0.5542590000000 1.0
C      1  0.4462300000000  0.5136700000000  0.4589480000000 1.0
C      1  0.5108300000000  0.4654620000000  0.5058820000000 1.0
C      1  0.4760480000000  0.5324580000000  0.5806000000000 1.0
C      1  0.5649590000000  0.4450650000000  0.5395020000000 1.0
C      1  0.5453980000000  0.4234470000000  0.4682380000000 1.0
C      1  0.4490820000000  0.4751170000000  0.4685670000000 1.0
C      1  0.4923820000000  0.4384500000000  0.5119710000000 1.0
C      1  0.5069820000000  0.4853450000000  0.5900170000000 1.0
C      1  0.5627350000000  0.4444260000000  0.4559040000000 1.0
C      1  0.4544340000000  0.4260940000000  0.5547290000000 1.0
C      1  0.5435450000000  0.5254170000000  0.4126100000000 1.0
C      1  0.4572250000000  0.5468240000000  0.4387750000000 1.0
C      1  0.4721230000000  0.4508500000000  0.5440120000000 1.0
C      1  0.5088590000000  0.5450840000000  0.5246950000000 1.0
C      1  0.5142080000000  0.5290840000000  0.4165760000000 1.0
C      1  0.4399870000000  0.5552760000000  0.5497670000000 1.0
C      1  0.5183110000000  0.4221630000000  0.5372920000000 1.0
C      1  0.4758720000000  0.4894350000000  0.4142350000000 1.0
END
