TITL C-2847949-8115-87 8.86161537764344e-05 125000 -380.018584372624 0 0 68 (C1) n - 1
REM
REM in /home/bkarasulu/work/CARBON/AIRSS/Generating-Clusters/AIREBO/with-SteepDescent/Only-C1/SD-CG-opt/Try1-1.4A-POS3A/HFTN-CG
REM
REM
REM
REM
REM
REM ./C.cell (11c1c37f851c82e70ff6c80c92926a4b)
REM
REM compiler GCC version 9.2.1 20190827 (Red Hat 9.2.1-1)
REM options -cpp -mtune=generic -march=x86-64 -g -O0 -fpre-include=/usr/include/finclude/math-vector-fortran.h
REM seed -1120183113 1513940382 -1873649876 -362590086 -2036399015 -350626326 654092097 -792078646 827334263 797234050 1930171210 -1988356507 897003200 -1106128765 -1725491140 -1582831391 -912618266 -1021071194 1207115057 2007786599 -380175202 -1169516331 -1889019621 1066796837 1842650153 443116445 1097678503 1476842793 1719638570 -1697323295 -414931163 -1964445197 1787748399
REM
CELL 1.54180   50.00000   50.00000   50.00000   90.00000   90.00000   90.00000
LATT -1
SFAC C  
C      1  0.5322330000000  0.5082010000000  0.4319550000000 1.0
C      1  0.5572130000000  0.5385680000000  0.5444960000000 1.0
C      1  0.5550360000000  0.4508690000000  0.4676800000000 1.0
C      1  0.4759560000000  0.4510530000000  0.4429200000000 1.0
C      1  0.5574830000000  0.5898120000000  0.4815100000000 1.0
C      1  0.5244000000000  0.5560630000000  0.4628000000000 1.0
C      1  0.4875490000000  0.5106190000000  0.5711370000000 1.0
C      1  0.5060810000000  0.5176490000000  0.4973410000000 1.0
C      1  0.4739730000000  0.5525380000000  0.4551870000000 1.0
C      1  0.5091420000000  0.5139650000000  0.4165770000000 1.0
C      1  0.4779090000000  0.4992210000000  0.4659710000000 1.0
C      1  0.4881490000000  0.5570040000000  0.5447240000000 1.0
C      1  0.5011600000000  0.5392390000000  0.4516410000000 1.0
C      1  0.5327060000000  0.5393810000000  0.5551780000000 1.0
C      1  0.5893650000000  0.4826090000000  0.4925400000000 1.0
C      1  0.5804250000000  0.5125820000000  0.5044160000000 1.0
C      1  0.4693370000000  0.4265120000000  0.5145240000000 1.0
C      1  0.4658110000000  0.4794350000000  0.4458700000000 1.0
C      1  0.5127410000000  0.4790610000000  0.5295890000000 1.0
C      1  0.4706600000000  0.4997940000000  0.4934560000000 1.0
C      1  0.4611740000000  0.4963240000000  0.4183320000000 1.0
C      1  0.4582700000000  0.5489280000000  0.5003750000000 1.0
C      1  0.4385180000000  0.5361490000000  0.4827840000000 1.0
C      1  0.5419710000000  0.4964300000000  0.5297510000000 1.0
C      1  0.4708770000000  0.4762930000000  0.5603110000000 1.0
C      1  0.4329950000000  0.4958570000000  0.4319680000000 1.0
C      1  0.4555610000000  0.5052630000000  0.5596150000000 1.0
C      1  0.4453530000000  0.5461080000000  0.4557050000000 1.0
C      1  0.4851660000000  0.5044420000000  0.4057880000000 1.0
C      1  0.5418830000000  0.4804680000000  0.5028410000000 1.0
C      1  0.4678540000000  0.5404050000000  0.5283920000000 1.0
C      1  0.4421020000000  0.4783180000000  0.5423110000000 1.0
C      1  0.5056650000000  0.4616830000000  0.5015710000000 1.0
C      1  0.5016420000000  0.5407970000000  0.5666290000000 1.0
C      1  0.4459490000000  0.5294400000000  0.5476550000000 1.0
C      1  0.5424880000000  0.4871780000000  0.5624670000000 1.0
C      1  0.4378630000000  0.4856350000000  0.4642380000000 1.0
C      1  0.4794890000000  0.4511950000000  0.5310790000000 1.0
C      1  0.5200070000000  0.5697420000000  0.5095490000000 1.0
C      1  0.4831860000000  0.5145920000000  0.5195700000000 1.0
C      1  0.4357380000000  0.4557350000000  0.5175940000000 1.0
C      1  0.4819480000000  0.4380240000000  0.4635930000000 1.0
C      1  0.4911680000000  0.4958710000000  0.5416200000000 1.0
C      1  0.5359550000000  0.5740750000000  0.4840840000000 1.0
C      1  0.4380210000000  0.4260260000000  0.5201980000000 1.0
C      1  0.5100900000000  0.4409070000000  0.5410710000000 1.0
C      1  0.5616840000000  0.5188860000000  0.5262540000000 1.0
C      1  0.4856920000000  0.4481200000000  0.5640670000000 1.0
C      1  0.4434880000000  0.4629780000000  0.4880840000000 1.0
C      1  0.5016010000000  0.5116950000000  0.4572900000000 1.0
C      1  0.5354880000000  0.4588540000000  0.5441810000000 1.0
C      1  0.5073160000000  0.5471140000000  0.4903500000000 1.0
C      1  0.4704980000000  0.4752860000000  0.5146190000000 1.0
C      1  0.4795120000000  0.5572080000000  0.4838070000000 1.0
C      1  0.4426220000000  0.4946390000000  0.5124880000000 1.0
C      1  0.5243260000000  0.4883760000000  0.4564320000000 1.0
C      1  0.5038510000000  0.5748460000000  0.5315120000000 1.0
C      1  0.5029190000000  0.4284840000000  0.5095350000000 1.0
C      1  0.5580830000000  0.5087290000000  0.4500930000000 1.0
C      1  0.5670880000000  0.4703480000000  0.5460760000000 1.0
C      1  0.4327080000000  0.5089300000000  0.4856520000000 1.0
C      1  0.5357740000000  0.4603160000000  0.4504830000000 1.0
C      1  0.4750730000000  0.4508040000000  0.4914340000000 1.0
C      1  0.5171420000000  0.4903180000000  0.4872310000000 1.0
C      1  0.5620990000000  0.4670840000000  0.4893060000000 1.0
C      1  0.5208380000000  0.5102400000000  0.5639820000000 1.0
C      1  0.5823730000000  0.4825470000000  0.5258180000000 1.0
C      1  0.5715610000000  0.5041360000000  0.4726960000000 1.0
END
