TITL C-2847949-8115-8 0.00134386139255173 125000 -250.567527242256 0 0 44 (C1) n - 1
REM
REM in /home/bkarasulu/work/CARBON/AIRSS/Generating-Clusters/AIREBO/with-SteepDescent/Only-C1/SD-CG-opt/Try1-1.4A-POS3A/HFTN-CG
REM
REM
REM
REM
REM
REM ./C.cell (11c1c37f851c82e70ff6c80c92926a4b)
REM
REM compiler GCC version 9.2.1 20190827 (Red Hat 9.2.1-1)
REM options -cpp -mtune=generic -march=x86-64 -g -O0 -fpre-include=/usr/include/finclude/math-vector-fortran.h
REM seed 1289674755 2078872934 -1887998398 848048979 155451970 1003748940 -1697764877 -907974548 -248832339 2051466842 -1182109261 520970494 1462281603 209963356 2101195817 786150099 822363560 -2031095264 802994049 -465394604 -306488853 -2095345424 989812403 -153210074 -1333269930 1353521185 -500916784 246224439 1735053764 392036480 -2057154348 -629118143 -1117641491
REM
CELL 1.54180   50.00000   50.00000   50.00000   90.00000   90.00000   90.00000
LATT -1
SFAC C  
C      1  0.4591350000000  0.5475540000000  0.5096670000000 1.0
C      1  0.5180880000000  0.5060950000000  0.5105100000000 1.0
C      1  0.4726090000000  0.5607980000000  0.4847250000000 1.0
C      1  0.4869420000000  0.4456520000000  0.5318340000000 1.0
C      1  0.5224680000000  0.4731780000000  0.4743920000000 1.0
C      1  0.4758120000000  0.5099430000000  0.4610280000000 1.0
C      1  0.5349470000000  0.5232920000000  0.4449680000000 1.0
C      1  0.5059350000000  0.4707380000000  0.4516320000000 1.0
C      1  0.5117570000000  0.4566570000000  0.4978380000000 1.0
C      1  0.5142740000000  0.5227490000000  0.5386570000000 1.0
C      1  0.5409490000000  0.5071880000000  0.5431330000000 1.0
C      1  0.5708050000000  0.5297100000000  0.5122950000000 1.0
C      1  0.4334330000000  0.5601610000000  0.5761620000000 1.0
C      1  0.4619420000000  0.4633800000000  0.4747410000000 1.0
C      1  0.5461930000000  0.5176980000000  0.4698450000000 1.0
C      1  0.5002700000000  0.5248010000000  0.4425670000000 1.0
C      1  0.4381680000000  0.5055530000000  0.4780360000000 1.0
C      1  0.4735730000000  0.4868550000000  0.5435450000000 1.0
C      1  0.5162060000000  0.4785760000000  0.4264830000000 1.0
C      1  0.5620770000000  0.4598430000000  0.5225750000000 1.0
C      1  0.5355060000000  0.4601700000000  0.5189470000000 1.0
C      1  0.4997960000000  0.5596230000000  0.4825710000000 1.0
C      1  0.4943530000000  0.4696120000000  0.5431110000000 1.0
C      1  0.4937150000000  0.5021920000000  0.4888840000000 1.0
C      1  0.4572370000000  0.5307680000000  0.4804560000000 1.0
C      1  0.5657980000000  0.5079920000000  0.5300270000000 1.0
C      1  0.5778110000000  0.4823060000000  0.5271650000000 1.0
C      1  0.5200390000000  0.4821080000000  0.5343680000000 1.0
C      1  0.4492740000000  0.5524790000000  0.5567480000000 1.0
C      1  0.4462070000000  0.4819770000000  0.4887060000000 1.0
C      1  0.5329390000000  0.4971330000000  0.4835730000000 1.0
C      1  0.4740180000000  0.4440700000000  0.4999870000000 1.0
C      1  0.5565990000000  0.5387570000000  0.4895660000000 1.0
C      1  0.4792920000000  0.4174610000000  0.5198080000000 1.0
C      1  0.5080800000000  0.5290320000000  0.4739850000000 1.0
C      1  0.4790660000000  0.4774740000000  0.4576520000000 1.0
C      1  0.4273790000000  0.4867030000000  0.5287750000000 1.0
C      1  0.4846110000000  0.4760040000000  0.5048990000000 1.0
C      1  0.4935320000000  0.5402380000000  0.5408930000000 1.0
C      1  0.5195980000000  0.5061280000000  0.4232220000000 1.0
C      1  0.4542320000000  0.4820580000000  0.5191760000000 1.0
C      1  0.4667410000000  0.5469860000000  0.5360450000000 1.0
C      1  0.5291860000000  0.5487150000000  0.4884390000000 1.0
C      1  0.5094080000000  0.4295910000000  0.4883640000000 1.0
END
