TITL C-2848506-1665-7 0.000146235321034484 125000 -123.099384826281 0 0 23 (C1) n - 1
REM
REM in /home/bkarasulu/work/CARBON/AIRSS/Generating-Clusters/AIREBO/with-SteepDescent/Only-C1/SD-CG-opt/Try1-1.4A-POS3A/HFTN-CG
REM
REM
REM
REM
REM
REM ./C.cell (11c1c37f851c82e70ff6c80c92926a4b)
REM
REM compiler GCC version 9.2.1 20190827 (Red Hat 9.2.1-1)
REM options -cpp -mtune=generic -march=x86-64 -g -O0 -fpre-include=/usr/include/finclude/math-vector-fortran.h
REM seed -216815692 196903692 1407227282 -182357368 -1147013002 637604113 1137800549 -1832807309 485945953 -104709863 342999400 -1867118432 332409994 -533278292 -333451658 -889888278 14679329 2047210510 -1207818699 2010941544 -508352119 434961127 -1142934848 -323427504 -33083468 1321647807 345905487 -31814661 -154093137 -886763723 -525654756 1053439572 -1848475097
REM
CELL 1.54180   50.00000   50.00000   50.00000   90.00000   90.00000   90.00000
LATT -1
SFAC C  
C      1  0.5535810000000  0.4836880000000  0.4548450000000 1.0
C      1  0.5314320000000  0.4975690000000  0.4699700000000 1.0
C      1  0.4424250000000  0.5259310000000  0.5385100000000 1.0
C      1  0.4988620000000  0.5070210000000  0.4675350000000 1.0
C      1  0.5237780000000  0.4359580000000  0.4814100000000 1.0
C      1  0.5169510000000  0.5003020000000  0.5174380000000 1.0
C      1  0.4784190000000  0.4852980000000  0.4629670000000 1.0
C      1  0.5206210000000  0.5330110000000  0.5349380000000 1.0
C      1  0.5209390000000  0.4817580000000  0.4958510000000 1.0
C      1  0.4614210000000  0.5400950000000  0.5573220000000 1.0
C      1  0.5234580000000  0.5288080000000  0.5034600000000 1.0
C      1  0.5580600000000  0.4568960000000  0.4529450000000 1.0
C      1  0.4456610000000  0.4974790000000  0.5403960000000 1.0
C      1  0.5230590000000  0.5308200000000  0.4695910000000 1.0
C      1  0.5427980000000  0.4358140000000  0.4615830000000 1.0
C      1  0.4936640000000  0.5035410000000  0.5355170000000 1.0
C      1  0.5075190000000  0.4576280000000  0.4891560000000 1.0
C      1  0.4474220000000  0.5378640000000  0.5123700000000 1.0
C      1  0.4718460000000  0.4877720000000  0.5411430000000 1.0
C      1  0.4941060000000  0.5337750000000  0.4880780000000 1.0
C      1  0.4817380000000  0.4622050000000  0.4779220000000 1.0
C      1  0.4747650000000  0.5416060000000  0.5089340000000 1.0
C      1  0.4874730000000  0.5351590000000  0.5381180000000 1.0
END
