TITL C-2847950-6905-213 0.00843283859988152 125000 -1030.88661194474 0 0 192 (C1) n - 1
REM
REM in /home/bkarasulu/work/CARBON/AIRSS/Generating-Clusters/AIREBO/with-SteepDescent/Only-C1/SD-CG-opt/Try1-1.4A-POS3A/HFTN-CG
REM
REM
REM
REM
REM
REM ./C.cell (11c1c37f851c82e70ff6c80c92926a4b)
REM
REM compiler GCC version 9.2.1 20190827 (Red Hat 9.2.1-1)
REM options -cpp -mtune=generic -march=x86-64 -g -O0 -fpre-include=/usr/include/finclude/math-vector-fortran.h
REM seed 516334592 2031745438 -1547696640 -1442488514 1899972890 -1199180250 1974873648 2073118749 -710946380 913907631 604735296 528904257 2050065683 -376671535 -265417142 -2056948090 1238430029 -500185940 -299382940 -555736838 358528188 2114041917 1835266549 1187954945 -1889629027 -2028768816 383933680 -530058578 -1388381278 -2002582410 1982835449 1958789826 -1936053892
REM
CELL 1.54180   50.00000   50.00000   50.00000   90.00000   90.00000   90.00000
LATT -1
SFAC C  
C      1  0.5963100000000  0.4995950000000  0.5434730000000 1.0
C      1  0.4063680000000  0.4555270000000  0.4888540000000 1.0
C      1  0.4308040000000  0.5591820000000  0.4670970000000 1.0
C      1  0.5153340000000  0.3780100000000  0.5093120000000 1.0
C      1  0.4754050000000  0.5029100000000  0.3798880000000 1.0
C      1  0.5368240000000  0.5593760000000  0.5803180000000 1.0
C      1  0.4195120000000  0.5210640000000  0.4302480000000 1.0
C      1  0.6025630000000  0.5289010000000  0.4368250000000 1.0
C      1  0.4431330000000  0.5863060000000  0.4573790000000 1.0
C      1  0.4816650000000  0.5797880000000  0.4655900000000 1.0
C      1  0.5602900000000  0.4436350000000  0.4793660000000 1.0
C      1  0.5203170000000  0.5476570000000  0.5154850000000 1.0
C      1  0.4942380000000  0.4927730000000  0.5049600000000 1.0
C      1  0.5274680000000  0.6060340000000  0.5132390000000 1.0
C      1  0.4739160000000  0.4874520000000  0.4781590000000 1.0
C      1  0.5529940000000  0.4725480000000  0.4957380000000 1.0
C      1  0.5310060000000  0.5309410000000  0.4807680000000 1.0
C      1  0.5131990000000  0.4420520000000  0.4124030000000 1.0
C      1  0.5116850000000  0.4671540000000  0.5310590000000 1.0
C      1  0.3898440000000  0.5454250000000  0.5098320000000 1.0
C      1  0.5749400000000  0.4886410000000  0.4420240000000 1.0
C      1  0.5969000000000  0.5140980000000  0.5126930000000 1.0
C      1  0.4664510000000  0.6264990000000  0.4975820000000 1.0
C      1  0.6056830000000  0.4751340000000  0.4366830000000 1.0
C      1  0.5487710000000  0.3913310000000  0.4729310000000 1.0
C      1  0.5110480000000  0.6064990000000  0.5595960000000 1.0
C      1  0.4461390000000  0.4279440000000  0.5233280000000 1.0
C      1  0.5988090000000  0.5339070000000  0.5457850000000 1.0
C      1  0.5023390000000  0.6058640000000  0.4720060000000 1.0
C      1  0.4959180000000  0.4956030000000  0.5827110000000 1.0
C      1  0.5230030000000  0.4770520000000  0.5734910000000 1.0
C      1  0.6007510000000  0.4443850000000  0.5084750000000 1.0
C      1  0.5162210000000  0.5493130000000  0.6031430000000 1.0
C      1  0.4567700000000  0.5475260000000  0.4481010000000 1.0
C      1  0.4870190000000  0.5408490000000  0.4334700000000 1.0
C      1  0.5760990000000  0.4298620000000  0.5020500000000 1.0
C      1  0.5809350000000  0.4800740000000  0.5669000000000 1.0
C      1  0.4964960000000  0.5120490000000  0.5529550000000 1.0
C      1  0.4722300000000  0.4774250000000  0.5664300000000 1.0
C      1  0.4545470000000  0.5825700000000  0.5696360000000 1.0
C      1  0.3876000000000  0.4652330000000  0.4642790000000 1.0
C      1  0.5497520000000  0.5832910000000  0.5012730000000 1.0
C      1  0.6139290000000  0.5112930000000  0.4510110000000 1.0
C      1  0.3909600000000  0.4987550000000  0.4596840000000 1.0
C      1  0.4346800000000  0.4941370000000  0.4780780000000 1.0
C      1  0.4300300000000  0.5277640000000  0.4800780000000 1.0
C      1  0.5296570000000  0.4564250000000  0.6063540000000 1.0
C      1  0.5533350000000  0.4713880000000  0.5867630000000 1.0
C      1  0.4721440000000  0.4759470000000  0.4269350000000 1.0
C      1  0.5637590000000  0.4486950000000  0.4122250000000 1.0
C      1  0.4139320000000  0.4912810000000  0.5059170000000 1.0
C      1  0.5560660000000  0.4112780000000  0.4516350000000 1.0
C      1  0.5702800000000  0.4300810000000  0.4319870000000 1.0
C      1  0.4440200000000  0.4204290000000  0.4944070000000 1.0
C      1  0.5047620000000  0.4806410000000  0.4185270000000 1.0
C      1  0.4207850000000  0.4420530000000  0.5375560000000 1.0
C      1  0.5286390000000  0.5716010000000  0.4553800000000 1.0
C      1  0.4675800000000  0.5633370000000  0.5230670000000 1.0
C      1  0.4198500000000  0.4733590000000  0.5763600000000 1.0
C      1  0.5285970000000  0.4986770000000  0.4338180000000 1.0
C      1  0.4829330000000  0.5897370000000  0.5667280000000 1.0
C      1  0.5723760000000  0.5301630000000  0.4381690000000 1.0
C      1  0.4301810000000  0.5338130000000  0.5271020000000 1.0
C      1  0.5280810000000  0.4248150000000  0.5159270000000 1.0
C      1  0.5558520000000  0.5426380000000  0.5679130000000 1.0
C      1  0.5002550000000  0.4139860000000  0.5024520000000 1.0
C      1  0.5458400000000  0.4775390000000  0.5482930000000 1.0
C      1  0.4424730000000  0.5449040000000  0.5911210000000 1.0
C      1  0.5592370000000  0.4823480000000  0.4141810000000 1.0
C      1  0.5065190000000  0.4207350000000  0.5413600000000 1.0
C      1  0.3858220000000  0.5112160000000  0.5505640000000 1.0
C      1  0.5123910000000  0.5601560000000  0.4207330000000 1.0
C      1  0.4155120000000  0.5619300000000  0.4974700000000 1.0
C      1  0.5084530000000  0.4356200000000  0.5898060000000 1.0
C      1  0.4598850000000  0.5113020000000  0.5125980000000 1.0
C      1  0.4472830000000  0.4630130000000  0.4490050000000 1.0
C      1  0.4422230000000  0.5337710000000  0.5589090000000 1.0
C      1  0.4552340000000  0.5717250000000  0.4090160000000 1.0
C      1  0.4462840000000  0.5000190000000  0.5607110000000 1.0
C      1  0.4682710000000  0.4160260000000  0.5672380000000 1.0
C      1  0.4718210000000  0.4683370000000  0.5991910000000 1.0
C      1  0.5056230000000  0.5652780000000  0.5661230000000 1.0
C      1  0.5160090000000  0.4188070000000  0.4370820000000 1.0
C      1  0.5181580000000  0.3849750000000  0.4761330000000 1.0
C      1  0.3847510000000  0.4886350000000  0.4889000000000 1.0
C      1  0.5515280000000  0.5065300000000  0.4952870000000 1.0
C      1  0.4292120000000  0.4510990000000  0.5629270000000 1.0
C      1  0.5472020000000  0.5171920000000  0.5496650000000 1.0
C      1  0.5622790000000  0.4265010000000  0.5486870000000 1.0
C      1  0.6043720000000  0.5570260000000  0.4923770000000 1.0
C      1  0.4731580000000  0.5336030000000  0.5487910000000 1.0
C      1  0.4482890000000  0.5992150000000  0.5066410000000 1.0
C      1  0.5668250000000  0.4731440000000  0.5253200000000 1.0
C      1  0.5301580000000  0.4851670000000  0.3963550000000 1.0
C      1  0.5182960000000  0.4029080000000  0.5691660000000 1.0
C      1  0.4512630000000  0.4696240000000  0.4910780000000 1.0
C      1  0.4514190000000  0.4614940000000  0.5211490000000 1.0
C      1  0.5004040000000  0.5010890000000  0.4662200000000 1.0
C      1  0.4170680000000  0.4260400000000  0.4537080000000 1.0
C      1  0.5812080000000  0.4418180000000  0.4568840000000 1.0
C      1  0.5441460000000  0.5629830000000  0.4200280000000 1.0
C      1  0.3972900000000  0.4876880000000  0.5716240000000 1.0
C      1  0.4684930000000  0.5072690000000  0.5990910000000 1.0
C      1  0.3747110000000  0.5372920000000  0.5317380000000 1.0
C      1  0.5379300000000  0.5721500000000  0.5311810000000 1.0
C      1  0.5180920000000  0.4765200000000  0.4648810000000 1.0
C      1  0.5378220000000  0.4531600000000  0.3978890000000 1.0
C      1  0.4435430000000  0.4868690000000  0.5919900000000 1.0
C      1  0.4305360000000  0.5769520000000  0.5177910000000 1.0
C      1  0.4958640000000  0.5531240000000  0.5368660000000 1.0
C      1  0.5804470000000  0.5912540000000  0.5134290000000 1.0
C      1  0.5216970000000  0.4984480000000  0.5400420000000 1.0
C      1  0.4086390000000  0.5190540000000  0.4551110000000 1.0
C      1  0.5013560000000  0.3990690000000  0.4584480000000 1.0
C      1  0.5395270000000  0.4245200000000  0.5636340000000 1.0
C      1  0.5578120000000  0.4148710000000  0.5204550000000 1.0
C      1  0.5230850000000  0.5290790000000  0.4211570000000 1.0
C      1  0.5325850000000  0.4296520000000  0.4647590000000 1.0
C      1  0.5061100000000  0.4569930000000  0.4421180000000 1.0
C      1  0.4912280000000  0.4609400000000  0.3944780000000 1.0
C      1  0.4743510000000  0.4742940000000  0.3784480000000 1.0
C      1  0.6034920000000  0.4573710000000  0.4586240000000 1.0
C      1  0.5749820000000  0.4514090000000  0.5496190000000 1.0
C      1  0.4485880000000  0.5473930000000  0.4063710000000 1.0
C      1  0.4909630000000  0.4105230000000  0.5822760000000 1.0
C      1  0.4816460000000  0.5169350000000  0.4102450000000 1.0
C      1  0.5784170000000  0.5526210000000  0.5528890000000 1.0
C      1  0.5328730000000  0.5921140000000  0.5547070000000 1.0
C      1  0.5160960000000  0.4500930000000  0.4801400000000 1.0
C      1  0.4782930000000  0.4529110000000  0.4586150000000 1.0
C      1  0.4527640000000  0.5212180000000  0.4276870000000 1.0
C      1  0.4967400000000  0.5172620000000  0.3637150000000 1.0
C      1  0.5448090000000  0.3902300000000  0.5048390000000 1.0
C      1  0.4058590000000  0.4613300000000  0.5198660000000 1.0
C      1  0.5164780000000  0.5153660000000  0.6017590000000 1.0
C      1  0.4817380000000  0.5263150000000  0.4793460000000 1.0
C      1  0.5042380000000  0.5221310000000  0.4997940000000 1.0
C      1  0.4813300000000  0.3881330000000  0.4910500000000 1.0
C      1  0.4341880000000  0.4471460000000  0.4758120000000 1.0
C      1  0.4398970000000  0.6063830000000  0.4758430000000 1.0
C      1  0.5187180000000  0.5624090000000  0.4847520000000 1.0
C      1  0.3861940000000  0.4833510000000  0.5335690000000 1.0
C      1  0.5982780000000  0.4753190000000  0.5197390000000 1.0
C      1  0.4404970000000  0.4096470000000  0.4641210000000 1.0
C      1  0.4430470000000  0.5730090000000  0.5921820000000 1.0
C      1  0.4785950000000  0.4944560000000  0.5330500000000 1.0
C      1  0.5942270000000  0.4946820000000  0.4694360000000 1.0
C      1  0.5806270000000  0.5144630000000  0.4876960000000 1.0
C      1  0.3923900000000  0.4372100000000  0.4490050000000 1.0
C      1  0.4808660000000  0.4423850000000  0.5402360000000 1.0
C      1  0.5701110000000  0.5713100000000  0.5334740000000 1.0
C      1  0.4841690000000  0.4610550000000  0.5120120000000 1.0
C      1  0.4912870000000  0.3937800000000  0.5275020000000 1.0
C      1  0.5461380000000  0.5073130000000  0.6027370000000 1.0
C      1  0.4794690000000  0.5923740000000  0.5148470000000 1.0
C      1  0.4596860000000  0.5308350000000  0.6077990000000 1.0
C      1  0.4392540000000  0.4910220000000  0.5286280000000 1.0
C      1  0.5493150000000  0.4825010000000  0.4634330000000 1.0
C      1  0.4567390000000  0.4956670000000  0.4499700000000 1.0
C      1  0.4107530000000  0.5232700000000  0.5057770000000 1.0
C      1  0.4640070000000  0.4062150000000  0.5407250000000 1.0
C      1  0.5541500000000  0.5158700000000  0.4169510000000 1.0
C      1  0.6108180000000  0.5406030000000  0.5149840000000 1.0
C      1  0.4520230000000  0.5415390000000  0.5020710000000 1.0
C      1  0.5459960000000  0.5277630000000  0.5197650000000 1.0
C      1  0.5786690000000  0.5459420000000  0.4743710000000 1.0
C      1  0.5079700000000  0.5328120000000  0.5744750000000 1.0
C      1  0.5007500000000  0.5829930000000  0.4389940000000 1.0
C      1  0.5352140000000  0.5970350000000  0.4737770000000 1.0
C      1  0.4594100000000  0.4468080000000  0.5662510000000 1.0
C      1  0.5483340000000  0.5147540000000  0.4563650000000 1.0
C      1  0.4448550000000  0.5653140000000  0.5463990000000 1.0
C      1  0.4666870000000  0.5841010000000  0.4353690000000 1.0
C      1  0.5113320000000  0.5289790000000  0.4530750000000 1.0
C      1  0.4692330000000  0.5538340000000  0.4762870000000 1.0
C      1  0.6068810000000  0.4701660000000  0.4871710000000 1.0
C      1  0.6027060000000  0.5845470000000  0.4980100000000 1.0
C      1  0.5549420000000  0.5499930000000  0.4956260000000 1.0
C      1  0.4721850000000  0.4418300000000  0.4274600000000 1.0
C      1  0.4846080000000  0.4171520000000  0.4241410000000 1.0
C      1  0.4853650000000  0.4388610000000  0.4862260000000 1.0
C      1  0.4865690000000  0.6081060000000  0.5395710000000 1.0
C      1  0.5275390000000  0.4547580000000  0.5081930000000 1.0
C      1  0.4956050000000  0.4578560000000  0.6090010000000 1.0
C      1  0.5113290000000  0.5122940000000  0.3940230000000 1.0
C      1  0.5156420000000  0.4482940000000  0.5590830000000 1.0
C      1  0.5590740000000  0.5031230000000  0.5759820000000 1.0
C      1  0.5054840000000  0.5889490000000  0.4991270000000 1.0
C      1  0.4733350000000  0.4117200000000  0.4692640000000 1.0
C      1  0.5588830000000  0.5573740000000  0.4490630000000 1.0
C      1  0.4847630000000  0.6299000000000  0.4805770000000 1.0
C      1  0.4081770000000  0.5328280000000  0.5530060000000 1.0
END
