TITL C-2847954-6904-672 -0.000196973466359345 125000 -384.74516434901 0 0 73 (C1) n - 1
REM
REM in /home/bkarasulu/work/CARBON/AIRSS/Generating-Clusters/AIREBO/with-SteepDescent/Only-C1/SD-CG-opt/Try1-1.4A-POS3A/HFTN-CG
REM
REM
REM
REM
REM
REM ./C.cell (11c1c37f851c82e70ff6c80c92926a4b)
REM
REM compiler GCC version 9.2.1 20190827 (Red Hat 9.2.1-1)
REM options -cpp -mtune=generic -march=x86-64 -g -O0 -fpre-include=/usr/include/finclude/math-vector-fortran.h
REM seed 2017065307 276091646 -81025991 1874248856 -1501338844 1734154880 621449675 -1018458469 -1356650556 765960297 1989826415 205926011 -155354280 -975595359 -57321766 1054631668 317477257 705707788 1187517959 1381220135 -2031219878 2089871216 -796452533 585491341 -1573015309 -1548173284 1139518224 1642641518 -1936726856 -93521475 -2004813907 -645992434 270691412
REM
CELL 1.54180   50.00000   50.00000   50.00000   90.00000   90.00000   90.00000
LATT -1
SFAC C  
C      1  0.5286850000000  0.5279530000000  0.5749540000000 1.0
C      1  0.4448950000000  0.4916000000000  0.5534450000000 1.0
C      1  0.4621240000000  0.5133980000000  0.5085130000000 1.0
C      1  0.5641690000000  0.4598670000000  0.5044490000000 1.0
C      1  0.5136360000000  0.5281490000000  0.4608160000000 1.0
C      1  0.5476310000000  0.5287600000000  0.4602770000000 1.0
C      1  0.5625030000000  0.4992900000000  0.5107070000000 1.0
C      1  0.5652490000000  0.5014720000000  0.4502180000000 1.0
C      1  0.4392020000000  0.4713520000000  0.4395540000000 1.0
C      1  0.5106060000000  0.4706360000000  0.4897200000000 1.0
C      1  0.5258380000000  0.5005430000000  0.4195090000000 1.0
C      1  0.5048980000000  0.5348890000000  0.5793090000000 1.0
C      1  0.4334440000000  0.5419400000000  0.4573420000000 1.0
C      1  0.4776860000000  0.4397200000000  0.4702960000000 1.0
C      1  0.5898790000000  0.4790300000000  0.5091990000000 1.0
C      1  0.4757730000000  0.4662630000000  0.5528640000000 1.0
C      1  0.5209740000000  0.4649630000000  0.5188650000000 1.0
C      1  0.4921970000000  0.5051170000000  0.5206030000000 1.0
C      1  0.5623730000000  0.5269630000000  0.4909300000000 1.0
C      1  0.4937790000000  0.4449270000000  0.5148230000000 1.0
C      1  0.5402350000000  0.4472030000000  0.5624370000000 1.0
C      1  0.4580670000000  0.5468070000000  0.5465060000000 1.0
C      1  0.4825590000000  0.5305770000000  0.5579720000000 1.0
C      1  0.4369580000000  0.4864320000000  0.4699510000000 1.0
C      1  0.5073250000000  0.4899220000000  0.5469940000000 1.0
C      1  0.5387360000000  0.4897820000000  0.5339540000000 1.0
C      1  0.4509550000000  0.4458670000000  0.5456860000000 1.0
C      1  0.4993150000000  0.5643690000000  0.4750370000000 1.0
C      1  0.4621470000000  0.5109250000000  0.4380590000000 1.0
C      1  0.4448270000000  0.4236320000000  0.5316710000000 1.0
C      1  0.4824920000000  0.5272730000000  0.4512100000000 1.0
C      1  0.5202270000000  0.5484490000000  0.4200760000000 1.0
C      1  0.5170130000000  0.5241750000000  0.5106010000000 1.0
C      1  0.4320100000000  0.5033640000000  0.5323780000000 1.0
C      1  0.5541190000000  0.4546770000000  0.4722310000000 1.0
C      1  0.4764510000000  0.5001020000000  0.5569580000000 1.0
C      1  0.4760330000000  0.5754130000000  0.5140310000000 1.0
C      1  0.4819860000000  0.5189310000000  0.4831790000000 1.0
C      1  0.4726200000000  0.4593550000000  0.5856090000000 1.0
C      1  0.5070720000000  0.4970260000000  0.4598750000000 1.0
C      1  0.5389170000000  0.5446880000000  0.5022470000000 1.0
C      1  0.5034660000000  0.4364620000000  0.4583160000000 1.0
C      1  0.4435140000000  0.5313840000000  0.5286660000000 1.0
C      1  0.5365910000000  0.5266540000000  0.4281650000000 1.0
C      1  0.4807600000000  0.5670610000000  0.4534150000000 1.0
C      1  0.4821260000000  0.4739660000000  0.5203550000000 1.0
C      1  0.5434880000000  0.5206820000000  0.5473340000000 1.0
C      1  0.4951510000000  0.5519680000000  0.4316050000000 1.0
C      1  0.4816100000000  0.4852550000000  0.4879040000000 1.0
C      1  0.5672820000000  0.4769160000000  0.4526070000000 1.0
C      1  0.4657830000000  0.4686590000000  0.4668390000000 1.0
C      1  0.5229200000000  0.4514760000000  0.4698580000000 1.0
C      1  0.4976970000000  0.5429300000000  0.5313880000000 1.0
C      1  0.5426680000000  0.5652690000000  0.5224060000000 1.0
C      1  0.4633720000000  0.5729650000000  0.5381880000000 1.0
C      1  0.5280050000000  0.5482280000000  0.5404990000000 1.0
C      1  0.4360330000000  0.4938390000000  0.4999280000000 1.0
C      1  0.5677710000000  0.5295680000000  0.5252570000000 1.0
C      1  0.5554800000000  0.4488150000000  0.5307090000000 1.0
C      1  0.5245590000000  0.4354850000000  0.5354270000000 1.0
C      1  0.5479320000000  0.4840120000000  0.4868480000000 1.0
C      1  0.5029120000000  0.4880930000000  0.4327370000000 1.0
C      1  0.4127820000000  0.4750390000000  0.5125390000000 1.0
C      1  0.4572560000000  0.4144550000000  0.5089860000000 1.0
C      1  0.5298360000000  0.5572540000000  0.4668180000000 1.0
C      1  0.4875340000000  0.5483040000000  0.4993800000000 1.0
C      1  0.5593320000000  0.4725480000000  0.5548070000000 1.0
C      1  0.4525160000000  0.5623360000000  0.4551500000000 1.0
C      1  0.4716740000000  0.4815030000000  0.4359080000000 1.0
C      1  0.5085480000000  0.4578260000000  0.5561710000000 1.0
C      1  0.5205380000000  0.5012190000000  0.4892030000000 1.0
C      1  0.4775500000000  0.4298080000000  0.4970820000000 1.0
C      1  0.4377080000000  0.5142180000000  0.4524460000000 1.0
END
