TITL C-2847956-8218-562 -5.97829450859337e-05 125000 -269.191114436543 0 0 50 (C1) n - 1
REM
REM in /home/bkarasulu/work/CARBON/AIRSS/Generating-Clusters/AIREBO/with-SteepDescent/Only-C1/SD-CG-opt/Try1-1.4A-POS3A/HFTN-CG
REM
REM
REM
REM
REM
REM ./C.cell (11c1c37f851c82e70ff6c80c92926a4b)
REM
REM compiler GCC version 9.2.1 20190827 (Red Hat 9.2.1-1)
REM options -cpp -mtune=generic -march=x86-64 -g -O0 -fpre-include=/usr/include/finclude/math-vector-fortran.h
REM seed -430937123 -266122494 -1198632419 -1338031406 660618660 354140854 -1416361771 1330579199 -512965027 760480992 -1747646672 655926849 -1908273424 -1593612646 2115140417 -467509209 -2129352174 1783678607 -636001809 -425215098 -1976188325 115591108 1804881141 -1797440870 734240608 -1106293867 43632899 -2050727846 -572395909 -351001424 -647943300 -374315992 -430176728
REM
CELL 1.54180   50.00000   50.00000   50.00000   90.00000   90.00000   90.00000
LATT -1
SFAC C  
C      1  0.4964040000000  0.5065140000000  0.5663680000000 1.0
C      1  0.5118970000000  0.4327600000000  0.5144110000000 1.0
C      1  0.5194490000000  0.5515150000000  0.5024630000000 1.0
C      1  0.5311840000000  0.5238170000000  0.4887710000000 1.0
C      1  0.4857520000000  0.4868430000000  0.4533860000000 1.0
C      1  0.4432550000000  0.4830790000000  0.4918710000000 1.0
C      1  0.4924500000000  0.5464650000000  0.4566990000000 1.0
C      1  0.4608610000000  0.5026770000000  0.4703400000000 1.0
C      1  0.5501110000000  0.5106910000000  0.4670160000000 1.0
C      1  0.5332170000000  0.5043520000000  0.4433910000000 1.0
C      1  0.4425200000000  0.5067270000000  0.4472670000000 1.0
C      1  0.4584330000000  0.5373280000000  0.5495790000000 1.0
C      1  0.4483330000000  0.5119010000000  0.5190450000000 1.0
C      1  0.4968980000000  0.4387450000000  0.5386200000000 1.0
C      1  0.5008020000000  0.5244620000000  0.4800510000000 1.0
C      1  0.5391690000000  0.4647620000000  0.4902580000000 1.0
C      1  0.5270750000000  0.4608110000000  0.4643920000000 1.0
C      1  0.4917360000000  0.4684370000000  0.4968400000000 1.0
C      1  0.5134170000000  0.4355720000000  0.4631320000000 1.0
C      1  0.5613740000000  0.5805130000000  0.4952620000000 1.0
C      1  0.5133460000000  0.4812240000000  0.5160720000000 1.0
C      1  0.5071970000000  0.4742480000000  0.5685920000000 1.0
C      1  0.5382470000000  0.4946150000000  0.5013310000000 1.0
C      1  0.4819980000000  0.5160110000000  0.5164710000000 1.0
C      1  0.5671190000000  0.4924810000000  0.4833470000000 1.0
C      1  0.5228210000000  0.4605820000000  0.5413740000000 1.0
C      1  0.5039130000000  0.5374370000000  0.5276000000000 1.0
C      1  0.5180780000000  0.5234930000000  0.5515930000000 1.0
C      1  0.4871520000000  0.4987110000000  0.4915320000000 1.0
C      1  0.4620400000000  0.4858510000000  0.5329090000000 1.0
C      1  0.4658320000000  0.4654110000000  0.4566860000000 1.0
C      1  0.4664370000000  0.4503140000000  0.4843690000000 1.0
C      1  0.4734310000000  0.5521530000000  0.5302310000000 1.0
C      1  0.5477070000000  0.5498020000000  0.4591190000000 1.0
C      1  0.5145110000000  0.4831400000000  0.4493100000000 1.0
C      1  0.5450200000000  0.5610590000000  0.4849990000000 1.0
C      1  0.5472460000000  0.4827100000000  0.5497600000000 1.0
C      1  0.5377950000000  0.4464090000000  0.5121690000000 1.0
C      1  0.4205650000000  0.4991610000000  0.5041250000000 1.0
C      1  0.4672370000000  0.5525900000000  0.5013110000000 1.0
C      1  0.4544170000000  0.5288590000000  0.4910830000000 1.0
C      1  0.5420270000000  0.5100140000000  0.5529020000000 1.0
C      1  0.5075110000000  0.5454620000000  0.4343490000000 1.0
C      1  0.4918100000000  0.5592580000000  0.4860050000000 1.0
C      1  0.4654650000000  0.5113920000000  0.5551210000000 1.0
C      1  0.4954260000000  0.4354690000000  0.4882590000000 1.0
C      1  0.4561470000000  0.4611390000000  0.5134980000000 1.0
C      1  0.5331040000000  0.5344730000000  0.4397270000000 1.0
C      1  0.4700870000000  0.4428070000000  0.5365450000000 1.0
C      1  0.4919770000000  0.4857530000000  0.5404490000000 1.0
END
