TITL C-2848500-1637-122 5.36324796217217 125000 -851.64571471227 0 0 158 (C1) n - 1
REM
REM in /home/bkarasulu/work/CARBON/AIRSS/Generating-Clusters/AIREBO/with-SteepDescent/Only-C1/SD-CG-opt/Try1-1.4A-POS3A/HFTN-CG
REM
REM
REM
REM
REM
REM ./C.cell (11c1c37f851c82e70ff6c80c92926a4b)
REM
REM compiler GCC version 9.2.1 20190827 (Red Hat 9.2.1-1)
REM options -cpp -mtune=generic -march=x86-64 -g -O0 -fpre-include=/usr/include/finclude/math-vector-fortran.h
REM seed -848846000 2110960905 127633044 130084010 -1241158498 345512584 1947304109 -1508153959 1254873138 342727613 -939710012 187762019 1753430610 -2032240142 -1181875088 1974914102 1867433419 1624794916 -1396254634 958164162 -747943675 762829165 -1333014213 2098877156 866343164 1077721292 -470842713 677947299 -41739196 -279469912 135269968 -1990008883 738032524
REM
CELL 1.54180   50.00000   50.00000   50.00000   90.00000   90.00000   90.00000
LATT -1
SFAC C  
C      1  0.4743760000000  0.5017490000000  0.5528500000000 1.0
C      1  0.4747310000000  0.4665600000000  0.4570770000000 1.0
C      1  0.5865300000000  0.5559640000000  0.5340320000000 1.0
C      1  0.4282960000000  0.5046760000000  0.4534980000000 1.0
C      1  0.4683160000000  0.5280840000000  0.4001750000000 1.0
C      1  0.4798990000000  0.5648070000000  0.5262820000000 1.0
C      1  0.5569630000000  0.4799390000000  0.5513470000000 1.0
C      1  0.5184210000000  0.5128810000000  0.4734090000000 1.0
C      1  0.4731950000000  0.4354400000000  0.5648640000000 1.0
C      1  0.4965760000000  0.4179490000000  0.4569880000000 1.0
C      1  0.4715270000000  0.4980880000000  0.4811350000000 1.0
C      1  0.5586040000000  0.4986130000000  0.4677410000000 1.0
C      1  0.4754580000000  0.5017920000000  0.4143980000000 1.0
C      1  0.5165880000000  0.5855090000000  0.4325470000000 1.0
C      1  0.4981520000000  0.4662070000000  0.5700020000000 1.0
C      1  0.4836460000000  0.5824030000000  0.4384060000000 1.0
C      1  0.4166610000000  0.3911810000000  0.4798420000000 1.0
C      1  0.5228780000000  0.4759750000000  0.4305200000000 1.0
C      1  0.5875720000000  0.5000440000000  0.4804900000000 1.0
C      1  0.4258540000000  0.5413630000000  0.5489390000000 1.0
C      1  0.4089130000000  0.5415270000000  0.4941740000000 1.0
C      1  0.5514400000000  0.5911170000000  0.5281230000000 1.0
C      1  0.4867270000000  0.4699790000000  0.5318750000000 1.0
C      1  0.4574710000000  0.5964520000000  0.4736270000000 1.0
C      1  0.5673040000000  0.5401920000000  0.4970980000000 1.0
C      1  0.4505610000000  0.5490700000000  0.4666870000000 1.0
C      1  0.4879100000000  0.5466470000000  0.4870850000000 1.0
C      1  0.4332280000000  0.5774360000000  0.4668420000000 1.0
C      1  0.5228380000000  0.4464980000000  0.5037100000000 1.0
C      1  0.4432260000000  0.5069250000000  0.5635590000000 1.0
C      1  0.5366200000000  0.5422930000000  0.5068970000000 1.0
C      1  0.3879920000000  0.5336770000000  0.4685360000000 1.0
C      1  0.5212960000000  0.4880820000000  0.5158630000000 1.0
C      1  0.4416990000000  0.4907430000000  0.5272480000000 1.0
C      1  0.4687490000000  0.4274530000000  0.4399240000000 1.0
C      1  0.4538530000000  0.4766520000000  0.4183770000000 1.0
C      1  0.5211290000000  0.5683050000000  0.4913950000000 1.0
C      1  0.5188750000000  0.4005600000000  0.4696920000000 1.0
C      1  0.5057910000000  0.4644660000000  0.4821090000000 1.0
C      1  0.4459560000000  0.4448530000000  0.5164000000000 1.0
C      1  0.5228660000000  0.4214050000000  0.5676850000000 1.0
C      1  0.5500680000000  0.5144450000000  0.4440570000000 1.0
C      1  0.5590790000000  0.5471980000000  0.4422860000000 1.0
C      1  0.4426350000000  0.4019080000000  0.4800700000000 1.0
C      1  0.4853660000000  0.4926100000000  0.6125720000000 1.0
C      1  0.4278160000000  0.5529410000000  0.5201650000000 1.0
C      1  0.4452050000000  0.4296250000000  0.4608430000000 1.0
C      1  0.5679300000000  0.4315950000000  0.4564870000000 1.0
C      1  0.4594060000000  0.3992720000000  0.5096270000000 1.0
C      1  0.5162390000000  0.5337670000000  0.5471720000000 1.0
C      1  0.5999320000000  0.4709150000000  0.4353550000000 1.0
C      1  0.3996940000000  0.5219560000000  0.4471650000000 1.0
C      1  0.4754860000000  0.5554490000000  0.4190620000000 1.0
C      1  0.4913060000000  0.4771470000000  0.4316490000000 1.0
C      1  0.5510000000000  0.4856340000000  0.6275020000000 1.0
C      1  0.5239020000000  0.5401040000000  0.5858600000000 1.0
C      1  0.4446000000000  0.4757110000000  0.5576770000000 1.0
C      1  0.5615440000000  0.4476140000000  0.5621600000000 1.0
C      1  0.5479890000000  0.4221250000000  0.5440400000000 1.0
C      1  0.4701940000000  0.5390380000000  0.4472310000000 1.0
C      1  0.4050220000000  0.4859930000000  0.4957380000000 1.0
C      1  0.5709210000000  0.5689830000000  0.4876990000000 1.0
C      1  0.5285480000000  0.5448670000000  0.4678710000000 1.0
C      1  0.4854410000000  0.4790900000000  0.5007460000000 1.0
C      1  0.5462570000000  0.5392720000000  0.4131460000000 1.0
C      1  0.5833890000000  0.5207960000000  0.5722950000000 1.0
C      1  0.4943980000000  0.4983970000000  0.5802970000000 1.0
C      1  0.5223340000000  0.5331920000000  0.4365410000000 1.0
C      1  0.5273710000000  0.4450330000000  0.4230730000000 1.0
C      1  0.4619910000000  0.4548770000000  0.5416340000000 1.0
C      1  0.4978110000000  0.5696910000000  0.4665940000000 1.0
C      1  0.4755240000000  0.5915810000000  0.5089870000000 1.0
C      1  0.4832160000000  0.5324180000000  0.5490980000000 1.0
C      1  0.5254290000000  0.5095720000000  0.5839080000000 1.0
C      1  0.5496110000000  0.4681700000000  0.4632430000000 1.0
C      1  0.5069290000000  0.5124110000000  0.5033510000000 1.0
C      1  0.5507810000000  0.5702300000000  0.4647450000000 1.0
C      1  0.3790120000000  0.5032930000000  0.5299790000000 1.0
C      1  0.5287800000000  0.5932140000000  0.4574600000000 1.0
C      1  0.5101320000000  0.5698830000000  0.5760140000000 1.0
C      1  0.5202640000000  0.4224010000000  0.4010710000000 1.0
C      1  0.4807060000000  0.6051940000000  0.4599290000000 1.0
C      1  0.5523600000000  0.4512890000000  0.4875370000000 1.0
C      1  0.4844190000000  0.4417650000000  0.4737040000000 1.0
C      1  0.4446110000000  0.5821020000000  0.5195440000000 1.0
C      1  0.4712880000000  0.4520680000000  0.4203050000000 1.0
C      1  0.4426510000000  0.5424250000000  0.4128510000000 1.0
C      1  0.5382490000000  0.4959200000000  0.6079220000000 1.0
C      1  0.4921120000000  0.4161980000000  0.5597690000000 1.0
C      1  0.6236680000000  0.4677300000000  0.4220970000000 1.0
C      1  0.4137000000000  0.4667650000000  0.4792520000000 1.0
C      1  0.5393630000000  0.4631420000000  0.5283280000000 1.0
C      1  0.5504040000000  0.4104000000000  0.4658510000000 1.0
C      1  0.4163310000000  0.5125680000000  0.5490850000000 1.0
C      1  0.5566770000000  0.5983120000000  0.5549830000000 1.0
C      1  0.4158800000000  0.4526060000000  0.5280070000000 1.0
C      1  0.5796420000000  0.4943310000000  0.5721980000000 1.0
C      1  0.5542570000000  0.4521570000000  0.4371520000000 1.0
C      1  0.5589610000000  0.5769430000000  0.5716470000000 1.0
C      1  0.4008750000000  0.4348680000000  0.5401400000000 1.0
C      1  0.5500740000000  0.4908730000000  0.4208180000000 1.0
C      1  0.6004140000000  0.5346230000000  0.5237510000000 1.0
C      1  0.5853120000000  0.4483810000000  0.4796360000000 1.0
C      1  0.5102280000000  0.4839270000000  0.5462060000000 1.0
C      1  0.5030080000000  0.6024970000000  0.5012970000000 1.0
C      1  0.5806310000000  0.5116960000000  0.5104170000000 1.0
C      1  0.4977060000000  0.4069190000000  0.5029780000000 1.0
C      1  0.5341120000000  0.5051340000000  0.5513310000000 1.0
C      1  0.6197520000000  0.4962910000000  0.4775110000000 1.0
C      1  0.5780410000000  0.4809000000000  0.5246800000000 1.0
C      1  0.5581610000000  0.4308510000000  0.5140970000000 1.0
C      1  0.5795890000000  0.4639260000000  0.5799450000000 1.0
C      1  0.4587610000000  0.4927420000000  0.5974580000000 1.0
C      1  0.4669750000000  0.3805400000000  0.4751280000000 1.0
C      1  0.4945750000000  0.5509290000000  0.5963550000000 1.0
C      1  0.5718150000000  0.5744140000000  0.5171990000000 1.0
C      1  0.4085800000000  0.4858180000000  0.5295570000000 1.0
C      1  0.4486750000000  0.5484950000000  0.5657850000000 1.0
C      1  0.4093280000000  0.5720420000000  0.4791770000000 1.0
C      1  0.5213690000000  0.5852400000000  0.5209800000000 1.0
C      1  0.4929220000000  0.3858790000000  0.4806110000000 1.0
C      1  0.4723950000000  0.4295940000000  0.5013850000000 1.0
C      1  0.4489260000000  0.5244960000000  0.5899070000000 1.0
C      1  0.4253200000000  0.5291930000000  0.4282910000000 1.0
C      1  0.5353910000000  0.4161100000000  0.4937890000000 1.0
C      1  0.5154240000000  0.4443630000000  0.5437290000000 1.0
C      1  0.4876600000000  0.3992320000000  0.5331230000000 1.0
C      1  0.4351270000000  0.5257650000000  0.4793220000000 1.0
C      1  0.4638740000000  0.5675420000000  0.4898550000000 1.0
C      1  0.4488190000000  0.4829310000000  0.4694030000000 1.0
C      1  0.5216280000000  0.4839650000000  0.4635660000000 1.0
C      1  0.4795390000000  0.5289500000000  0.5816820000000 1.0
C      1  0.5093480000000  0.5584020000000  0.4199180000000 1.0
C      1  0.5002510000000  0.4254350000000  0.4260440000000 1.0
C      1  0.4310450000000  0.4768310000000  0.4341770000000 1.0
C      1  0.4480740000000  0.5158970000000  0.5081970000000 1.0
C      1  0.5994940000000  0.4718240000000  0.4657520000000 1.0
C      1  0.4870920000000  0.5201680000000  0.4695180000000 1.0
C      1  0.5745850000000  0.5492620000000  0.5611560000000 1.0
C      1  0.5183480000000  0.4135180000000  0.5296990000000 1.0
C      1  0.4442670000000  0.4529080000000  0.4847040000000 1.0
C      1  0.5535780000000  0.5158480000000  0.4010270000000 1.0
C      1  0.4665660000000  0.4652580000000  0.5798890000000 1.0
C      1  0.5042460000000  0.5836260000000  0.5505930000000 1.0
C      1  0.5070710000000  0.6076730000000  0.4738940000000 1.0
C      1  0.4943540000000  0.5166590000000  0.4364850000000 1.0
C      1  0.4775820000000  0.5063820000000  0.5194430000000 1.0
C      1  0.5491730000000  0.5157680000000  0.5226810000000 1.0
C      1  0.4740780000000  0.5698560000000  0.5583570000000 1.0
C      1  0.3933240000000  0.5133690000000  0.5051870000000 1.0
C      1  0.4944860000000  0.4432770000000  0.5189840000000 1.0
C      1  0.5822100000000  0.4553020000000  0.5128090000000 1.0
C      1  0.5418400000000  0.5503960000000  0.5618720000000 1.0
C      1  0.4230930000000  0.4544490000000  0.4514490000000 1.0
C      1  0.4589080000000  0.5408140000000  0.5267680000000 1.0
C      1  0.5747750000000  0.4709650000000  0.4231180000000 1.0
C      1  0.5040830000000  0.5428870000000  0.5167550000000 1.0
C      1  0.5466050000000  0.4962110000000  0.4963370000000 1.0
END
