TITL C-2848500-1637-296 -0.000477732542972786 125000 -548.266878886048 0 0 106 (C1) n - 1
REM
REM in /home/bkarasulu/work/CARBON/AIRSS/Generating-Clusters/AIREBO/with-SteepDescent/Only-C1/SD-CG-opt/Try1-1.4A-POS3A/HFTN-CG
REM
REM
REM
REM
REM
REM ./C.cell (11c1c37f851c82e70ff6c80c92926a4b)
REM
REM compiler GCC version 9.2.1 20190827 (Red Hat 9.2.1-1)
REM options -cpp -mtune=generic -march=x86-64 -g -O0 -fpre-include=/usr/include/finclude/math-vector-fortran.h
REM seed -416241969 -1942124060 -1805338556 1035220952 289452536 858312970 47902168 -2004760872 -1182638162 -1972688747 715351875 42864159 -1860408077 -604808501 1955740211 74453928 269576135 -2047382390 49775284 -1287324153 -147418369 -284089942 -1122291175 1895626069 250712209 100462599 -872599804 1943279727 633052945 1095084529 -76714190 -367783702 630725655
REM
CELL 1.54180   50.00000   50.00000   50.00000   90.00000   90.00000   90.00000
LATT -1
SFAC C  
C      1  0.4164800000000  0.5570940000000  0.4829470000000 1.0
C      1  0.4421470000000  0.4851270000000  0.4701970000000 1.0
C      1  0.4544730000000  0.5006850000000  0.5505020000000 1.0
C      1  0.5107060000000  0.5971900000000  0.4635640000000 1.0
C      1  0.4638910000000  0.4305840000000  0.5356920000000 1.0
C      1  0.4273300000000  0.5191940000000  0.4917000000000 1.0
C      1  0.4934750000000  0.4510800000000  0.4563420000000 1.0
C      1  0.5801010000000  0.4356660000000  0.4498870000000 1.0
C      1  0.4455750000000  0.5293690000000  0.5581340000000 1.0
C      1  0.4526430000000  0.5469500000000  0.4707740000000 1.0
C      1  0.5409980000000  0.4538020000000  0.5664810000000 1.0
C      1  0.5562220000000  0.5124420000000  0.4445140000000 1.0
C      1  0.4616430000000  0.5384890000000  0.5781150000000 1.0
C      1  0.5300870000000  0.5736510000000  0.4631840000000 1.0
C      1  0.5598970000000  0.4573080000000  0.4358760000000 1.0
C      1  0.5281330000000  0.4610560000000  0.4735810000000 1.0
C      1  0.5655300000000  0.4887380000000  0.4237320000000 1.0
C      1  0.5030530000000  0.4860630000000  0.4181090000000 1.0
C      1  0.5267860000000  0.5119270000000  0.5640640000000 1.0
C      1  0.4664270000000  0.4533800000000  0.4890280000000 1.0
C      1  0.4887310000000  0.5285810000000  0.5758110000000 1.0
C      1  0.4623820000000  0.5618930000000  0.5378670000000 1.0
C      1  0.5171260000000  0.5073330000000  0.5070230000000 1.0
C      1  0.4858780000000  0.5911190000000  0.4860480000000 1.0
C      1  0.4313760000000  0.4756150000000  0.4961470000000 1.0
C      1  0.4864820000000  0.5237820000000  0.4106150000000 1.0
C      1  0.5507830000000  0.5476700000000  0.4620340000000 1.0
C      1  0.4611990000000  0.4588720000000  0.5199760000000 1.0
C      1  0.4199210000000  0.4607890000000  0.5478820000000 1.0
C      1  0.4659550000000  0.5304300000000  0.5137050000000 1.0
C      1  0.5135500000000  0.5266090000000  0.4198810000000 1.0
C      1  0.5188960000000  0.5340240000000  0.5280240000000 1.0
C      1  0.4566830000000  0.4367330000000  0.5630440000000 1.0
C      1  0.4787070000000  0.4853620000000  0.5322170000000 1.0
C      1  0.5616840000000  0.5016270000000  0.5189030000000 1.0
C      1  0.5908530000000  0.5141840000000  0.5068890000000 1.0
C      1  0.5418890000000  0.4268620000000  0.5208590000000 1.0
C      1  0.4965870000000  0.4631310000000  0.5507180000000 1.0
C      1  0.5003410000000  0.5096490000000  0.5427990000000 1.0
C      1  0.5341410000000  0.5001780000000  0.4137310000000 1.0
C      1  0.5241780000000  0.4802020000000  0.5553020000000 1.0
C      1  0.5356190000000  0.4909980000000  0.4601790000000 1.0
C      1  0.5127620000000  0.4129130000000  0.5218690000000 1.0
C      1  0.5776250000000  0.4728460000000  0.4965270000000 1.0
C      1  0.5728200000000  0.5321840000000  0.5514920000000 1.0
C      1  0.4772100000000  0.5771310000000  0.4576070000000 1.0
C      1  0.4293050000000  0.4437590000000  0.5666410000000 1.0
C      1  0.5103790000000  0.4752420000000  0.4980310000000 1.0
C      1  0.5704130000000  0.4811050000000  0.5444240000000 1.0
C      1  0.4910500000000  0.5973970000000  0.4393930000000 1.0
C      1  0.5304980000000  0.4720230000000  0.4324580000000 1.0
C      1  0.5448840000000  0.5229870000000  0.4821400000000 1.0
C      1  0.4902570000000  0.4381540000000  0.5007690000000 1.0
C      1  0.4284580000000  0.4530090000000  0.5193070000000 1.0
C      1  0.4980720000000  0.5673740000000  0.5037060000000 1.0
C      1  0.4737060000000  0.5866600000000  0.5175040000000 1.0
C      1  0.4774620000000  0.4790960000000  0.4330490000000 1.0
C      1  0.4252250000000  0.5410680000000  0.4585560000000 1.0
C      1  0.5070560000000  0.4492650000000  0.4330500000000 1.0
C      1  0.4845250000000  0.5441060000000  0.4610920000000 1.0
C      1  0.4556950000000  0.4394110000000  0.4620540000000 1.0
C      1  0.5618410000000  0.4585660000000  0.4698200000000 1.0
C      1  0.5070690000000  0.4533240000000  0.5202300000000 1.0
C      1  0.5751210000000  0.5391920000000  0.5211220000000 1.0
C      1  0.4335630000000  0.5482080000000  0.5344280000000 1.0
C      1  0.4144570000000  0.5302330000000  0.5162470000000 1.0
C      1  0.5144510000000  0.5480500000000  0.4466330000000 1.0
C      1  0.4751840000000  0.4777330000000  0.4669590000000 1.0
C      1  0.4843280000000  0.5099550000000  0.4593790000000 1.0
C      1  0.4053930000000  0.5089520000000  0.5315380000000 1.0
C      1  0.4633700000000  0.4141400000000  0.4834770000000 1.0
C      1  0.5588750000000  0.4378030000000  0.4965970000000 1.0
C      1  0.4913100000000  0.5772530000000  0.5450600000000 1.0
C      1  0.5073260000000  0.4368120000000  0.4771830000000 1.0
C      1  0.4796130000000  0.4897180000000  0.4984930000000 1.0
C      1  0.4900110000000  0.5403100000000  0.4944340000000 1.0
C      1  0.5709990000000  0.4539180000000  0.5239850000000 1.0
C      1  0.5751670000000  0.4872580000000  0.4572870000000 1.0
C      1  0.4057180000000  0.4557050000000  0.4943320000000 1.0
C      1  0.5775030000000  0.5143780000000  0.4776870000000 1.0
C      1  0.5247150000000  0.4741830000000  0.5887740000000 1.0
C      1  0.4508390000000  0.4594860000000  0.4410750000000 1.0
C      1  0.4495470000000  0.5008940000000  0.5098150000000 1.0
C      1  0.5534030000000  0.4381310000000  0.5482390000000 1.0
C      1  0.5706760000000  0.5653580000000  0.5009030000000 1.0
C      1  0.4684500000000  0.5104170000000  0.4293110000000 1.0
C      1  0.5489600000000  0.4902420000000  0.4904050000000 1.0
C      1  0.5013930000000  0.4986960000000  0.5824030000000 1.0
C      1  0.4298620000000  0.4895710000000  0.5351770000000 1.0
C      1  0.5150020000000  0.5635060000000  0.5396480000000 1.0
C      1  0.4734010000000  0.4861340000000  0.5737220000000 1.0
C      1  0.5965360000000  0.4843920000000  0.5222660000000 1.0
C      1  0.5428040000000  0.5369330000000  0.4314980000000 1.0
C      1  0.5580680000000  0.5093370000000  0.5579220000000 1.0
C      1  0.4438050000000  0.5538270000000  0.5029580000000 1.0
C      1  0.5455450000000  0.5722640000000  0.4929690000000 1.0
C      1  0.4746360000000  0.4559180000000  0.5729960000000 1.0
C      1  0.4406580000000  0.4925400000000  0.4375910000000 1.0
C      1  0.5126730000000  0.4332640000000  0.5471100000000 1.0
C      1  0.5449810000000  0.5364320000000  0.5106620000000 1.0
C      1  0.4797030000000  0.4113790000000  0.5134700000000 1.0
C      1  0.5112360000000  0.5195900000000  0.4778060000000 1.0
C      1  0.4223530000000  0.5100560000000  0.4593260000000 1.0
C      1  0.4819840000000  0.5359850000000  0.5432600000000 1.0
C      1  0.5270320000000  0.5720650000000  0.5127700000000 1.0
C      1  0.5344810000000  0.4867240000000  0.5272870000000 1.0
END
