TITL C-2847948-6138-82 -0.000546339900230067 125000 -708.373580599042 0 0 136 (C1) n - 1
REM
REM in /home/bkarasulu/work/CARBON/AIRSS/Generating-Clusters/AIREBO/with-SteepDescent/Only-C1/SD-CG-opt/Try1-1.4A-POS3A/HFTN-CG
REM
REM
REM
REM
REM
REM ./C.cell (11c1c37f851c82e70ff6c80c92926a4b)
REM
REM compiler GCC version 9.2.1 20190827 (Red Hat 9.2.1-1)
REM options -cpp -mtune=generic -march=x86-64 -g -O0 -fpre-include=/usr/include/finclude/math-vector-fortran.h
REM seed 2022881131 -2083384213 -1702276795 -1473778868 1608617289 1155131405 337276291 203057667 1502226998 -1460204861 -1827164055 1470699146 -1088710723 -1511908245 2136157537 -1266932555 -320643716 2142613153 -711184121 837713403 335283266 -214877377 -350132205 327911896 518249001 -186153576 -131501225 -670074778 -1735511946 -1011848945 -2065251394 23832770 -1018538479
REM
CELL 1.54180   50.00000   50.00000   50.00000   90.00000   90.00000   90.00000
LATT -1
SFAC C  
C      1  0.5554990000000  0.5546810000000  0.4969290000000 1.0
C      1  0.4916300000000  0.5155170000000  0.5919370000000 1.0
C      1  0.5422670000000  0.5836530000000  0.5205650000000 1.0
C      1  0.4458910000000  0.4532830000000  0.5775640000000 1.0
C      1  0.4843150000000  0.4567390000000  0.4340730000000 1.0
C      1  0.5546370000000  0.4640770000000  0.5193160000000 1.0
C      1  0.5420600000000  0.4509080000000  0.4668050000000 1.0
C      1  0.4130650000000  0.4841320000000  0.4650310000000 1.0
C      1  0.5589130000000  0.5384850000000  0.5427520000000 1.0
C      1  0.5028640000000  0.5296270000000  0.5291820000000 1.0
C      1  0.5907590000000  0.5151440000000  0.5386570000000 1.0
C      1  0.5088170000000  0.4385850000000  0.4294050000000 1.0
C      1  0.5500500000000  0.5490810000000  0.5710170000000 1.0
C      1  0.5960960000000  0.5461870000000  0.5304990000000 1.0
C      1  0.4641830000000  0.5595710000000  0.5910080000000 1.0
C      1  0.4940090000000  0.4956460000000  0.4747750000000 1.0
C      1  0.4986690000000  0.4973050000000  0.5359560000000 1.0
C      1  0.5848050000000  0.4686310000000  0.4936770000000 1.0
C      1  0.4621300000000  0.5975190000000  0.5187550000000 1.0
C      1  0.4551680000000  0.5181020000000  0.4324070000000 1.0
C      1  0.5793050000000  0.4849740000000  0.4459420000000 1.0
C      1  0.5439400000000  0.4203740000000  0.4698480000000 1.0
C      1  0.4779930000000  0.5646850000000  0.4615900000000 1.0
C      1  0.5321980000000  0.5606100000000  0.4018460000000 1.0
C      1  0.4404990000000  0.5340970000000  0.4129790000000 1.0
C      1  0.5087400000000  0.4121940000000  0.4366200000000 1.0
C      1  0.4871880000000  0.5230780000000  0.4220190000000 1.0
C      1  0.4097700000000  0.4811750000000  0.5412320000000 1.0
C      1  0.5952300000000  0.5222970000000  0.4772870000000 1.0
C      1  0.4611860000000  0.4243720000000  0.4577400000000 1.0
C      1  0.4848060000000  0.4766850000000  0.4065860000000 1.0
C      1  0.4672010000000  0.5338660000000  0.5606260000000 1.0
C      1  0.4041270000000  0.4831150000000  0.4930420000000 1.0
C      1  0.4186450000000  0.5647520000000  0.5091710000000 1.0
C      1  0.4539830000000  0.5720120000000  0.5285390000000 1.0
C      1  0.5640340000000  0.4135000000000  0.4879860000000 1.0
C      1  0.5827210000000  0.4858460000000  0.5517620000000 1.0
C      1  0.5840320000000  0.5155310000000  0.4519090000000 1.0
C      1  0.5143760000000  0.4829690000000  0.5155330000000 1.0
C      1  0.4273710000000  0.4271560000000  0.4983070000000 1.0
C      1  0.4747350000000  0.4942790000000  0.4467770000000 1.0
C      1  0.4518590000000  0.4757600000000  0.4638090000000 1.0
C      1  0.5109440000000  0.5643340000000  0.4184110000000 1.0
C      1  0.5675610000000  0.4920400000000  0.5008650000000 1.0
C      1  0.4441490000000  0.4507170000000  0.4824880000000 1.0
C      1  0.5164000000000  0.4743480000000  0.4133470000000 1.0
C      1  0.5171620000000  0.4082290000000  0.4663470000000 1.0
C      1  0.5092460000000  0.5397470000000  0.4418390000000 1.0
C      1  0.4333950000000  0.5028210000000  0.5520320000000 1.0
C      1  0.5742600000000  0.4603380000000  0.4653110000000 1.0
C      1  0.4293640000000  0.5130510000000  0.4571920000000 1.0
C      1  0.4563940000000  0.5519940000000  0.5061210000000 1.0
C      1  0.5240880000000  0.4581620000000  0.4944020000000 1.0
C      1  0.5850350000000  0.4497140000000  0.5203090000000 1.0
C      1  0.4545310000000  0.4738650000000  0.5343810000000 1.0
C      1  0.5262420000000  0.4901380000000  0.4654350000000 1.0
C      1  0.5066580000000  0.4894370000000  0.4374980000000 1.0
C      1  0.4785160000000  0.4127490000000  0.4989030000000 1.0
C      1  0.5302300000000  0.4444070000000  0.5248940000000 1.0
C      1  0.4304600000000  0.4366060000000  0.5541450000000 1.0
C      1  0.4171830000000  0.5170040000000  0.5257090000000 1.0
C      1  0.5282070000000  0.5296430000000  0.5844880000000 1.0
C      1  0.4719250000000  0.5249850000000  0.5166920000000 1.0
C      1  0.4382970000000  0.4815680000000  0.5833650000000 1.0
C      1  0.4907140000000  0.4553410000000  0.5003480000000 1.0
C      1  0.4333560000000  0.5574040000000  0.4816990000000 1.0
C      1  0.5583770000000  0.4435790000000  0.4181890000000 1.0
C      1  0.4885960000000  0.5818980000000  0.5573870000000 1.0
C      1  0.5496140000000  0.5410190000000  0.4096170000000 1.0
C      1  0.4619010000000  0.4709000000000  0.5017280000000 1.0
C      1  0.5545360000000  0.4020530000000  0.5110060000000 1.0
C      1  0.4820160000000  0.5311170000000  0.4603010000000 1.0
C      1  0.4662920000000  0.5044720000000  0.5435170000000 1.0
C      1  0.5442560000000  0.5172190000000  0.5211320000000 1.0
C      1  0.5359010000000  0.4969080000000  0.4951590000000 1.0
C      1  0.5209360000000  0.4495030000000  0.5543360000000 1.0
C      1  0.4518610000000  0.4819990000000  0.4247480000000 1.0
C      1  0.5372630000000  0.4567350000000  0.4336140000000 1.0
C      1  0.4676130000000  0.5655850000000  0.5516250000000 1.0
C      1  0.4350240000000  0.5153830000000  0.5815480000000 1.0
C      1  0.4409570000000  0.5455610000000  0.5788110000000 1.0
C      1  0.5075450000000  0.5266810000000  0.4821420000000 1.0
C      1  0.4943420000000  0.5055610000000  0.4020390000000 1.0
C      1  0.4894930000000  0.4627820000000  0.4671950000000 1.0
C      1  0.4172550000000  0.5477810000000  0.5274720000000 1.0
C      1  0.4452010000000  0.5009470000000  0.4815020000000 1.0
C      1  0.5254710000000  0.5416990000000  0.5068350000000 1.0
C      1  0.5009500000000  0.5784350000000  0.4467670000000 1.0
C      1  0.5835130000000  0.4357400000000  0.4890670000000 1.0
C      1  0.5261500000000  0.4125280000000  0.5189550000000 1.0
C      1  0.4123640000000  0.4678990000000  0.5166210000000 1.0
C      1  0.5172940000000  0.6005740000000  0.4640780000000 1.0
C      1  0.4701230000000  0.4363740000000  0.5196650000000 1.0
C      1  0.5166830000000  0.5761190000000  0.5416660000000 1.0
C      1  0.5718410000000  0.5748910000000  0.4750000000000 1.0
C      1  0.5949580000000  0.4612930000000  0.5449030000000 1.0
C      1  0.4799630000000  0.4911810000000  0.5716790000000 1.0
C      1  0.5170010000000  0.5152560000000  0.5565880000000 1.0
C      1  0.4881750000000  0.5984390000000  0.5094220000000 1.0
C      1  0.5674750000000  0.5642620000000  0.5260600000000 1.0
C      1  0.5522320000000  0.4906540000000  0.5374710000000 1.0
C      1  0.5004880000000  0.4659290000000  0.5768090000000 1.0
C      1  0.4930690000000  0.4339080000000  0.5544400000000 1.0
C      1  0.5261970000000  0.5618610000000  0.4623910000000 1.0
C      1  0.5066630000000  0.5699020000000  0.5097740000000 1.0
C      1  0.4917510000000  0.5452320000000  0.5814440000000 1.0
C      1  0.4938940000000  0.4143990000000  0.5300630000000 1.0
C      1  0.5689740000000  0.5145900000000  0.5647580000000 1.0
C      1  0.5417290000000  0.4616740000000  0.5723050000000 1.0
C      1  0.5639610000000  0.5351290000000  0.4397360000000 1.0
C      1  0.5182970000000  0.5577470000000  0.5680470000000 1.0
C      1  0.5294940000000  0.5833940000000  0.4889690000000 1.0
C      1  0.5846170000000  0.5151820000000  0.5081760000000 1.0
C      1  0.4901570000000  0.4283880000000  0.4710180000000 1.0
C      1  0.4690160000000  0.4561030000000  0.5543900000000 1.0
C      1  0.4613170000000  0.5017090000000  0.5982120000000 1.0
C      1  0.5683160000000  0.4822810000000  0.4133070000000 1.0
C      1  0.5149460000000  0.4926080000000  0.5905530000000 1.0
C      1  0.5075550000000  0.4016500000000  0.4950090000000 1.0
C      1  0.4402870000000  0.4146470000000  0.4743630000000 1.0
C      1  0.4377780000000  0.4467190000000  0.5225420000000 1.0
C      1  0.5354940000000  0.5201640000000  0.4316860000000 1.0
C      1  0.4865160000000  0.5530380000000  0.4923800000000 1.0
C      1  0.5464140000000  0.4891490000000  0.4383980000000 1.0
C      1  0.3934380000000  0.5293670000000  0.4832710000000 1.0
C      1  0.5561010000000  0.5583830000000  0.4571400000000 1.0
C      1  0.4775640000000  0.4421820000000  0.5842090000000 1.0
C      1  0.4405050000000  0.4959700000000  0.5126810000000 1.0
C      1  0.4285960000000  0.4646270000000  0.4419050000000 1.0
C      1  0.5884750000000  0.5467830000000  0.4972760000000 1.0
C      1  0.4154190000000  0.5368100000000  0.4686590000000 1.0
C      1  0.4698020000000  0.5156210000000  0.4878520000000 1.0
C      1  0.3975750000000  0.5092110000000  0.5026860000000 1.0
C      1  0.4508670000000  0.5736730000000  0.4618240000000 1.0
C      1  0.4561000000000  0.4448590000000  0.4388770000000 1.0
C      1  0.5413760000000  0.4952460000000  0.5693220000000 1.0
END
