TITL C-2847959-7740-335 0.00125588249951604 125000 -811.486798173716 0 0 155 (C1) n - 1
REM
REM in /home/bkarasulu/work/CARBON/AIRSS/Generating-Clusters/AIREBO/with-SteepDescent/Only-C1/SD-CG-opt/Try1-1.4A-POS3A/HFTN-CG
REM
REM
REM
REM
REM
REM ./C.cell (11c1c37f851c82e70ff6c80c92926a4b)
REM
REM compiler GCC version 9.2.1 20190827 (Red Hat 9.2.1-1)
REM options -cpp -mtune=generic -march=x86-64 -g -O0 -fpre-include=/usr/include/finclude/math-vector-fortran.h
REM seed 608180166 -1052623662 1406016937 659922895 1423523272 -20298223 -475312544 349292470 1471608529 1012359008 -112535381 424930912 649883204 -1781957907 2128473310 782553097 1204253532 -1828459675 -339591093 -546425491 -1000941918 274637313 -1714291133 1704226466 -1437045531 -1544837840 -417633971 401183088 -205919969 1410820279 1080280223 1296246090 1522635630
REM
CELL 1.54180   50.00000   50.00000   50.00000   90.00000   90.00000   90.00000
LATT -1
SFAC C  
C      1  0.5284570000000  0.5959870000000  0.4504590000000 1.0
C      1  0.4458720000000  0.5750720000000  0.4847740000000 1.0
C      1  0.5733480000000  0.4749030000000  0.5679020000000 1.0
C      1  0.5404090000000  0.4437120000000  0.4261890000000 1.0
C      1  0.4618420000000  0.4523430000000  0.4613820000000 1.0
C      1  0.5166820000000  0.4713590000000  0.5698880000000 1.0
C      1  0.5116440000000  0.4922120000000  0.5210370000000 1.0
C      1  0.5772560000000  0.4456680000000  0.5529730000000 1.0
C      1  0.5262750000000  0.5203350000000  0.5661910000000 1.0
C      1  0.4739210000000  0.4131930000000  0.4914600000000 1.0
C      1  0.5831620000000  0.4597090000000  0.5251700000000 1.0
C      1  0.4122100000000  0.4706420000000  0.4874170000000 1.0
C      1  0.4823630000000  0.5328230000000  0.4924080000000 1.0
C      1  0.5164370000000  0.3979970000000  0.5171900000000 1.0
C      1  0.5642740000000  0.4873690000000  0.5310280000000 1.0
C      1  0.5514920000000  0.5062650000000  0.5562430000000 1.0
C      1  0.4710820000000  0.5022650000000  0.4035450000000 1.0
C      1  0.4915870000000  0.4346730000000  0.5110580000000 1.0
C      1  0.5056120000000  0.4032440000000  0.5417620000000 1.0
C      1  0.4966580000000  0.4623590000000  0.4218770000000 1.0
C      1  0.5629000000000  0.5157440000000  0.4292840000000 1.0
C      1  0.4591520000000  0.4075990000000  0.4626460000000 1.0
C      1  0.4929630000000  0.5787400000000  0.4648870000000 1.0
C      1  0.5438090000000  0.5709100000000  0.5089520000000 1.0
C      1  0.5483100000000  0.5527480000000  0.4267150000000 1.0
C      1  0.4160400000000  0.4844080000000  0.5377940000000 1.0
C      1  0.5698660000000  0.5126090000000  0.4697640000000 1.0
C      1  0.5888240000000  0.5107450000000  0.5338690000000 1.0
C      1  0.5002570000000  0.5176450000000  0.4019370000000 1.0
C      1  0.4938760000000  0.5308380000000  0.4604570000000 1.0
C      1  0.6180170000000  0.5138550000000  0.4812450000000 1.0
C      1  0.5593910000000  0.4651570000000  0.4248690000000 1.0
C      1  0.4950030000000  0.5173560000000  0.5607100000000 1.0
C      1  0.4225140000000  0.4585050000000  0.4221870000000 1.0
C      1  0.5376370000000  0.5710900000000  0.5588500000000 1.0
C      1  0.5474100000000  0.4947160000000  0.6002200000000 1.0
C      1  0.5666790000000  0.5742250000000  0.5505680000000 1.0
C      1  0.5644740000000  0.5412170000000  0.4517670000000 1.0
C      1  0.5122920000000  0.4446080000000  0.4730560000000 1.0
C      1  0.5701090000000  0.5736770000000  0.5238780000000 1.0
C      1  0.4188410000000  0.5066380000000  0.4265750000000 1.0
C      1  0.5445290000000  0.4677800000000  0.5506520000000 1.0
C      1  0.4987490000000  0.4709260000000  0.5990520000000 1.0
C      1  0.4459730000000  0.5614540000000  0.5431240000000 1.0
C      1  0.4438780000000  0.5818640000000  0.5160100000000 1.0
C      1  0.4683950000000  0.4708060000000  0.4065590000000 1.0
C      1  0.4551410000000  0.5154120000000  0.5623700000000 1.0
C      1  0.4676460000000  0.5222560000000  0.4308380000000 1.0
C      1  0.5257030000000  0.5139370000000  0.5964410000000 1.0
C      1  0.4685290000000  0.4370780000000  0.5678870000000 1.0
C      1  0.4162250000000  0.5003290000000  0.5791560000000 1.0
C      1  0.4980960000000  0.4903010000000  0.4780660000000 1.0
C      1  0.4403580000000  0.4539840000000  0.5739200000000 1.0
C      1  0.5975080000000  0.5321380000000  0.5102310000000 1.0
C      1  0.4594940000000  0.4435340000000  0.4224630000000 1.0
C      1  0.4701290000000  0.4410710000000  0.5344590000000 1.0
C      1  0.3802850000000  0.4639520000000  0.4803020000000 1.0
C      1  0.5436110000000  0.4931960000000  0.4132110000000 1.0
C      1  0.5000850000000  0.4914290000000  0.6172760000000 1.0
C      1  0.4045460000000  0.5162990000000  0.5589890000000 1.0
C      1  0.4278900000000  0.4076670000000  0.4670310000000 1.0
C      1  0.4713130000000  0.4195670000000  0.4407510000000 1.0
C      1  0.5552820000000  0.4178950000000  0.5147770000000 1.0
C      1  0.4542980000000  0.5135920000000  0.5294210000000 1.0
C      1  0.5395900000000  0.4679900000000  0.5947900000000 1.0
C      1  0.4410170000000  0.4209860000000  0.4954280000000 1.0
C      1  0.4312610000000  0.4683020000000  0.5146200000000 1.0
C      1  0.5441950000000  0.4491920000000  0.5071410000000 1.0
C      1  0.6058500000000  0.4993820000000  0.5065510000000 1.0
C      1  0.4982210000000  0.5436400000000  0.5820730000000 1.0
C      1  0.4788650000000  0.4091760000000  0.5415130000000 1.0
C      1  0.4206520000000  0.4399030000000  0.4758330000000 1.0
C      1  0.5318620000000  0.4394880000000  0.5886170000000 1.0
C      1  0.5316470000000  0.4708010000000  0.3910890000000 1.0
C      1  0.5362690000000  0.4311350000000  0.4530260000000 1.0
C      1  0.5611570000000  0.4880850000000  0.4489870000000 1.0
C      1  0.5209970000000  0.5352910000000  0.4164520000000 1.0
C      1  0.5085100000000  0.5690710000000  0.5737050000000 1.0
C      1  0.5361780000000  0.4688130000000  0.4735040000000 1.0
C      1  0.4238450000000  0.5554530000000  0.5172900000000 1.0
C      1  0.5363080000000  0.4819110000000  0.5030830000000 1.0
C      1  0.4709700000000  0.5359670000000  0.3990310000000 1.0
C      1  0.4671050000000  0.4738590000000  0.5427650000000 1.0
C      1  0.4901370000000  0.4466360000000  0.4477860000000 1.0
C      1  0.4157030000000  0.5492480000000  0.4866150000000 1.0
C      1  0.4251760000000  0.5284550000000  0.5343910000000 1.0
C      1  0.5046620000000  0.5734540000000  0.5025930000000 1.0
C      1  0.4914890000000  0.5855830000000  0.5552520000000 1.0
C      1  0.4762620000000  0.5690420000000  0.5352770000000 1.0
C      1  0.4459910000000  0.5680870000000  0.4423600000000 1.0
C      1  0.5213380000000  0.5448420000000  0.5446360000000 1.0
C      1  0.4609830000000  0.5062300000000  0.4969030000000 1.0
C      1  0.4347950000000  0.4404630000000  0.4456280000000 1.0
C      1  0.4218330000000  0.5741710000000  0.4642290000000 1.0
C      1  0.4928780000000  0.4639860000000  0.4938800000000 1.0
C      1  0.5575800000000  0.5335050000000  0.5120120000000 1.0
C      1  0.4247240000000  0.5211300000000  0.4537250000000 1.0
C      1  0.4611220000000  0.4836020000000  0.4372090000000 1.0
C      1  0.5825970000000  0.5285390000000  0.5607330000000 1.0
C      1  0.4329060000000  0.4836970000000  0.4227300000000 1.0
C      1  0.5830520000000  0.4395450000000  0.4786530000000 1.0
C      1  0.4594850000000  0.4850100000000  0.4694150000000 1.0
C      1  0.4879160000000  0.5149360000000  0.5303540000000 1.0
C      1  0.4984520000000  0.5520940000000  0.4357020000000 1.0
C      1  0.4876430000000  0.4884190000000  0.5651470000000 1.0
C      1  0.5677100000000  0.4195970000000  0.4605010000000 1.0
C      1  0.4256230000000  0.4527750000000  0.5446230000000 1.0
C      1  0.5315310000000  0.5206330000000  0.4435620000000 1.0
C      1  0.4512610000000  0.5378500000000  0.4510180000000 1.0
C      1  0.4847740000000  0.6029400000000  0.4845950000000 1.0
C      1  0.5191110000000  0.5948640000000  0.5453340000000 1.0
C      1  0.5340090000000  0.6028340000000  0.4833030000000 1.0
C      1  0.5231150000000  0.5385680000000  0.4668640000000 1.0
C      1  0.4009310000000  0.5019060000000  0.4974540000000 1.0
C      1  0.5212230000000  0.4203770000000  0.5624940000000 1.0
C      1  0.6008720000000  0.5202410000000  0.4638180000000 1.0
C      1  0.4708630000000  0.4655510000000  0.5838970000000 1.0
C      1  0.5920590000000  0.4735850000000  0.4979880000000 1.0
C      1  0.5206040000000  0.4505430000000  0.4074330000000 1.0
C      1  0.4994860000000  0.4432740000000  0.5614180000000 1.0
C      1  0.5303020000000  0.5412160000000  0.4990920000000 1.0
C      1  0.4462360000000  0.5470040000000  0.5688760000000 1.0
C      1  0.5467650000000  0.4343970000000  0.5488600000000 1.0
C      1  0.5789350000000  0.5547100000000  0.4996650000000 1.0
C      1  0.5246420000000  0.5960260000000  0.5152740000000 1.0
C      1  0.5812290000000  0.4342770000000  0.5062340000000 1.0
C      1  0.4686640000000  0.5307860000000  0.5875450000000 1.0
C      1  0.5280810000000  0.4896380000000  0.4520920000000 1.0
C      1  0.4713680000000  0.5603780000000  0.4203840000000 1.0
C      1  0.4967520000000  0.5459380000000  0.5203290000000 1.0
C      1  0.5459390000000  0.4261320000000  0.4841030000000 1.0
C      1  0.5604600000000  0.5035630000000  0.5013500000000 1.0
C      1  0.4563240000000  0.4485750000000  0.4908500000000 1.0
C      1  0.4743610000000  0.5860290000000  0.4403520000000 1.0
C      1  0.5542010000000  0.5360640000000  0.5425190000000 1.0
C      1  0.5733680000000  0.5037870000000  0.5821530000000 1.0
C      1  0.4944930000000  0.5213120000000  0.6075260000000 1.0
C      1  0.5248340000000  0.5709430000000  0.4338120000000 1.0
C      1  0.4885410000000  0.5010380000000  0.4472510000000 1.0
C      1  0.4748000000000  0.5885440000000  0.5086440000000 1.0
C      1  0.5104140000000  0.5143970000000  0.4964540000000 1.0
C      1  0.3986070000000  0.5084940000000  0.5272030000000 1.0
C      1  0.5249980000000  0.5714480000000  0.4737500000000 1.0
C      1  0.5702450000000  0.4672490000000  0.4733670000000 1.0
C      1  0.5207400000000  0.4400540000000  0.5277160000000 1.0
C      1  0.4641970000000  0.4745380000000  0.5088670000000 1.0
C      1  0.4411030000000  0.4855500000000  0.5613030000000 1.0
C      1  0.5572300000000  0.5605450000000  0.4744320000000 1.0
C      1  0.3968710000000  0.5246180000000  0.4729100000000 1.0
C      1  0.4307370000000  0.4942800000000  0.4721680000000 1.0
C      1  0.5079560000000  0.4148000000000  0.4888480000000 1.0
C      1  0.4298300000000  0.5193750000000  0.4932850000000 1.0
C      1  0.5068850000000  0.4673320000000  0.5375710000000 1.0
C      1  0.4678680000000  0.5575050000000  0.4740360000000 1.0
C      1  0.5110200000000  0.4931740000000  0.4229740000000 1.0
END
