TITL C-2848502-4955-115 -0.000853569880694589 125000 -607.644495121736 0 0 113 (C1) n - 1
REM
REM in /home/bkarasulu/work/CARBON/AIRSS/Generating-Clusters/AIREBO/with-SteepDescent/Only-C1/SD-CG-opt/Try1-1.4A-POS3A/HFTN-CG
REM
REM
REM
REM
REM
REM ./C.cell (11c1c37f851c82e70ff6c80c92926a4b)
REM
REM compiler GCC version 9.2.1 20190827 (Red Hat 9.2.1-1)
REM options -cpp -mtune=generic -march=x86-64 -g -O0 -fpre-include=/usr/include/finclude/math-vector-fortran.h
REM seed 1414485553 1232527093 399148369 -216114315 -114048623 2065112045 -665966582 632341009 17836103 2086917665 -154210621 278352531 -1068629488 2023760523 975371053 -314929696 1818973181 44322840 -1332896109 768299564 -37680537 -1580230559 341829667 -296164154 423079288 -144904704 1619036451 -253263531 -1737497526 -1238990332 1855214678 -1895714941 1665912467
REM
CELL 1.54180   50.00000   50.00000   50.00000   90.00000   90.00000   90.00000
LATT -1
SFAC C  
C      1  0.4270290000000  0.5345900000000  0.5248360000000 1.0
C      1  0.4625400000000  0.4996840000000  0.4147660000000 1.0
C      1  0.4834240000000  0.5731880000000  0.4291700000000 1.0
C      1  0.4189700000000  0.4998560000000  0.4539300000000 1.0
C      1  0.4753670000000  0.5536290000000  0.4847630000000 1.0
C      1  0.4423080000000  0.5469160000000  0.5455840000000 1.0
C      1  0.5050210000000  0.5371930000000  0.5300420000000 1.0
C      1  0.4554140000000  0.4676040000000  0.4884640000000 1.0
C      1  0.4482670000000  0.5585650000000  0.4723270000000 1.0
C      1  0.4980640000000  0.5725580000000  0.4971810000000 1.0
C      1  0.5003100000000  0.5909140000000  0.4172940000000 1.0
C      1  0.4432630000000  0.5016490000000  0.4717030000000 1.0
C      1  0.4851930000000  0.4617320000000  0.4535530000000 1.0
C      1  0.4760010000000  0.4599370000000  0.5811360000000 1.0
C      1  0.5940890000000  0.5015090000000  0.4940630000000 1.0
C      1  0.5600560000000  0.5648000000000  0.5281020000000 1.0
C      1  0.5726280000000  0.5010210000000  0.4376090000000 1.0
C      1  0.4565450000000  0.4732110000000  0.4281890000000 1.0
C      1  0.5451030000000  0.5243240000000  0.5060570000000 1.0
C      1  0.4265150000000  0.4708000000000  0.5315270000000 1.0
C      1  0.4555660000000  0.4504330000000  0.5622860000000 1.0
C      1  0.5838140000000  0.5280120000000  0.4392930000000 1.0
C      1  0.4346630000000  0.4520370000000  0.4682420000000 1.0
C      1  0.5119380000000  0.5260780000000  0.4747460000000 1.0
C      1  0.5767940000000  0.4965010000000  0.5620880000000 1.0
C      1  0.5491610000000  0.4687580000000  0.5050770000000 1.0
C      1  0.6018670000000  0.4722730000000  0.4988180000000 1.0
C      1  0.5477010000000  0.5657760000000  0.5037600000000 1.0
C      1  0.5326650000000  0.4319880000000  0.4783120000000 1.0
C      1  0.5128700000000  0.4932410000000  0.5767420000000 1.0
C      1  0.4340540000000  0.4727380000000  0.4454180000000 1.0
C      1  0.4562880000000  0.4271990000000  0.4707460000000 1.0
C      1  0.5116950000000  0.5953650000000  0.4823270000000 1.0
C      1  0.5505830000000  0.4986780000000  0.4183920000000 1.0
C      1  0.4637310000000  0.4778910000000  0.5439550000000 1.0
C      1  0.4486400000000  0.5962290000000  0.4910690000000 1.0
C      1  0.4202580000000  0.5040710000000  0.5347990000000 1.0
C      1  0.4584800000000  0.5043390000000  0.5732860000000 1.0
C      1  0.5476440000000  0.5448590000000  0.4414160000000 1.0
C      1  0.4821370000000  0.4519600000000  0.4211310000000 1.0
C      1  0.4257630000000  0.5448730000000  0.4924300000000 1.0
C      1  0.4546240000000  0.4553090000000  0.5202210000000 1.0
C      1  0.5217050000000  0.4957410000000  0.4738000000000 1.0
C      1  0.5288480000000  0.4350950000000  0.5116200000000 1.0
C      1  0.5036890000000  0.4443130000000  0.5779980000000 1.0
C      1  0.4862650000000  0.4254910000000  0.5567900000000 1.0
C      1  0.4978100000000  0.5809480000000  0.5523810000000 1.0
C      1  0.4592660000000  0.5286830000000  0.4270460000000 1.0
C      1  0.4891530000000  0.5436560000000  0.4324850000000 1.0
C      1  0.5742780000000  0.5410250000000  0.5425300000000 1.0
C      1  0.5424420000000  0.5041220000000  0.5332800000000 1.0
C      1  0.4722660000000  0.5845710000000  0.5418140000000 1.0
C      1  0.5388000000000  0.4704600000000  0.5366310000000 1.0
C      1  0.5881910000000  0.4412550000000  0.4961250000000 1.0
C      1  0.4430580000000  0.5509170000000  0.4395400000000 1.0
C      1  0.5627630000000  0.5697340000000  0.4815130000000 1.0
C      1  0.5044610000000  0.4317920000000  0.4356460000000 1.0
C      1  0.4380180000000  0.4931300000000  0.5007560000000 1.0
C      1  0.4826200000000  0.4379330000000  0.5291930000000 1.0
C      1  0.5026470000000  0.5317180000000  0.5826360000000 1.0
C      1  0.4098760000000  0.5232200000000  0.4736510000000 1.0
C      1  0.5023400000000  0.4104080000000  0.5801980000000 1.0
C      1  0.5689950000000  0.5451040000000  0.4641730000000 1.0
C      1  0.4610860000000  0.5269640000000  0.5575760000000 1.0
C      1  0.5681370000000  0.5204930000000  0.4853290000000 1.0
C      1  0.4419050000000  0.4297680000000  0.5481090000000 1.0
C      1  0.4933970000000  0.4834270000000  0.5431210000000 1.0
C      1  0.5114800000000  0.4673680000000  0.4133300000000 1.0
C      1  0.5434650000000  0.5535890000000  0.5538080000000 1.0
C      1  0.5211300000000  0.4652510000000  0.5652150000000 1.0
C      1  0.4471960000000  0.5912360000000  0.4629280000000 1.0
C      1  0.5747280000000  0.5133680000000  0.5386870000000 1.0
C      1  0.4875060000000  0.4126220000000  0.5114660000000 1.0
C      1  0.4928250000000  0.4899570000000  0.4264700000000 1.0
C      1  0.5088830000000  0.4591390000000  0.5250280000000 1.0
C      1  0.5147190000000  0.5605980000000  0.5488730000000 1.0
C      1  0.4702170000000  0.5821280000000  0.5121630000000 1.0
C      1  0.4990700000000  0.5148070000000  0.5549430000000 1.0
C      1  0.4916340000000  0.4020510000000  0.4895340000000 1.0
C      1  0.5230500000000  0.4489090000000  0.4522050000000 1.0
C      1  0.5130910000000  0.4789230000000  0.4514500000000 1.0
C      1  0.5437790000000  0.5217360000000  0.5623630000000 1.0
C      1  0.4843950000000  0.5260260000000  0.4946930000000 1.0
C      1  0.6089130000000  0.4519210000000  0.4724260000000 1.0
C      1  0.4357280000000  0.4279870000000  0.5174040000000 1.0
C      1  0.5275460000000  0.5365200000000  0.5861830000000 1.0
C      1  0.4352670000000  0.4872630000000  0.5602620000000 1.0
C      1  0.5684530000000  0.4934560000000  0.4647130000000 1.0
C      1  0.5155810000000  0.5359800000000  0.4461340000000 1.0
C      1  0.5355320000000  0.4775600000000  0.4056160000000 1.0
C      1  0.5468670000000  0.4927150000000  0.5777790000000 1.0
C      1  0.5112440000000  0.4988190000000  0.5208410000000 1.0
C      1  0.4075900000000  0.4791860000000  0.5066550000000 1.0
C      1  0.4742030000000  0.5270360000000  0.5264630000000 1.0
C      1  0.4801460000000  0.4883830000000  0.5820580000000 1.0
C      1  0.4488450000000  0.5734070000000  0.5530460000000 1.0
C      1  0.4731300000000  0.4888630000000  0.4684640000000 1.0
C      1  0.4378850000000  0.5718460000000  0.5083440000000 1.0
C      1  0.5592330000000  0.4405710000000  0.4966190000000 1.0
C      1  0.4941870000000  0.4605700000000  0.4946370000000 1.0
C      1  0.5633850000000  0.4681860000000  0.5599020000000 1.0
C      1  0.4962070000000  0.4941490000000  0.4928740000000 1.0
C      1  0.4843290000000  0.4375930000000  0.4727360000000 1.0
C      1  0.4818530000000  0.5134380000000  0.4466090000000 1.0
C      1  0.5198470000000  0.5464880000000  0.5007750000000 1.0
C      1  0.4530370000000  0.5040900000000  0.5257670000000 1.0
C      1  0.4309770000000  0.4257840000000  0.4902530000000 1.0
C      1  0.5472710000000  0.4865380000000  0.4837640000000 1.0
C      1  0.5363600000000  0.5227470000000  0.4225810000000 1.0
C      1  0.6103460000000  0.4566800000000  0.5255980000000 1.0
C      1  0.5074740000000  0.4148740000000  0.4651590000000 1.0
C      1  0.6052900000000  0.4298940000000  0.5260480000000 1.0
C      1  0.4570450000000  0.5774860000000  0.4383420000000 1.0
END
