TITL C-2848509-3138-568 0.000267540458677533 125000 -617.439089395289 0 0 119 (C1) n - 1
REM
REM in /home/bkarasulu/work/CARBON/AIRSS/Generating-Clusters/AIREBO/with-SteepDescent/Only-C1/SD-CG-opt/Try1-1.4A-POS3A/HFTN-CG
REM
REM
REM
REM
REM
REM ./C.cell (11c1c37f851c82e70ff6c80c92926a4b)
REM
REM compiler GCC version 9.2.1 20190827 (Red Hat 9.2.1-1)
REM options -cpp -mtune=generic -march=x86-64 -g -O0 -fpre-include=/usr/include/finclude/math-vector-fortran.h
REM seed -954495740 -417101768 381407527 -807602951 -1361806194 -23616362 889414492 251965431 1998612235 -922682309 1316184033 664611997 -852533086 594737389 -119525005 -833617192 1502330933 203608891 -1367479193 -458329185 -1487134219 -108836762 -1413317610 1798519734 807779410 -305667834 -517306125 601743885 -847538673 1227104582 753288837 1860384034 1030221858
REM
CELL 1.54180   50.00000   50.00000   50.00000   90.00000   90.00000   90.00000
LATT -1
SFAC C  
C      1  0.4850950000000  0.4740780000000  0.5318460000000 1.0
C      1  0.5545250000000  0.5673360000000  0.5019720000000 1.0
C      1  0.4496730000000  0.5540000000000  0.4415490000000 1.0
C      1  0.5829210000000  0.5053720000000  0.5487660000000 1.0
C      1  0.4721620000000  0.5348690000000  0.4555610000000 1.0
C      1  0.5613610000000  0.5584290000000  0.5281190000000 1.0
C      1  0.5165470000000  0.4884170000000  0.4364790000000 1.0
C      1  0.5169410000000  0.4035800000000  0.4702140000000 1.0
C      1  0.4934010000000  0.4645640000000  0.4292960000000 1.0
C      1  0.5848520000000  0.5338590000000  0.5302830000000 1.0
C      1  0.4381960000000  0.4743570000000  0.5283470000000 1.0
C      1  0.4350150000000  0.5244430000000  0.4715710000000 1.0
C      1  0.5288420000000  0.5041030000000  0.4145320000000 1.0
C      1  0.4063640000000  0.5251410000000  0.5009180000000 1.0
C      1  0.4143610000000  0.5601800000000  0.4774820000000 1.0
C      1  0.5655120000000  0.5476310000000  0.4801550000000 1.0
C      1  0.4953450000000  0.5263580000000  0.5275370000000 1.0
C      1  0.4472070000000  0.4493130000000  0.5479120000000 1.0
C      1  0.5950910000000  0.5119600000000  0.4525790000000 1.0
C      1  0.4594740000000  0.4294610000000  0.4681140000000 1.0
C      1  0.5647790000000  0.5218150000000  0.4496630000000 1.0
C      1  0.4822370000000  0.4615020000000  0.4612800000000 1.0
C      1  0.4768060000000  0.5014980000000  0.5225050000000 1.0
C      1  0.5157870000000  0.5378610000000  0.4575460000000 1.0
C      1  0.5733980000000  0.4500510000000  0.5176710000000 1.0
C      1  0.5621020000000  0.5230400000000  0.5613490000000 1.0
C      1  0.4313650000000  0.4930320000000  0.4671550000000 1.0
C      1  0.5655710000000  0.5251230000000  0.5048230000000 1.0
C      1  0.4233870000000  0.5534350000000  0.5095670000000 1.0
C      1  0.4447510000000  0.5309050000000  0.5875890000000 1.0
C      1  0.5140590000000  0.4528430000000  0.5012830000000 1.0
C      1  0.5467580000000  0.5438840000000  0.4553760000000 1.0
C      1  0.5185470000000  0.5376440000000  0.5957060000000 1.0
C      1  0.4884680000000  0.4810690000000  0.5993270000000 1.0
C      1  0.4484660000000  0.5113610000000  0.5172130000000 1.0
C      1  0.5077760000000  0.5601820000000  0.4205530000000 1.0
C      1  0.5265170000000  0.4835290000000  0.5446970000000 1.0
C      1  0.4666090000000  0.4779340000000  0.5792320000000 1.0
C      1  0.5292350000000  0.3816260000000  0.4637940000000 1.0
C      1  0.5811740000000  0.4963140000000  0.4992850000000 1.0
C      1  0.4643920000000  0.4587790000000  0.5131010000000 1.0
C      1  0.5743420000000  0.4801800000000  0.5272970000000 1.0
C      1  0.4540870000000  0.5327390000000  0.4947340000000 1.0
C      1  0.4416350000000  0.5475720000000  0.5357480000000 1.0
C      1  0.4791670000000  0.4540750000000  0.5585150000000 1.0
C      1  0.5145180000000  0.5304920000000  0.4072810000000 1.0
C      1  0.4740290000000  0.4123080000000  0.4936100000000 1.0
C      1  0.5550400000000  0.4342900000000  0.5349940000000 1.0
C      1  0.4826310000000  0.5673580000000  0.5581840000000 1.0
C      1  0.4309100000000  0.4370320000000  0.5201870000000 1.0
C      1  0.4248270000000  0.4966790000000  0.4983230000000 1.0
C      1  0.5239400000000  0.4330310000000  0.5488310000000 1.0
C      1  0.4279140000000  0.4627320000000  0.4980920000000 1.0
C      1  0.5270650000000  0.5051550000000  0.5872410000000 1.0
C      1  0.4340850000000  0.5304500000000  0.4267380000000 1.0
C      1  0.5030790000000  0.5543330000000  0.5141770000000 1.0
C      1  0.4976380000000  0.5653240000000  0.4519910000000 1.0
C      1  0.5040170000000  0.4877800000000  0.5698350000000 1.0
C      1  0.5104250000000  0.5595360000000  0.5697860000000 1.0
C      1  0.3966490000000  0.5056380000000  0.5250110000000 1.0
C      1  0.4369240000000  0.5163730000000  0.5480910000000 1.0
C      1  0.4239960000000  0.4658430000000  0.4481150000000 1.0
C      1  0.4185540000000  0.4946730000000  0.5377740000000 1.0
C      1  0.4884730000000  0.4644560000000  0.4913780000000 1.0
C      1  0.5639110000000  0.4998880000000  0.4738990000000 1.0
C      1  0.5127580000000  0.4573160000000  0.5311870000000 1.0
C      1  0.5307950000000  0.4880710000000  0.5133930000000 1.0
C      1  0.4594360000000  0.4817320000000  0.4572870000000 1.0
C      1  0.5293300000000  0.4200890000000  0.5178520000000 1.0
C      1  0.4497360000000  0.5784220000000  0.5475710000000 1.0
C      1  0.5240710000000  0.4498690000000  0.4291020000000 1.0
C      1  0.5135500000000  0.5735110000000  0.5325180000000 1.0
C      1  0.5351070000000  0.5013120000000  0.4823740000000 1.0
C      1  0.5528810000000  0.4663160000000  0.4295750000000 1.0
C      1  0.5717330000000  0.4505340000000  0.4532800000000 1.0
C      1  0.5104000000000  0.5186420000000  0.4980410000000 1.0
C      1  0.6049700000000  0.5318090000000  0.5029620000000 1.0
C      1  0.5108400000000  0.4544880000000  0.5709470000000 1.0
C      1  0.4743140000000  0.5048150000000  0.4430870000000 1.0
C      1  0.4849410000000  0.5352920000000  0.4828350000000 1.0
C      1  0.4618610000000  0.4274970000000  0.5179530000000 1.0
C      1  0.4831790000000  0.5216500000000  0.5564300000000 1.0
C      1  0.4578510000000  0.5048710000000  0.5693700000000 1.0
C      1  0.4724150000000  0.5610800000000  0.5011230000000 1.0
C      1  0.3909420000000  0.5286330000000  0.4736680000000 1.0
C      1  0.5048890000000  0.5088530000000  0.4574000000000 1.0
C      1  0.4500000000000  0.5082950000000  0.4195740000000 1.0
C      1  0.4980240000000  0.4117060000000  0.5182320000000 1.0
C      1  0.5271340000000  0.5815950000000  0.4933740000000 1.0
C      1  0.4893130000000  0.5091240000000  0.4128030000000 1.0
C      1  0.4831460000000  0.5393980000000  0.4253130000000 1.0
C      1  0.4890390000000  0.4108900000000  0.4648840000000 1.0
C      1  0.4808200000000  0.4335770000000  0.4419350000000 1.0
C      1  0.4746240000000  0.5813840000000  0.5283060000000 1.0
C      1  0.4952430000000  0.5777200000000  0.4821710000000 1.0
C      1  0.4699440000000  0.4815960000000  0.4111890000000 1.0
C      1  0.4139570000000  0.5397080000000  0.4518620000000 1.0
C      1  0.5379310000000  0.5630860000000  0.5501060000000 1.0
C      1  0.5221980000000  0.5488820000000  0.4877370000000 1.0
C      1  0.5974140000000  0.4664040000000  0.4984300000000 1.0
C      1  0.4813660000000  0.4236640000000  0.5434660000000 1.0
C      1  0.4667290000000  0.5735330000000  0.4635670000000 1.0
C      1  0.5582000000000  0.4835120000000  0.5570380000000 1.0
C      1  0.5938480000000  0.5313450000000  0.4773970000000 1.0
C      1  0.5434330000000  0.4641580000000  0.4927790000000 1.0
C      1  0.4428030000000  0.5710820000000  0.4877340000000 1.0
C      1  0.5381430000000  0.4729570000000  0.5823940000000 1.0
C      1  0.4601010000000  0.5443130000000  0.5641770000000 1.0
C      1  0.5289490000000  0.4759410000000  0.4632690000000 1.0
C      1  0.5566930000000  0.4502250000000  0.5638560000000 1.0
C      1  0.5708680000000  0.4517460000000  0.4843940000000 1.0
C      1  0.5134890000000  0.5261000000000  0.5641220000000 1.0
C      1  0.4428510000000  0.4550830000000  0.4720340000000 1.0
C      1  0.5296020000000  0.4275650000000  0.4846200000000 1.0
C      1  0.5389600000000  0.5305910000000  0.5459310000000 1.0
C      1  0.5389290000000  0.4437100000000  0.4590580000000 1.0
C      1  0.5385790000000  0.5201380000000  0.5174450000000 1.0
C      1  0.5761550000000  0.4837610000000  0.4475720000000 1.0
C      1  0.4925920000000  0.4935940000000  0.4834960000000 1.0
END
