TITL C-2848494-1720-19 -2.20125278359992e-07 125000 -776.605286284912 0 0 150 (C1) n - 1
REM
REM in /home/bkarasulu/work/CARBON/AIRSS/Generating-Clusters/AIREBO/with-SteepDescent/Only-C1/SD-CG-opt/Try1-1.4A-POS3A/HFTN-CG
REM
REM
REM
REM
REM
REM ./C.cell (11c1c37f851c82e70ff6c80c92926a4b)
REM
REM compiler GCC version 9.2.1 20190827 (Red Hat 9.2.1-1)
REM options -cpp -mtune=generic -march=x86-64 -g -O0 -fpre-include=/usr/include/finclude/math-vector-fortran.h
REM seed 2042273224 453077503 -1731440512 -958036611 -361403747 -556025557 1893690153 -565638565 -45523143 1142515998 -1870897205 -1649162913 1477222268 2125186526 -1656940332 265795968 -889877079 -165219440 -1652462266 767528005 -1452186212 538629550 167417015 1615382496 1052817806 995505369 133520231 -543406156 767698961 303612323 465308281 1448255044 35401674
REM
CELL 1.54180   50.00000   50.00000   50.00000   90.00000   90.00000   90.00000
LATT -1
SFAC C  
C      1  0.5041840000000  0.4246550000000  0.4299370000000 1.0
C      1  0.4562850000000  0.5690070000000  0.4376530000000 1.0
C      1  0.4733240000000  0.5884350000000  0.4298650000000 1.0
C      1  0.5326470000000  0.4172640000000  0.5307930000000 1.0
C      1  0.5635030000000  0.4147020000000  0.5015880000000 1.0
C      1  0.5782930000000  0.5726420000000  0.5313440000000 1.0
C      1  0.4551840000000  0.4916440000000  0.5023670000000 1.0
C      1  0.5107860000000  0.4929890000000  0.5487280000000 1.0
C      1  0.5096970000000  0.4075240000000  0.5507590000000 1.0
C      1  0.4608260000000  0.4251500000000  0.5866130000000 1.0
C      1  0.5962660000000  0.4787150000000  0.4797360000000 1.0
C      1  0.4317930000000  0.4382120000000  0.4925400000000 1.0
C      1  0.3901650000000  0.5180580000000  0.4910870000000 1.0
C      1  0.4557770000000  0.5406470000000  0.4242300000000 1.0
C      1  0.5660620000000  0.5230720000000  0.5768460000000 1.0
C      1  0.5282550000000  0.4370250000000  0.4417940000000 1.0
C      1  0.4508210000000  0.4878950000000  0.5782200000000 1.0
C      1  0.5009780000000  0.5164810000000  0.4844070000000 1.0
C      1  0.4455570000000  0.4991620000000  0.5403750000000 1.0
C      1  0.4707200000000  0.5101460000000  0.5875500000000 1.0
C      1  0.5308020000000  0.5590100000000  0.4633820000000 1.0
C      1  0.5998530000000  0.5021700000000  0.5366870000000 1.0
C      1  0.4552130000000  0.5360670000000  0.5748770000000 1.0
C      1  0.4635140000000  0.4146980000000  0.4985270000000 1.0
C      1  0.5738600000000  0.4262800000000  0.5322250000000 1.0
C      1  0.4099450000000  0.5319680000000  0.4744680000000 1.0
C      1  0.4855720000000  0.5511150000000  0.5091410000000 1.0
C      1  0.4242470000000  0.4578500000000  0.5469130000000 1.0
C      1  0.5155770000000  0.5038840000000  0.5106960000000 1.0
C      1  0.4763390000000  0.4290470000000  0.5473260000000 1.0
C      1  0.5202530000000  0.5950220000000  0.4495630000000 1.0
C      1  0.4720360000000  0.4685200000000  0.5613920000000 1.0
C      1  0.5667890000000  0.5108780000000  0.4562810000000 1.0
C      1  0.4974080000000  0.5499000000000  0.5686390000000 1.0
C      1  0.5404600000000  0.5095700000000  0.5495000000000 1.0
C      1  0.5496060000000  0.4684240000000  0.5532540000000 1.0
C      1  0.4441760000000  0.5714820000000  0.4692040000000 1.0
C      1  0.5367500000000  0.4315770000000  0.5867460000000 1.0
C      1  0.4387950000000  0.5465660000000  0.5200530000000 1.0
C      1  0.4620910000000  0.4489730000000  0.5036390000000 1.0
C      1  0.4710800000000  0.4663710000000  0.4758380000000 1.0
C      1  0.4519790000000  0.5276320000000  0.4771230000000 1.0
C      1  0.5813010000000  0.5155820000000  0.4812870000000 1.0
C      1  0.5317590000000  0.5163770000000  0.5816560000000 1.0
C      1  0.5027990000000  0.4787870000000  0.4722810000000 1.0
C      1  0.5572020000000  0.5773200000000  0.4746140000000 1.0
C      1  0.5244480000000  0.4676080000000  0.4046100000000 1.0
C      1  0.5730730000000  0.4977340000000  0.5074940000000 1.0
C      1  0.5131920000000  0.5873200000000  0.4786290000000 1.0
C      1  0.5316410000000  0.4961720000000  0.3971090000000 1.0
C      1  0.5326110000000  0.4384180000000  0.4732930000000 1.0
C      1  0.5740090000000  0.5735150000000  0.5039280000000 1.0
C      1  0.4254080000000  0.4808210000000  0.4916540000000 1.0
C      1  0.5317570000000  0.4781820000000  0.5259940000000 1.0
C      1  0.4317510000000  0.5190640000000  0.5013370000000 1.0
C      1  0.5624820000000  0.4352030000000  0.4771940000000 1.0
C      1  0.5233820000000  0.4494290000000  0.5520880000000 1.0
C      1  0.5866350000000  0.4816260000000  0.5593120000000 1.0
C      1  0.5668160000000  0.5019980000000  0.5406450000000 1.0
C      1  0.4910640000000  0.4194560000000  0.5765750000000 1.0
C      1  0.4488150000000  0.4889210000000  0.3957420000000 1.0
C      1  0.5078060000000  0.4907280000000  0.6158340000000 1.0
C      1  0.5416280000000  0.5447590000000  0.4922210000000 1.0
C      1  0.5046630000000  0.4693110000000  0.5723520000000 1.0
C      1  0.5282280000000  0.5700750000000  0.5267400000000 1.0
C      1  0.5720940000000  0.4637000000000  0.4652280000000 1.0
C      1  0.4231390000000  0.5567860000000  0.4916320000000 1.0
C      1  0.5493330000000  0.4425000000000  0.5151220000000 1.0
C      1  0.4444260000000  0.4326710000000  0.5399290000000 1.0
C      1  0.5599090000000  0.4895720000000  0.5780120000000 1.0
C      1  0.4988430000000  0.5975880000000  0.4322350000000 1.0
C      1  0.6314570000000  0.4760430000000  0.5128680000000 1.0
C      1  0.4738050000000  0.5019990000000  0.3970410000000 1.0
C      1  0.4927520000000  0.4814870000000  0.5222970000000 1.0
C      1  0.4035360000000  0.5052370000000  0.5143270000000 1.0
C      1  0.4986760000000  0.6091780000000  0.4907900000000 1.0
C      1  0.5281820000000  0.5268440000000  0.4128170000000 1.0
C      1  0.5099090000000  0.4397920000000  0.5883960000000 1.0
C      1  0.5522340000000  0.4823430000000  0.4448590000000 1.0
C      1  0.4987570000000  0.4578630000000  0.4246410000000 1.0
C      1  0.4810840000000  0.5888180000000  0.5362820000000 1.0
C      1  0.5134120000000  0.5068370000000  0.4579860000000 1.0
C      1  0.5705040000000  0.5337820000000  0.4359180000000 1.0
C      1  0.4049830000000  0.5500710000000  0.5208740000000 1.0
C      1  0.5487130000000  0.5945260000000  0.4517490000000 1.0
C      1  0.4924460000000  0.4527740000000  0.4556690000000 1.0
C      1  0.4347420000000  0.4324660000000  0.4356320000000 1.0
C      1  0.4937320000000  0.4906590000000  0.4210450000000 1.0
C      1  0.4839890000000  0.6108970000000  0.5190710000000 1.0
C      1  0.4075940000000  0.4703140000000  0.4675700000000 1.0
C      1  0.5082200000000  0.3990960000000  0.4919580000000 1.0
C      1  0.5144520000000  0.5638680000000  0.4994560000000 1.0
C      1  0.4704710000000  0.5521040000000  0.4701530000000 1.0
C      1  0.4191750000000  0.5184500000000  0.4486660000000 1.0
C      1  0.5322480000000  0.5952520000000  0.5472420000000 1.0
C      1  0.4717510000000  0.5126830000000  0.4352730000000 1.0
C      1  0.5016540000000  0.4262830000000  0.4748940000000 1.0
C      1  0.4621300000000  0.4716780000000  0.5290000000000 1.0
C      1  0.4838250000000  0.3977500000000  0.5072870000000 1.0
C      1  0.4734880000000  0.5202780000000  0.5011100000000 1.0
C      1  0.5757040000000  0.4851830000000  0.4204190000000 1.0
C      1  0.4745780000000  0.5145310000000  0.5345050000000 1.0
C      1  0.5741670000000  0.5452900000000  0.4910000000000 1.0
C      1  0.4960060000000  0.4500460000000  0.5348800000000 1.0
C      1  0.5433600000000  0.5476890000000  0.4317110000000 1.0
C      1  0.4492430000000  0.5070640000000  0.4551320000000 1.0
C      1  0.5003350000000  0.5439000000000  0.4641570000000 1.0
C      1  0.4446870000000  0.5957800000000  0.4888920000000 1.0
C      1  0.4745540000000  0.5306640000000  0.3998070000000 1.0
C      1  0.4422260000000  0.5315510000000  0.5502430000000 1.0
C      1  0.5612780000000  0.4700040000000  0.4968430000000 1.0
C      1  0.6054970000000  0.4870360000000  0.5095800000000 1.0
C      1  0.5498750000000  0.4286670000000  0.5569690000000 1.0
C      1  0.5220940000000  0.5382260000000  0.5498350000000 1.0
C      1  0.4853580000000  0.3986260000000  0.5351090000000 1.0
C      1  0.4862740000000  0.5037960000000  0.6132360000000 1.0
C      1  0.5255860000000  0.4979220000000  0.4305340000000 1.0
C      1  0.4938750000000  0.5353520000000  0.4349720000000 1.0
C      1  0.5026580000000  0.5295770000000  0.5268360000000 1.0
C      1  0.6051710000000  0.5371880000000  0.4793700000000 1.0
C      1  0.4634600000000  0.5676780000000  0.5237980000000 1.0
C      1  0.4309790000000  0.4807170000000  0.4134610000000 1.0
C      1  0.4251020000000  0.5341320000000  0.4244780000000 1.0
C      1  0.4482390000000  0.4474140000000  0.5689640000000 1.0
C      1  0.5783990000000  0.4540650000000  0.5456960000000 1.0
C      1  0.4351680000000  0.4619140000000  0.4399970000000 1.0
C      1  0.5259880000000  0.4874420000000  0.5917150000000 1.0
C      1  0.5462930000000  0.5185140000000  0.5104140000000 1.0
C      1  0.4129070000000  0.4434600000000  0.4731840000000 1.0
C      1  0.4134810000000  0.4880450000000  0.4417670000000 1.0
C      1  0.5424990000000  0.5475470000000  0.5753930000000 1.0
C      1  0.4383210000000  0.4190370000000  0.5153010000000 1.0
C      1  0.4216300000000  0.4801640000000  0.5254450000000 1.0
C      1  0.4953780000000  0.4438100000000  0.5033450000000 1.0
C      1  0.4122780000000  0.5226520000000  0.5401280000000 1.0
C      1  0.5699140000000  0.5500610000000  0.5553930000000 1.0
C      1  0.5376410000000  0.5262740000000  0.4571390000000 1.0
C      1  0.5403570000000  0.4565050000000  0.4271960000000 1.0
C      1  0.4906310000000  0.4080640000000  0.4483820000000 1.0
C      1  0.5363030000000  0.4781260000000  0.4752350000000 1.0
C      1  0.5489720000000  0.5456430000000  0.5310910000000 1.0
C      1  0.5234630000000  0.4582610000000  0.4996720000000 1.0
C      1  0.4221290000000  0.5005030000000  0.5649960000000 1.0
C      1  0.5044190000000  0.5759270000000  0.5501720000000 1.0
C      1  0.4908650000000  0.5169780000000  0.5627630000000 1.0
C      1  0.5334110000000  0.3991690000000  0.5046620000000 1.0
C      1  0.4668710000000  0.6129880000000  0.4902940000000 1.0
C      1  0.4464840000000  0.4787680000000  0.4650400000000 1.0
C      1  0.4386260000000  0.5860440000000  0.5139730000000 1.0
C      1  0.5016630000000  0.5409860000000  0.4053550000000 1.0
END
