TITL C-2848503-6230-698 -0.000386512235092341 125000 -284.926762034195 0 0 52 (C1) n - 1
REM
REM in /home/bkarasulu/work/CARBON/AIRSS/Generating-Clusters/AIREBO/with-SteepDescent/Only-C1/SD-CG-opt/Try1-1.4A-POS3A/HFTN-CG
REM
REM
REM
REM
REM
REM ./C.cell (11c1c37f851c82e70ff6c80c92926a4b)
REM
REM compiler GCC version 9.2.1 20190827 (Red Hat 9.2.1-1)
REM options -cpp -mtune=generic -march=x86-64 -g -O0 -fpre-include=/usr/include/finclude/math-vector-fortran.h
REM seed 1099476423 1642898077 2103162743 -1106619211 910283325 -1930631095 1697147764 -947299365 1591023178 -95352302 159468295 659453146 2133018109 -1997788639 1967461895 -1667420936 -41583025 -994982379 -170051502 325493449 -1916971777 -448161415 -1337980785 433779934 1103073746 1839570999 1442544096 1168573785 -1673924932 387328385 -2023334116 -373346594 -1697215243
REM
CELL 1.54180   50.00000   50.00000   50.00000   90.00000   90.00000   90.00000
LATT -1
SFAC C  
C      1  0.5634480000000  0.5287680000000  0.4730510000000 1.0
C      1  0.4960620000000  0.5232960000000  0.5710530000000 1.0
C      1  0.5591790000000  0.4789990000000  0.5436790000000 1.0
C      1  0.4498830000000  0.5048620000000  0.5424050000000 1.0
C      1  0.4562540000000  0.5475170000000  0.4639540000000 1.0
C      1  0.5094640000000  0.5381740000000  0.4515070000000 1.0
C      1  0.4924720000000  0.4997470000000  0.5855280000000 1.0
C      1  0.5271110000000  0.4165160000000  0.4737970000000 1.0
C      1  0.4332130000000  0.4910440000000  0.4568120000000 1.0
C      1  0.5247920000000  0.4915600000000  0.5056780000000 1.0
C      1  0.5408590000000  0.5064160000000  0.5386670000000 1.0
C      1  0.5165950000000  0.5093650000000  0.4811080000000 1.0
C      1  0.5049350000000  0.5125760000000  0.4407220000000 1.0
C      1  0.5589970000000  0.5221440000000  0.5188370000000 1.0
C      1  0.4844470000000  0.5507020000000  0.4630680000000 1.0
C      1  0.5256620000000  0.4487540000000  0.5112590000000 1.0
C      1  0.4942180000000  0.5368080000000  0.5397870000000 1.0
C      1  0.5334730000000  0.5377550000000  0.4727110000000 1.0
C      1  0.5521820000000  0.5495890000000  0.5166280000000 1.0
C      1  0.4361100000000  0.4410150000000  0.4576410000000 1.0
C      1  0.4661250000000  0.4599860000000  0.5177400000000 1.0
C      1  0.5267540000000  0.4967420000000  0.4367000000000 1.0
C      1  0.5221710000000  0.4472370000000  0.4787350000000 1.0
C      1  0.4975360000000  0.5362440000000  0.4894990000000 1.0
C      1  0.5078710000000  0.4461120000000  0.5325810000000 1.0
C      1  0.4441280000000  0.5571780000000  0.4880080000000 1.0
C      1  0.5596530000000  0.4838400000000  0.4877870000000 1.0
C      1  0.4467240000000  0.4644670000000  0.4695140000000 1.0
C      1  0.4815960000000  0.4383910000000  0.5258730000000 1.0
C      1  0.4808830000000  0.5000030000000  0.4537620000000 1.0
C      1  0.4768470000000  0.4692040000000  0.4617450000000 1.0
C      1  0.5224170000000  0.5256510000000  0.5542450000000 1.0
C      1  0.5077200000000  0.4681140000000  0.5508980000000 1.0
C      1  0.5311760000000  0.5548500000000  0.4997910000000 1.0
C      1  0.4514770000000  0.5166710000000  0.4565680000000 1.0
C      1  0.5079100000000  0.4775390000000  0.4727880000000 1.0
C      1  0.5094630000000  0.4941940000000  0.5334660000000 1.0
C      1  0.5007620000000  0.4744650000000  0.5773980000000 1.0
C      1  0.4435900000000  0.4646330000000  0.5000110000000 1.0
C      1  0.4765030000000  0.4877520000000  0.5280960000000 1.0
C      1  0.4929150000000  0.4429230000000  0.4604240000000 1.0
C      1  0.4744170000000  0.5165630000000  0.4813400000000 1.0
C      1  0.5679300000000  0.5114300000000  0.4942370000000 1.0
C      1  0.4392990000000  0.4898840000000  0.5136720000000 1.0
C      1  0.4635330000000  0.5330840000000  0.5292220000000 1.0
C      1  0.4640710000000  0.5098850000000  0.5067460000000 1.0
C      1  0.4554570000000  0.5591540000000  0.5141530000000 1.0
C      1  0.5382160000000  0.4818720000000  0.4617040000000 1.0
C      1  0.5546800000000  0.4547620000000  0.4708330000000 1.0
C      1  0.5026030000000  0.5556820000000  0.5140900000000 1.0
C      1  0.4782140000000  0.5755120000000  0.5159510000000 1.0
C      1  0.5480050000000  0.4703680000000  0.5145320000000 1.0
END
