TITL C-2847946-5639-361 -0.00337877934702391 125000 -546.948204045054 0 0 96 (C1) n - 1
REM
REM in /home/bkarasulu/work/CARBON/AIRSS/Generating-Clusters/AIREBO/with-SteepDescent/Only-C1/SD-CG-opt/Try1-1.4A-POS3A/HFTN-CG
REM
REM
REM
REM
REM
REM ./C.cell (11c1c37f851c82e70ff6c80c92926a4b)
REM
REM compiler GCC version 9.2.1 20190827 (Red Hat 9.2.1-1)
REM options -cpp -mtune=generic -march=x86-64 -g -O0 -fpre-include=/usr/include/finclude/math-vector-fortran.h
REM seed 1901834204 -1776588197 524660736 -2110241538 -461250995 500065387 1486399090 -1879923706 889861915 1673520240 -257294229 151853772 2058393101 1521866224 -2086604490 -2037869576 359503952 1152079975 830745390 1343421241 967600239 861599283 -1101954819 -211409522 -188890070 688498322 -559436697 -449177837 1960451559 -1577986741 923014268 420761150 1501072819
REM
CELL 1.54180   50.00000   50.00000   50.00000   90.00000   90.00000   90.00000
LATT -1
SFAC C  
C      1  0.5177970000000  0.4287840000000  0.4299330000000 1.0
C      1  0.4293560000000  0.5562090000000  0.5402650000000 1.0
C      1  0.4079240000000  0.5062310000000  0.4862390000000 1.0
C      1  0.4929420000000  0.5221960000000  0.4503660000000 1.0
C      1  0.5674790000000  0.4723140000000  0.4694240000000 1.0
C      1  0.5744270000000  0.5630320000000  0.5129950000000 1.0
C      1  0.5202040000000  0.4224950000000  0.5130010000000 1.0
C      1  0.5795190000000  0.5002900000000  0.5091490000000 1.0
C      1  0.4537420000000  0.4331900000000  0.4944490000000 1.0
C      1  0.4559690000000  0.4568260000000  0.4715150000000 1.0
C      1  0.5274710000000  0.4650620000000  0.5140590000000 1.0
C      1  0.4668280000000  0.4997590000000  0.4819980000000 1.0
C      1  0.4162710000000  0.4849780000000  0.4695260000000 1.0
C      1  0.5290740000000  0.5450940000000  0.5109150000000 1.0
C      1  0.5432970000000  0.4934090000000  0.5243740000000 1.0
C      1  0.4923920000000  0.4413810000000  0.4349360000000 1.0
C      1  0.5023870000000  0.4195100000000  0.5328040000000 1.0
C      1  0.4857290000000  0.4762310000000  0.5767220000000 1.0
C      1  0.5229300000000  0.5652210000000  0.5560170000000 1.0
C      1  0.5699920000000  0.5090280000000  0.4381590000000 1.0
C      1  0.5529420000000  0.5767850000000  0.5058960000000 1.0
C      1  0.4870240000000  0.5319650000000  0.5611910000000 1.0
C      1  0.4630660000000  0.4598070000000  0.5621500000000 1.0
C      1  0.4209940000000  0.5248710000000  0.5319460000000 1.0
C      1  0.4537860000000  0.5002030000000  0.5789360000000 1.0
C      1  0.5596600000000  0.4956390000000  0.5541010000000 1.0
C      1  0.5466640000000  0.4617370000000  0.4495880000000 1.0
C      1  0.5267480000000  0.5338080000000  0.5575070000000 1.0
C      1  0.5723090000000  0.4550920000000  0.4956380000000 1.0
C      1  0.5095590000000  0.5175060000000  0.4238450000000 1.0
C      1  0.4775930000000  0.4110650000000  0.4911540000000 1.0
C      1  0.4286570000000  0.4632320000000  0.4863550000000 1.0
C      1  0.4272380000000  0.4670730000000  0.5196460000000 1.0
C      1  0.5848160000000  0.5272510000000  0.4803380000000 1.0
C      1  0.5307490000000  0.5010210000000  0.5640970000000 1.0
C      1  0.5095390000000  0.4787300000000  0.5586110000000 1.0
C      1  0.5351410000000  0.5073010000000  0.4771650000000 1.0
C      1  0.4648640000000  0.5386020000000  0.4463520000000 1.0
C      1  0.5817780000000  0.4719700000000  0.5169130000000 1.0
C      1  0.5505520000000  0.5242340000000  0.4590090000000 1.0
C      1  0.4982960000000  0.5309720000000  0.5078500000000 1.0
C      1  0.5278890000000  0.4538510000000  0.5613400000000 1.0
C      1  0.5482980000000  0.5269700000000  0.5320780000000 1.0
C      1  0.4672580000000  0.5140610000000  0.5573110000000 1.0
C      1  0.4498010000000  0.5256330000000  0.4708310000000 1.0
C      1  0.4318420000000  0.4874200000000  0.4443670000000 1.0
C      1  0.4751750000000  0.4427260000000  0.5153660000000 1.0
C      1  0.5829520000000  0.5023610000000  0.4658190000000 1.0
C      1  0.4510170000000  0.4647990000000  0.4415940000000 1.0
C      1  0.4858820000000  0.4720330000000  0.4770600000000 1.0
C      1  0.4934750000000  0.4886030000000  0.4287790000000 1.0
C      1  0.4029630000000  0.5022570000000  0.5141080000000 1.0
C      1  0.5732270000000  0.5251950000000  0.5551570000000 1.0
C      1  0.4435760000000  0.5147600000000  0.4336590000000 1.0
C      1  0.5160180000000  0.5637950000000  0.4535060000000 1.0
C      1  0.4209190000000  0.4919280000000  0.5410770000000 1.0
C      1  0.4238280000000  0.4362980000000  0.5065570000000 1.0
C      1  0.5489880000000  0.5555560000000  0.4547720000000 1.0
C      1  0.4831390000000  0.5016440000000  0.5918110000000 1.0
C      1  0.4790850000000  0.5741330000000  0.5323010000000 1.0
C      1  0.5368860000000  0.4348530000000  0.4506880000000 1.0
C      1  0.5800030000000  0.5502930000000  0.4651050000000 1.0
C      1  0.5296700000000  0.5423530000000  0.4303310000000 1.0
C      1  0.4910890000000  0.5638980000000  0.5033580000000 1.0
C      1  0.4426700000000  0.5355410000000  0.5088000000000 1.0
C      1  0.4487290000000  0.5705360000000  0.5270390000000 1.0
C      1  0.4965280000000  0.4836170000000  0.5310360000000 1.0
C      1  0.4930970000000  0.5453120000000  0.5383780000000 1.0
C      1  0.4755830000000  0.4629550000000  0.4266030000000 1.0
C      1  0.4697200000000  0.4992760000000  0.4486170000000 1.0
C      1  0.5106850000000  0.5810230000000  0.5372560000000 1.0
C      1  0.5270060000000  0.5675560000000  0.4854700000000 1.0
C      1  0.4233740000000  0.5294550000000  0.4829150000000 1.0
C      1  0.4732610000000  0.5700580000000  0.4821940000000 1.0
C      1  0.5465160000000  0.4412540000000  0.5024240000000 1.0
C      1  0.5073360000000  0.5221660000000  0.5828960000000 1.0
C      1  0.4830260000000  0.5627890000000  0.4566470000000 1.0
C      1  0.4355650000000  0.4801270000000  0.5672280000000 1.0
C      1  0.5055690000000  0.5194530000000  0.4791450000000 1.0
C      1  0.5260730000000  0.4837320000000  0.4372900000000 1.0
C      1  0.5098350000000  0.4892250000000  0.4652490000000 1.0
C      1  0.4994830000000  0.4215020000000  0.4790300000000 1.0
C      1  0.5415330000000  0.5103050000000  0.4230880000000 1.0
C      1  0.5314060000000  0.4219520000000  0.4804880000000 1.0
C      1  0.5530360000000  0.4900140000000  0.4930970000000 1.0
C      1  0.4478830000000  0.5666350000000  0.4964330000000 1.0
C      1  0.4676150000000  0.5177900000000  0.5079120000000 1.0
C      1  0.4698200000000  0.4994450000000  0.5318170000000 1.0
C      1  0.4548870000000  0.4726900000000  0.5334440000000 1.0
C      1  0.5244400000000  0.5856310000000  0.5141560000000 1.0
C      1  0.5758380000000  0.5311630000000  0.5125450000000 1.0
C      1  0.4959440000000  0.4634490000000  0.5072240000000 1.0
C      1  0.4923410000000  0.4426830000000  0.4630120000000 1.0
C      1  0.4767040000000  0.4351020000000  0.5444900000000 1.0
C      1  0.5689140000000  0.4681910000000  0.5418510000000 1.0
C      1  0.5449020000000  0.4538430000000  0.5401160000000 1.0
END
