TITL C-2848501-3133-353 5.41904869996875e-05 125000 -284.659315573385 0 0 57 (C1) n - 1
REM
REM in /home/bkarasulu/work/CARBON/AIRSS/Generating-Clusters/AIREBO/with-SteepDescent/Only-C1/SD-CG-opt/Try1-1.4A-POS3A/HFTN-CG
REM
REM
REM
REM
REM
REM ./C.cell (11c1c37f851c82e70ff6c80c92926a4b)
REM
REM compiler GCC version 9.2.1 20190827 (Red Hat 9.2.1-1)
REM options -cpp -mtune=generic -march=x86-64 -g -O0 -fpre-include=/usr/include/finclude/math-vector-fortran.h
REM seed -1894472299 686286547 1419774320 1416759331 -689905196 1590876776 1675233689 -1549730824 -917742650 -1113932998 -474208158 37671958 -1571713157 338740725 1323847450 -1064628656 9424732 -97823261 -977232404 293476359 -2021162267 424700821 1441168972 -1148439801 -1946559649 -1168714578 -234450981 1496497502 -1484540745 -1979232038 1108518412 -743823989 -1925814176
REM
CELL 1.54180   50.00000   50.00000   50.00000   90.00000   90.00000   90.00000
LATT -1
SFAC C  
C      1  0.5136230000000  0.5763110000000  0.4980150000000 1.0
C      1  0.4751860000000  0.5415460000000  0.5048440000000 1.0
C      1  0.5784930000000  0.5251450000000  0.4898000000000 1.0
C      1  0.5730250000000  0.5029960000000  0.5718510000000 1.0
C      1  0.5239050000000  0.5080250000000  0.4611150000000 1.0
C      1  0.5740060000000  0.5007840000000  0.4786870000000 1.0
C      1  0.5272270000000  0.4822680000000  0.5636460000000 1.0
C      1  0.4615770000000  0.5396630000000  0.4401420000000 1.0
C      1  0.4652280000000  0.4499060000000  0.4712860000000 1.0
C      1  0.5469530000000  0.5178320000000  0.5267310000000 1.0
C      1  0.4848400000000  0.4614920000000  0.5382990000000 1.0
C      1  0.5392570000000  0.4428980000000  0.4785210000000 1.0
C      1  0.4991740000000  0.5562240000000  0.5188840000000 1.0
C      1  0.4403850000000  0.5485260000000  0.4843890000000 1.0
C      1  0.4486300000000  0.4583060000000  0.4359930000000 1.0
C      1  0.4937870000000  0.4932010000000  0.4556850000000 1.0
C      1  0.4420920000000  0.4677920000000  0.4863980000000 1.0
C      1  0.4607040000000  0.5080250000000  0.4389320000000 1.0
C      1  0.4493940000000  0.5037670000000  0.5439330000000 1.0
C      1  0.4628280000000  0.4792100000000  0.4541940000000 1.0
C      1  0.5579760000000  0.4875330000000  0.5213570000000 1.0
C      1  0.5137800000000  0.4651500000000  0.4757400000000 1.0
C      1  0.5765230000000  0.4711110000000  0.5053870000000 1.0
C      1  0.5624570000000  0.5377790000000  0.5074910000000 1.0
C      1  0.5434480000000  0.4431310000000  0.5119970000000 1.0
C      1  0.5433140000000  0.4919860000000  0.4755930000000 1.0
C      1  0.4916200000000  0.5579870000000  0.4796740000000 1.0
C      1  0.4902620000000  0.4859340000000  0.4888290000000 1.0
C      1  0.4884250000000  0.4252380000000  0.4744820000000 1.0
C      1  0.4606670000000  0.5544130000000  0.4660640000000 1.0
C      1  0.5162960000000  0.4558750000000  0.5488340000000 1.0
C      1  0.4449950000000  0.4692690000000  0.5135160000000 1.0
C      1  0.5018320000000  0.5710530000000  0.4533230000000 1.0
C      1  0.4915710000000  0.5140740000000  0.5625210000000 1.0
C      1  0.4341060000000  0.4925490000000  0.4753900000000 1.0
C      1  0.5514140000000  0.4955640000000  0.5521110000000 1.0
C      1  0.5094430000000  0.5290960000000  0.4817480000000 1.0
C      1  0.5096390000000  0.4982730000000  0.5773660000000 1.0
C      1  0.5329850000000  0.4740940000000  0.5026170000000 1.0
C      1  0.5638610000000  0.4658430000000  0.4782390000000 1.0
C      1  0.4641130000000  0.5212270000000  0.5638380000000 1.0
C      1  0.4394750000000  0.5177190000000  0.4947240000000 1.0
C      1  0.4965880000000  0.5086010000000  0.5330980000000 1.0
C      1  0.4830870000000  0.4560780000000  0.4991170000000 1.0
C      1  0.4298830000000  0.5215790000000  0.5262470000000 1.0
C      1  0.5103840000000  0.4795770000000  0.5250030000000 1.0
C      1  0.5176560000000  0.5215320000000  0.5139250000000 1.0
C      1  0.5044540000000  0.4404670000000  0.5201540000000 1.0
C      1  0.5325250000000  0.5520940000000  0.5122670000000 1.0
C      1  0.5110970000000  0.4286700000000  0.4912180000000 1.0
C      1  0.4712650000000  0.4875290000000  0.5239930000000 1.0
C      1  0.5353240000000  0.5212020000000  0.4361050000000 1.0
C      1  0.4455310000000  0.5426760000000  0.5501100000000 1.0
C      1  0.5080310000000  0.4656530000000  0.4448360000000 1.0
C      1  0.4711050000000  0.5098400000000  0.4983360000000 1.0
C      1  0.4474900000000  0.5495970000000  0.5172970000000 1.0
C      1  0.4870630000000  0.5260910000000  0.4561050000000 1.0
END
