TITL C-2848497-6229-241 -10.5642964390039 125000 -1003.08188870051 0 0 187 (C1) n - 1
REM
REM in /home/bkarasulu/work/CARBON/AIRSS/Generating-Clusters/AIREBO/with-SteepDescent/Only-C1/SD-CG-opt/Try1-1.4A-POS3A/HFTN-CG
REM
REM
REM
REM
REM
REM ./C.cell (11c1c37f851c82e70ff6c80c92926a4b)
REM
REM compiler GCC version 9.2.1 20190827 (Red Hat 9.2.1-1)
REM options -cpp -mtune=generic -march=x86-64 -g -O0 -fpre-include=/usr/include/finclude/math-vector-fortran.h
REM seed 1791373962 -1771074114 -604876879 2110197029 -1785077139 -1417209468 171790450 1033880697 1181881090 1608740329 1269014917 221917205 -1241783541 1715064488 1401946414 205013778 1912640424 112420941 -213540019 -1304995519 1395933690 1146914094 -320990836 406797994 -1987122680 -1413369286 305753661 2091582642 -1334906230 -1247957935 629578091 -798817130 -349662610
REM
CELL 1.54180   50.00000   50.00000   50.00000   90.00000   90.00000   90.00000
LATT -1
SFAC C  
C      1  0.4364640000000  0.5442620000000  0.5795550000000 1.0
C      1  0.5734690000000  0.5678270000000  0.5718760000000 1.0
C      1  0.5512260000000  0.5583310000000  0.4885920000000 1.0
C      1  0.5519920000000  0.5423940000000  0.5331960000000 1.0
C      1  0.4653840000000  0.5310890000000  0.6030810000000 1.0
C      1  0.4359960000000  0.4563600000000  0.4993130000000 1.0
C      1  0.4221920000000  0.5652180000000  0.4214260000000 1.0
C      1  0.5662000000000  0.5709380000000  0.5450250000000 1.0
C      1  0.4966130000000  0.6391080000000  0.4935660000000 1.0
C      1  0.5532620000000  0.5293130000000  0.5832990000000 1.0
C      1  0.4566180000000  0.5829520000000  0.5351710000000 1.0
C      1  0.5888340000000  0.4315250000000  0.5156520000000 1.0
C      1  0.4907060000000  0.6126590000000  0.4960700000000 1.0
C      1  0.5685650000000  0.6110410000000  0.4904170000000 1.0
C      1  0.5874140000000  0.4801590000000  0.4972820000000 1.0
C      1  0.4339550000000  0.4835140000000  0.6024810000000 1.0
C      1  0.5735650000000  0.5015220000000  0.5631870000000 1.0
C      1  0.4648650000000  0.5467100000000  0.4488850000000 1.0
C      1  0.4940940000000  0.4793820000000  0.3827370000000 1.0
C      1  0.4893800000000  0.6024490000000  0.5630670000000 1.0
C      1  0.4584870000000  0.5051960000000  0.4531930000000 1.0
C      1  0.4197960000000  0.4950270000000  0.5159370000000 1.0
C      1  0.4674870000000  0.5420520000000  0.4150410000000 1.0
C      1  0.5123190000000  0.3952970000000  0.5229290000000 1.0
C      1  0.4768920000000  0.4809510000000  0.5354540000000 1.0
C      1  0.5510320000000  0.4936030000000  0.4577860000000 1.0
C      1  0.4720070000000  0.4666610000000  0.3946330000000 1.0
C      1  0.4544410000000  0.5696700000000  0.4267770000000 1.0
C      1  0.4590360000000  0.4632790000000  0.5942710000000 1.0
C      1  0.4850270000000  0.5359810000000  0.3946900000000 1.0
C      1  0.5326400000000  0.5085490000000  0.4770940000000 1.0
C      1  0.5697230000000  0.4733400000000  0.4736340000000 1.0
C      1  0.4713730000000  0.4646720000000  0.5637310000000 1.0
C      1  0.5584940000000  0.4162110000000  0.5100680000000 1.0
C      1  0.6022960000000  0.4768080000000  0.5504350000000 1.0
C      1  0.4677770000000  0.4379960000000  0.4840990000000 1.0
C      1  0.6200270000000  0.4803250000000  0.4940300000000 1.0
C      1  0.5072900000000  0.5814210000000  0.4323040000000 1.0
C      1  0.4484300000000  0.4800600000000  0.3925090000000 1.0
C      1  0.4355280000000  0.5357330000000  0.4172980000000 1.0
C      1  0.5521640000000  0.5798100000000  0.5868050000000 1.0
C      1  0.4743570000000  0.5022590000000  0.5769430000000 1.0
C      1  0.4085480000000  0.4560590000000  0.4377320000000 1.0
C      1  0.4250170000000  0.5271610000000  0.5277370000000 1.0
C      1  0.5714140000000  0.5897090000000  0.5265020000000 1.0
C      1  0.4196390000000  0.4578970000000  0.5975420000000 1.0
C      1  0.4389630000000  0.5125430000000  0.5923870000000 1.0
C      1  0.5843270000000  0.4617270000000  0.4246960000000 1.0
C      1  0.4384290000000  0.5487210000000  0.4703410000000 1.0
C      1  0.5178620000000  0.5475800000000  0.4533830000000 1.0
C      1  0.4838450000000  0.5399790000000  0.5245510000000 1.0
C      1  0.4869760000000  0.4122240000000  0.5365150000000 1.0
C      1  0.4297480000000  0.5479200000000  0.5012140000000 1.0
C      1  0.4547220000000  0.4019160000000  0.4640970000000 1.0
C      1  0.4259020000000  0.4336280000000  0.4325270000000 1.0
C      1  0.5057020000000  0.4998500000000  0.4959350000000 1.0
C      1  0.4840530000000  0.4110540000000  0.5685940000000 1.0
C      1  0.4949780000000  0.4427430000000  0.5628840000000 1.0
C      1  0.5334830000000  0.5285450000000  0.5581480000000 1.0
C      1  0.5165450000000  0.4025820000000  0.5614170000000 1.0
C      1  0.4461550000000  0.5691720000000  0.5644560000000 1.0
C      1  0.5497720000000  0.5709920000000  0.4582830000000 1.0
C      1  0.3884270000000  0.5038400000000  0.5526340000000 1.0
C      1  0.4891220000000  0.4421410000000  0.5288350000000 1.0
C      1  0.4589540000000  0.4077460000000  0.4946210000000 1.0
C      1  0.4483650000000  0.4570100000000  0.4343150000000 1.0
C      1  0.5076600000000  0.4093990000000  0.4937980000000 1.0
C      1  0.4190870000000  0.5750450000000  0.5458130000000 1.0
C      1  0.5114370000000  0.5050220000000  0.4326000000000 1.0
C      1  0.4888510000000  0.5469180000000  0.5837950000000 1.0
C      1  0.4490410000000  0.4940880000000  0.4985910000000 1.0
C      1  0.5040040000000  0.5288950000000  0.5642230000000 1.0
C      1  0.4951210000000  0.5516930000000  0.4773740000000 1.0
C      1  0.6014630000000  0.4272020000000  0.4571070000000 1.0
C      1  0.4054820000000  0.4534250000000  0.4975690000000 1.0
C      1  0.5155460000000  0.4673370000000  0.4976520000000 1.0
C      1  0.5079010000000  0.5180990000000  0.4604250000000 1.0
C      1  0.4324680000000  0.4977290000000  0.4714160000000 1.0
C      1  0.5146750000000  0.4594250000000  0.5274240000000 1.0
C      1  0.5150090000000  0.5551130000000  0.4214130000000 1.0
C      1  0.4996820000000  0.5073110000000  0.3947700000000 1.0
C      1  0.4686230000000  0.4609380000000  0.5092160000000 1.0
C      1  0.5005260000000  0.4450740000000  0.5963630000000 1.0
C      1  0.5043200000000  0.5332310000000  0.5029870000000 1.0
C      1  0.4335410000000  0.4598130000000  0.5518410000000 1.0
C      1  0.4229940000000  0.5142560000000  0.4363690000000 1.0
C      1  0.5237230000000  0.4871940000000  0.5760820000000 1.0
C      1  0.4177450000000  0.5257080000000  0.4644840000000 1.0
C      1  0.6182250000000  0.5297320000000  0.4850430000000 1.0
C      1  0.5275270000000  0.4393100000000  0.5721420000000 1.0
C      1  0.5823370000000  0.5623770000000  0.4604170000000 1.0
C      1  0.4510270000000  0.5799740000000  0.4657980000000 1.0
C      1  0.5086630000000  0.5668230000000  0.5528640000000 1.0
C      1  0.4810080000000  0.5908930000000  0.4275100000000 1.0
C      1  0.4391110000000  0.4851110000000  0.4341230000000 1.0
C      1  0.5422820000000  0.4651030000000  0.5435660000000 1.0
C      1  0.5663580000000  0.4428340000000  0.5385250000000 1.0
C      1  0.4997880000000  0.4409590000000  0.4877300000000 1.0
C      1  0.5245000000000  0.4980130000000  0.5240380000000 1.0
C      1  0.6010280000000  0.4557350000000  0.5687980000000 1.0
C      1  0.5085380000000  0.5891850000000  0.4822410000000 1.0
C      1  0.5831930000000  0.5331660000000  0.4235120000000 1.0
C      1  0.5411230000000  0.4595510000000  0.4807720000000 1.0
C      1  0.4755840000000  0.5020520000000  0.6116830000000 1.0
C      1  0.5425720000000  0.4255300000000  0.4271360000000 1.0
C      1  0.4308640000000  0.4420820000000  0.5759920000000 1.0
C      1  0.5824960000000  0.5460550000000  0.5185580000000 1.0
C      1  0.4110250000000  0.4795940000000  0.5450430000000 1.0
C      1  0.5226210000000  0.5268680000000  0.4105080000000 1.0
C      1  0.5800690000000  0.4488950000000  0.4533920000000 1.0
C      1  0.4545700000000  0.5535720000000  0.5195370000000 1.0
C      1  0.4815620000000  0.3951580000000  0.5084690000000 1.0
C      1  0.4406230000000  0.4485650000000  0.4665380000000 1.0
C      1  0.5538420000000  0.5288240000000  0.4096650000000 1.0
C      1  0.5173510000000  0.4614520000000  0.3802920000000 1.0
C      1  0.5227450000000  0.5871560000000  0.4553090000000 1.0
C      1  0.5528580000000  0.4823690000000  0.5168550000000 1.0
C      1  0.3909260000000  0.4789360000000  0.5107740000000 1.0
C      1  0.5060970000000  0.4030610000000  0.4544340000000 1.0
C      1  0.4850330000000  0.5523710000000  0.6171400000000 1.0
C      1  0.4597910000000  0.4309370000000  0.5817710000000 1.0
C      1  0.4939880000000  0.6044000000000  0.5369070000000 1.0
C      1  0.6032860000000  0.4531470000000  0.5056980000000 1.0
C      1  0.3775810000000  0.4771390000000  0.5392450000000 1.0
C      1  0.5535580000000  0.4085810000000  0.4796950000000 1.0
C      1  0.4865650000000  0.4240100000000  0.4267360000000 1.0
C      1  0.4796920000000  0.4565740000000  0.4261840000000 1.0
C      1  0.4815930000000  0.4968800000000  0.4218630000000 1.0
C      1  0.4791050000000  0.5726080000000  0.5687040000000 1.0
C      1  0.4769200000000  0.5240710000000  0.4693570000000 1.0
C      1  0.5099290000000  0.4629080000000  0.4559830000000 1.0
C      1  0.4874010000000  0.4714050000000  0.6031170000000 1.0
C      1  0.5823810000000  0.4356110000000  0.5666040000000 1.0
C      1  0.5285280000000  0.5818810000000  0.5727500000000 1.0
C      1  0.3747790000000  0.5026140000000  0.4698220000000 1.0
C      1  0.5360900000000  0.4441520000000  0.3997700000000 1.0
C      1  0.3945420000000  0.5280860000000  0.5417620000000 1.0
C      1  0.4664500000000  0.5990430000000  0.5084850000000 1.0
C      1  0.4124540000000  0.5649160000000  0.5239510000000 1.0
C      1  0.4628050000000  0.6029480000000  0.4469210000000 1.0
C      1  0.5075810000000  0.4842730000000  0.5480340000000 1.0
C      1  0.5887590000000  0.4966590000000  0.5269860000000 1.0
C      1  0.5776860000000  0.5396200000000  0.5744390000000 1.0
C      1  0.5036830000000  0.4980690000000  0.5936290000000 1.0
C      1  0.4342290000000  0.5180120000000  0.5591640000000 1.0
C      1  0.5853080000000  0.4908980000000  0.5837940000000 1.0
C      1  0.5488200000000  0.5287960000000  0.4932810000000 1.0
C      1  0.4326720000000  0.4171250000000  0.4563140000000 1.0
C      1  0.5158490000000  0.4321650000000  0.4613530000000 1.0
C      1  0.5217260000000  0.5547290000000  0.5237960000000 1.0
C      1  0.5290070000000  0.5786240000000  0.5023510000000 1.0
C      1  0.5949930000000  0.5505350000000  0.4890140000000 1.0
C      1  0.5279790000000  0.3963300000000  0.4748680000000 1.0
C      1  0.5501590000000  0.4238540000000  0.5612980000000 1.0
C      1  0.4164180000000  0.4723760000000  0.4644050000000 1.0
C      1  0.4219870000000  0.5778580000000  0.4486230000000 1.0
C      1  0.5606270000000  0.5133610000000  0.5177270000000 1.0
C      1  0.5485470000000  0.5440960000000  0.4400310000000 1.0
C      1  0.5652360000000  0.5146040000000  0.4428150000000 1.0
C      1  0.5119470000000  0.4180380000000  0.4178150000000 1.0
C      1  0.4781900000000  0.4829320000000  0.4850730000000 1.0
C      1  0.4381030000000  0.4188800000000  0.5159420000000 1.0
C      1  0.4771050000000  0.4038100000000  0.4474330000000 1.0
C      1  0.5311750000000  0.4784290000000  0.4366660000000 1.0
C      1  0.4803990000000  0.5133070000000  0.5453540000000 1.0
C      1  0.5871960000000  0.5254840000000  0.5449790000000 1.0
C      1  0.4766600000000  0.5774000000000  0.4843640000000 1.0
C      1  0.5447450000000  0.4977330000000  0.5528180000000 1.0
C      1  0.5477590000000  0.6011910000000  0.5110760000000 1.0
C      1  0.4477110000000  0.4889790000000  0.5613850000000 1.0
C      1  0.5390980000000  0.4052470000000  0.5360610000000 1.0
C      1  0.5496800000000  0.4347450000000  0.4590890000000 1.0
C      1  0.4547760000000  0.5127130000000  0.5231130000000 1.0
C      1  0.6028410000000  0.4733230000000  0.4114460000000 1.0
C      1  0.3875760000000  0.5244580000000  0.4703940000000 1.0
C      1  0.4867150000000  0.5723110000000  0.5295180000000 1.0
C      1  0.4808420000000  0.4796360000000  0.4511920000000 1.0
C      1  0.5940370000000  0.5552480000000  0.4367720000000 1.0
C      1  0.4452890000000  0.4457220000000  0.5287380000000 1.0
C      1  0.5768640000000  0.5784110000000  0.4961150000000 1.0
C      1  0.4509050000000  0.5062120000000  0.4102130000000 1.0
C      1  0.5528220000000  0.4496900000000  0.5082380000000 1.0
C      1  0.5349170000000  0.4633090000000  0.5871710000000 1.0
C      1  0.5540130000000  0.4575250000000  0.4243270000000 1.0
C      1  0.5111240000000  0.4620320000000  0.4143680000000 1.0
C      1  0.3881240000000  0.4764880000000  0.4789080000000 1.0
C      1  0.6278770000000  0.5042360000000  0.4815830000000 1.0
END
