TITL C-2848494-1720-482 0.000374105468597039 125000 -905.039229831628 0 0 164 (C1) n - 1
REM
REM in /home/bkarasulu/work/CARBON/AIRSS/Generating-Clusters/AIREBO/with-SteepDescent/Only-C1/SD-CG-opt/Try1-1.4A-POS3A/HFTN-CG
REM
REM
REM
REM
REM
REM ./C.cell (11c1c37f851c82e70ff6c80c92926a4b)
REM
REM compiler GCC version 9.2.1 20190827 (Red Hat 9.2.1-1)
REM options -cpp -mtune=generic -march=x86-64 -g -O0 -fpre-include=/usr/include/finclude/math-vector-fortran.h
REM seed 221141954 -225751293 -1137597184 -2072596540 -937139441 1078503668 -869954729 640494123 1608062674 2058454995 2070558430 1457969351 1600339491 -378937985 -977554572 -537197140 794153087 1680524580 866889892 -218955942 310943134 -607253515 1646884368 -1788743968 -100890765 1575775467 -1587006208 1728843902 546101122 2039419407 1493129124 -1617939917 515275059
REM
CELL 1.54180   50.00000   50.00000   50.00000   90.00000   90.00000   90.00000
LATT -1
SFAC C  
C      1  0.4293630000000  0.4662460000000  0.4104010000000 1.0
C      1  0.6022860000000  0.4750110000000  0.5157260000000 1.0
C      1  0.4816060000000  0.5262940000000  0.4191320000000 1.0
C      1  0.5577270000000  0.4303720000000  0.5659350000000 1.0
C      1  0.4499410000000  0.5471180000000  0.4622320000000 1.0
C      1  0.5651260000000  0.5421370000000  0.5486200000000 1.0
C      1  0.5218540000000  0.3985450000000  0.5082860000000 1.0
C      1  0.4997170000000  0.4945090000000  0.5156580000000 1.0
C      1  0.4864590000000  0.4155980000000  0.4742950000000 1.0
C      1  0.4593960000000  0.4682380000000  0.4080360000000 1.0
C      1  0.4261830000000  0.5131010000000  0.5367360000000 1.0
C      1  0.4300310000000  0.4165570000000  0.5087060000000 1.0
C      1  0.4507510000000  0.5093630000000  0.3813290000000 1.0
C      1  0.4853100000000  0.5128860000000  0.4738420000000 1.0
C      1  0.4901360000000  0.4351040000000  0.5945350000000 1.0
C      1  0.4105870000000  0.5218540000000  0.4656370000000 1.0
C      1  0.5226260000000  0.4416550000000  0.4455730000000 1.0
C      1  0.4204140000000  0.5749180000000  0.5074100000000 1.0
C      1  0.4735160000000  0.5774470000000  0.5212350000000 1.0
C      1  0.4392810000000  0.4496860000000  0.5289120000000 1.0
C      1  0.4211990000000  0.5452510000000  0.4459160000000 1.0
C      1  0.4933270000000  0.4491710000000  0.5090730000000 1.0
C      1  0.5535030000000  0.5044900000000  0.4727360000000 1.0
C      1  0.4758690000000  0.4580690000000  0.5959740000000 1.0
C      1  0.4611090000000  0.4432310000000  0.5036360000000 1.0
C      1  0.4793420000000  0.5085950000000  0.4420700000000 1.0
C      1  0.3814100000000  0.4852340000000  0.5256930000000 1.0
C      1  0.5566830000000  0.5814200000000  0.4435760000000 1.0
C      1  0.5596740000000  0.4627150000000  0.5425330000000 1.0
C      1  0.5855620000000  0.4960830000000  0.4237270000000 1.0
C      1  0.5776850000000  0.4528540000000  0.4945570000000 1.0
C      1  0.5226830000000  0.5686330000000  0.5600870000000 1.0
C      1  0.4381030000000  0.5927280000000  0.4926260000000 1.0
C      1  0.4136600000000  0.4907910000000  0.4186920000000 1.0
C      1  0.4515030000000  0.4180070000000  0.5328970000000 1.0
C      1  0.5370750000000  0.4492670000000  0.6156050000000 1.0
C      1  0.5584570000000  0.5563800000000  0.5255400000000 1.0
C      1  0.5563350000000  0.5340540000000  0.6010220000000 1.0
C      1  0.4136600000000  0.4566410000000  0.4803330000000 1.0
C      1  0.4694280000000  0.5504940000000  0.5008990000000 1.0
C      1  0.5737450000000  0.4249740000000  0.5443960000000 1.0
C      1  0.4901680000000  0.5050850000000  0.5530060000000 1.0
C      1  0.4223330000000  0.5596160000000  0.4770830000000 1.0
C      1  0.6001420000000  0.4965520000000  0.4709040000000 1.0
C      1  0.5218940000000  0.5719330000000  0.5299720000000 1.0
C      1  0.5018850000000  0.5569740000000  0.4930840000000 1.0
C      1  0.5730010000000  0.4547060000000  0.4638310000000 1.0
C      1  0.4548020000000  0.5132530000000  0.5182850000000 1.0
C      1  0.4341430000000  0.4438830000000  0.4589070000000 1.0
C      1  0.5387230000000  0.4680200000000  0.5944820000000 1.0
C      1  0.4593400000000  0.4734180000000  0.4903840000000 1.0
C      1  0.5381250000000  0.5394410000000  0.4859050000000 1.0
C      1  0.4723230000000  0.6047190000000  0.4244910000000 1.0
C      1  0.4709100000000  0.5708720000000  0.5665520000000 1.0
C      1  0.5244080000000  0.5188940000000  0.4692550000000 1.0
C      1  0.5130180000000  0.4386520000000  0.5418860000000 1.0
C      1  0.5132500000000  0.4609050000000  0.3882070000000 1.0
C      1  0.4642820000000  0.4903560000000  0.5579990000000 1.0
C      1  0.5182350000000  0.5718450000000  0.4745600000000 1.0
C      1  0.4699950000000  0.4844130000000  0.5207450000000 1.0
C      1  0.6037220000000  0.4724120000000  0.4845990000000 1.0
C      1  0.4331380000000  0.4151090000000  0.4770160000000 1.0
C      1  0.5111110000000  0.4768310000000  0.4309290000000 1.0
C      1  0.4534500000000  0.5328110000000  0.4012220000000 1.0
C      1  0.4851230000000  0.4505510000000  0.4549210000000 1.0
C      1  0.5069170000000  0.4237790000000  0.5696940000000 1.0
C      1  0.4996610000000  0.5391260000000  0.4576550000000 1.0
C      1  0.4905470000000  0.4653690000000  0.4815900000000 1.0
C      1  0.5333280000000  0.5934970000000  0.4899010000000 1.0
C      1  0.5307300000000  0.4376320000000  0.4776540000000 1.0
C      1  0.4821180000000  0.5490170000000  0.3938160000000 1.0
C      1  0.5372730000000  0.4223850000000  0.6081680000000 1.0
C      1  0.5654400000000  0.6067170000000  0.5272320000000 1.0
C      1  0.4611590000000  0.4866940000000  0.3835410000000 1.0
C      1  0.5139180000000  0.4868360000000  0.3779380000000 1.0
C      1  0.5203610000000  0.5436690000000  0.5145970000000 1.0
C      1  0.5054400000000  0.6027190000000  0.4963700000000 1.0
C      1  0.5358140000000  0.4181380000000  0.5799350000000 1.0
C      1  0.5338930000000  0.4933780000000  0.4175270000000 1.0
C      1  0.3993150000000  0.5201050000000  0.4976690000000 1.0
C      1  0.5453560000000  0.5150990000000  0.5547840000000 1.0
C      1  0.5459190000000  0.4157860000000  0.5083790000000 1.0
C      1  0.5583590000000  0.4211370000000  0.4797790000000 1.0
C      1  0.4593010000000  0.4620800000000  0.5724230000000 1.0
C      1  0.6007570000000  0.5365280000000  0.4460550000000 1.0
C      1  0.5607440000000  0.5110440000000  0.5843410000000 1.0
C      1  0.4722710000000  0.5398550000000  0.5614040000000 1.0
C      1  0.5035260000000  0.5227680000000  0.5272070000000 1.0
C      1  0.4521070000000  0.4727450000000  0.4577980000000 1.0
C      1  0.5343680000000  0.5514460000000  0.5942300000000 1.0
C      1  0.5048700000000  0.4476630000000  0.4170900000000 1.0
C      1  0.5108250000000  0.4915370000000  0.4836620000000 1.0
C      1  0.4415290000000  0.5428570000000  0.5702350000000 1.0
C      1  0.5611870000000  0.4608050000000  0.5741950000000 1.0
C      1  0.6006170000000  0.5081130000000  0.4446570000000 1.0
C      1  0.5730010000000  0.4872700000000  0.5872380000000 1.0
C      1  0.4984950000000  0.5891430000000  0.5202030000000 1.0
C      1  0.5252790000000  0.4726420000000  0.4593560000000 1.0
C      1  0.5202810000000  0.4849950000000  0.5845320000000 1.0
C      1  0.4247610000000  0.5436890000000  0.5476900000000 1.0
C      1  0.5563400000000  0.4940750000000  0.5302510000000 1.0
C      1  0.4976730000000  0.4200840000000  0.4465270000000 1.0
C      1  0.5230230000000  0.5367650000000  0.5685740000000 1.0
C      1  0.5161000000000  0.5730500000000  0.5992130000000 1.0
C      1  0.4250310000000  0.5042250000000  0.5876630000000 1.0
C      1  0.6011070000000  0.5411170000000  0.4946890000000 1.0
C      1  0.4773860000000  0.5606050000000  0.4574790000000 1.0
C      1  0.5932180000000  0.5376980000000  0.5473890000000 1.0
C      1  0.5799050000000  0.5150020000000  0.4893130000000 1.0
C      1  0.4698660000000  0.4889760000000  0.6333410000000 1.0
C      1  0.5493020000000  0.5861650000000  0.5178910000000 1.0
C      1  0.4287550000000  0.5437120000000  0.4180910000000 1.0
C      1  0.4774220000000  0.4774410000000  0.4355800000000 1.0
C      1  0.4747410000000  0.4420490000000  0.4172860000000 1.0
C      1  0.4951880000000  0.5252090000000  0.5780030000000 1.0
C      1  0.4371910000000  0.5016250000000  0.5645350000000 1.0
C      1  0.4552080000000  0.5234900000000  0.4858540000000 1.0
C      1  0.4118810000000  0.4428720000000  0.5099620000000 1.0
C      1  0.5108210000000  0.5336390000000  0.4037550000000 1.0
C      1  0.5878460000000  0.5481470000000  0.4684550000000 1.0
C      1  0.5814020000000  0.4191230000000  0.4281130000000 1.0
C      1  0.5588220000000  0.4886540000000  0.4279820000000 1.0
C      1  0.5749000000000  0.4272910000000  0.4523690000000 1.0
C      1  0.4819760000000  0.4254500000000  0.5461760000000 1.0
C      1  0.5288220000000  0.5532030000000  0.4178870000000 1.0
C      1  0.4771040000000  0.5922200000000  0.4478200000000 1.0
C      1  0.4603150000000  0.4307630000000  0.4430010000000 1.0
C      1  0.5367590000000  0.4838210000000  0.5042820000000 1.0
C      1  0.5622270000000  0.5398550000000  0.5039510000000 1.0
C      1  0.4355420000000  0.4995720000000  0.4717270000000 1.0
C      1  0.4124040000000  0.4845860000000  0.4517710000000 1.0
C      1  0.4150990000000  0.4549540000000  0.4351630000000 1.0
C      1  0.4990700000000  0.4990030000000  0.5957530000000 1.0
C      1  0.5587710000000  0.5572670000000  0.4655640000000 1.0
C      1  0.5406700000000  0.4405210000000  0.5282220000000 1.0
C      1  0.5997440000000  0.5273470000000  0.5217250000000 1.0
C      1  0.3945010000000  0.5098460000000  0.5259220000000 1.0
C      1  0.4750390000000  0.5347470000000  0.5309680000000 1.0
C      1  0.4254960000000  0.4807530000000  0.5278020000000 1.0
C      1  0.4869640000000  0.5997100000000  0.4761190000000 1.0
C      1  0.5858100000000  0.4498160000000  0.5268960000000 1.0
C      1  0.4702960000000  0.4569560000000  0.5408130000000 1.0
C      1  0.4554100000000  0.5785050000000  0.5423360000000 1.0
C      1  0.5081180000000  0.4685750000000  0.5327910000000 1.0
C      1  0.4954730000000  0.5790910000000  0.5766900000000 1.0
C      1  0.5443090000000  0.5867360000000  0.5735770000000 1.0
C      1  0.4265250000000  0.5363790000000  0.4991050000000 1.0
C      1  0.3953510000000  0.4928380000000  0.4785530000000 1.0
C      1  0.4320520000000  0.4466120000000  0.5621670000000 1.0
C      1  0.5850510000000  0.4996330000000  0.5191150000000 1.0
C      1  0.5465320000000  0.4546460000000  0.4991620000000 1.0
C      1  0.4614930000000  0.4202550000000  0.4843550000000 1.0
C      1  0.5558670000000  0.4782340000000  0.4562170000000 1.0
C      1  0.3901300000000  0.4679290000000  0.5011240000000 1.0
C      1  0.5289990000000  0.5532300000000  0.4495350000000 1.0
C      1  0.5208060000000  0.4915710000000  0.5541990000000 1.0
C      1  0.5080450000000  0.4243790000000  0.4937360000000 1.0
C      1  0.5234170000000  0.5072530000000  0.3954830000000 1.0
C      1  0.4632440000000  0.5785690000000  0.4827080000000 1.0
C      1  0.5845060000000  0.3955950000000  0.4746610000000 1.0
C      1  0.4290370000000  0.5678120000000  0.5336820000000 1.0
C      1  0.4813410000000  0.4824140000000  0.6099450000000 1.0
C      1  0.4279810000000  0.4804330000000  0.4979460000000 1.0
C      1  0.5472580000000  0.5746730000000  0.4184400000000 1.0
END
