TITL C-2847947-6848-579 -0.00181171428388477 125000 -668.621340138699 0 0 127 (C1) n - 1
REM
REM in /home/bkarasulu/work/CARBON/AIRSS/Generating-Clusters/AIREBO/with-SteepDescent/Only-C1/SD-CG-opt/Try1-1.4A-POS3A/HFTN-CG
REM
REM
REM
REM
REM
REM ./C.cell (11c1c37f851c82e70ff6c80c92926a4b)
REM
REM compiler GCC version 9.2.1 20190827 (Red Hat 9.2.1-1)
REM options -cpp -mtune=generic -march=x86-64 -g -O0 -fpre-include=/usr/include/finclude/math-vector-fortran.h
REM seed -463620301 1637030186 -795649520 -1931120060 27634624 -63732907 362757603 -1334908182 -1413353660 897850845 -300548235 336343722 1185141415 148237306 790077635 -375721728 -355652506 -798019541 403436681 -1005248517 -489808214 -135187353 397128245 -720823414 231223886 1288335024 -198913574 782503879 1907100005 -1305119775 -150129267 -1727029700 -1552930335
REM
CELL 1.54180   50.00000   50.00000   50.00000   90.00000   90.00000   90.00000
LATT -1
SFAC C  
C      1  0.4477490000000  0.4301700000000  0.4690770000000 1.0
C      1  0.4769470000000  0.5483680000000  0.5242560000000 1.0
C      1  0.5164380000000  0.5159440000000  0.5430990000000 1.0
C      1  0.5051020000000  0.4750550000000  0.4443250000000 1.0
C      1  0.4798750000000  0.4512140000000  0.5435750000000 1.0
C      1  0.5152880000000  0.4296690000000  0.5697410000000 1.0
C      1  0.4449050000000  0.4703220000000  0.5150990000000 1.0
C      1  0.5523800000000  0.4760940000000  0.4367130000000 1.0
C      1  0.4803770000000  0.5478940000000  0.4736820000000 1.0
C      1  0.5511950000000  0.5334970000000  0.4326250000000 1.0
C      1  0.5918010000000  0.4833360000000  0.5126100000000 1.0
C      1  0.5546880000000  0.4890690000000  0.5370030000000 1.0
C      1  0.5151200000000  0.4022290000000  0.5228950000000 1.0
C      1  0.4633760000000  0.5012850000000  0.4171330000000 1.0
C      1  0.5306800000000  0.4217040000000  0.5399990000000 1.0
C      1  0.4863770000000  0.4333050000000  0.5656040000000 1.0
C      1  0.5768600000000  0.5111730000000  0.5252710000000 1.0
C      1  0.5576680000000  0.4401020000000  0.5304710000000 1.0
C      1  0.4538790000000  0.4762990000000  0.4383210000000 1.0
C      1  0.4708100000000  0.4245250000000  0.5155740000000 1.0
C      1  0.4882630000000  0.4878280000000  0.5226720000000 1.0
C      1  0.4488580000000  0.4427150000000  0.5341480000000 1.0
C      1  0.5210010000000  0.5202000000000  0.4337980000000 1.0
C      1  0.4808880000000  0.5792600000000  0.4640350000000 1.0
C      1  0.4634800000000  0.5213890000000  0.5770260000000 1.0
C      1  0.5605420000000  0.4520300000000  0.6022400000000 1.0
C      1  0.5095430000000  0.4548130000000  0.5271390000000 1.0
C      1  0.5642220000000  0.5346130000000  0.5548940000000 1.0
C      1  0.4508730000000  0.5001900000000  0.5180270000000 1.0
C      1  0.4633200000000  0.5359220000000  0.4220030000000 1.0
C      1  0.5328620000000  0.5527730000000  0.5145320000000 1.0
C      1  0.5243350000000  0.5233750000000  0.5814510000000 1.0
C      1  0.4826190000000  0.5956230000000  0.5150310000000 1.0
C      1  0.5371020000000  0.4447220000000  0.4932280000000 1.0
C      1  0.5687960000000  0.4354020000000  0.4708330000000 1.0
C      1  0.5806440000000  0.5100630000000  0.5589390000000 1.0
C      1  0.5419620000000  0.4265060000000  0.4535420000000 1.0
C      1  0.4555630000000  0.4452900000000  0.4951890000000 1.0
C      1  0.4578890000000  0.5558450000000  0.4970970000000 1.0
C      1  0.4503480000000  0.5504520000000  0.5649990000000 1.0
C      1  0.5458770000000  0.4667340000000  0.5129240000000 1.0
C      1  0.3981530000000  0.4729580000000  0.5198030000000 1.0
C      1  0.4679130000000  0.4136630000000  0.4605580000000 1.0
C      1  0.5124870000000  0.5257950000000  0.5107940000000 1.0
C      1  0.5251760000000  0.4702330000000  0.4172890000000 1.0
C      1  0.4822390000000  0.4681740000000  0.5888590000000 1.0
C      1  0.5852530000000  0.5520990000000  0.4752650000000 1.0
C      1  0.4259140000000  0.4840480000000  0.5690860000000 1.0
C      1  0.4493210000000  0.4699530000000  0.4726210000000 1.0
C      1  0.5184100000000  0.4129770000000  0.4605950000000 1.0
C      1  0.4060530000000  0.5252970000000  0.5137760000000 1.0
C      1  0.4641990000000  0.5944890000000  0.4891730000000 1.0
C      1  0.4753250000000  0.4802380000000  0.4920100000000 1.0
C      1  0.5235890000000  0.4801870000000  0.4802690000000 1.0
C      1  0.5350970000000  0.4567630000000  0.5496860000000 1.0
C      1  0.4562820000000  0.4877870000000  0.5789800000000 1.0
C      1  0.4350270000000  0.5014360000000  0.5481840000000 1.0
C      1  0.4922610000000  0.4275680000000  0.4443060000000 1.0
C      1  0.4050450000000  0.4963650000000  0.5037270000000 1.0
C      1  0.5290840000000  0.5591100000000  0.4359780000000 1.0
C      1  0.4933450000000  0.4064360000000  0.4779640000000 1.0
C      1  0.4259050000000  0.4917950000000  0.4842030000000 1.0
C      1  0.4780380000000  0.5642890000000  0.4336190000000 1.0
C      1  0.5335190000000  0.5019260000000  0.4988990000000 1.0
C      1  0.5104350000000  0.5827770000000  0.4756100000000 1.0
C      1  0.5062680000000  0.5621380000000  0.4189490000000 1.0
C      1  0.5390440000000  0.4490920000000  0.5825890000000 1.0
C      1  0.5516670000000  0.5180700000000  0.4771350000000 1.0
C      1  0.4935290000000  0.5301490000000  0.5903130000000 1.0
C      1  0.5346270000000  0.4464530000000  0.4362370000000 1.0
C      1  0.5642730000000  0.5428100000000  0.5229380000000 1.0
C      1  0.4795870000000  0.5171110000000  0.5111410000000 1.0
C      1  0.6062360000000  0.4931740000000  0.4833330000000 1.0
C      1  0.5125930000000  0.5814510000000  0.5074980000000 1.0
C      1  0.4532420000000  0.5148760000000  0.4465580000000 1.0
C      1  0.5001350000000  0.5292810000000  0.4590850000000 1.0
C      1  0.5411840000000  0.5776540000000  0.5349550000000 1.0
C      1  0.4520070000000  0.5813180000000  0.5188370000000 1.0
C      1  0.5873390000000  0.5041220000000  0.4619970000000 1.0
C      1  0.4252050000000  0.4488600000000  0.4611100000000 1.0
C      1  0.4843240000000  0.5829280000000  0.5902260000000 1.0
C      1  0.5672490000000  0.5386020000000  0.4606370000000 1.0
C      1  0.5355850000000  0.6029110000000  0.5204310000000 1.0
C      1  0.4840440000000  0.5009770000000  0.4513140000000 1.0
C      1  0.5026190000000  0.4511950000000  0.4627550000000 1.0
C      1  0.5829620000000  0.5578220000000  0.5021000000000 1.0
C      1  0.5281910000000  0.5650850000000  0.5590830000000 1.0
C      1  0.4502260000000  0.5777470000000  0.4494180000000 1.0
C      1  0.4344250000000  0.5679550000000  0.5405180000000 1.0
C      1  0.5256030000000  0.5624300000000  0.4637070000000 1.0
C      1  0.5220560000000  0.4925920000000  0.5671900000000 1.0
C      1  0.5232160000000  0.5352510000000  0.4798220000000 1.0
C      1  0.5407960000000  0.5420520000000  0.5688580000000 1.0
C      1  0.4124490000000  0.5524990000000  0.5304890000000 1.0
C      1  0.5831630000000  0.4594680000000  0.4901070000000 1.0
C      1  0.4388380000000  0.5308810000000  0.5096870000000 1.0
C      1  0.4886760000000  0.4945490000000  0.4038490000000 1.0
C      1  0.4950990000000  0.5377560000000  0.5510910000000 1.0
C      1  0.5783200000000  0.4799500000000  0.5610660000000 1.0
C      1  0.5833750000000  0.4613370000000  0.5371930000000 1.0
C      1  0.4362460000000  0.5642350000000  0.4718610000000 1.0
C      1  0.5669320000000  0.4881870000000  0.4818710000000 1.0
C      1  0.4429520000000  0.5295140000000  0.5434110000000 1.0
C      1  0.5056060000000  0.5433360000000  0.3971890000000 1.0
C      1  0.4731280000000  0.5095230000000  0.4807240000000 1.0
C      1  0.4197520000000  0.4609220000000  0.5324930000000 1.0
C      1  0.5240350000000  0.3765240000000  0.5225480000000 1.0
C      1  0.4231960000000  0.4728580000000  0.4424910000000 1.0
C      1  0.4065540000000  0.5259400000000  0.4453690000000 1.0
C      1  0.5027720000000  0.5667560000000  0.5365470000000 1.0
C      1  0.5741030000000  0.4298860000000  0.5037040000000 1.0
C      1  0.4203810000000  0.5414750000000  0.4651510000000 1.0
C      1  0.5219730000000  0.4864820000000  0.5269040000000 1.0
C      1  0.4224920000000  0.5024540000000  0.4390490000000 1.0
C      1  0.4967150000000  0.4675380000000  0.4061120000000 1.0
C      1  0.4918410000000  0.5027400000000  0.5713040000000 1.0
C      1  0.4409740000000  0.5192930000000  0.4779030000000 1.0
C      1  0.4760190000000  0.4819130000000  0.5519060000000 1.0
C      1  0.5501270000000  0.4637910000000  0.4683500000000 1.0
C      1  0.5073240000000  0.5158610000000  0.4062000000000 1.0
C      1  0.5668820000000  0.5040930000000  0.4395200000000 1.0
C      1  0.4810250000000  0.5570540000000  0.5752960000000 1.0
C      1  0.5016170000000  0.4626850000000  0.4947460000000 1.0
C      1  0.4915850000000  0.4084760000000  0.5067220000000 1.0
C      1  0.5237580000000  0.4978570000000  0.4538330000000 1.0
C      1  0.5090080000000  0.4634340000000  0.5789070000000 1.0
C      1  0.4862830000000  0.4432590000000  0.4155990000000 1.0
END
