TITL C-2847954-6904-82 0.00010370640266847 125000 -129.108887235058 0 0 25 (C1) n - 1
REM
REM in /home/bkarasulu/work/CARBON/AIRSS/Generating-Clusters/AIREBO/with-SteepDescent/Only-C1/SD-CG-opt/Try1-1.4A-POS3A/HFTN-CG
REM
REM
REM
REM
REM
REM ./C.cell (11c1c37f851c82e70ff6c80c92926a4b)
REM
REM compiler GCC version 9.2.1 20190827 (Red Hat 9.2.1-1)
REM options -cpp -mtune=generic -march=x86-64 -g -O0 -fpre-include=/usr/include/finclude/math-vector-fortran.h
REM seed -1954261433 922597284 1410922474 1791692598 -40821822 -1574556984 1184763626 729258721 2001869912 -846412903 1066368563 -783503413 -579491631 1884777836 2016191180 992247973 1233225179 1255061126 -1223636303 254810823 -723346385 336912293 -703650381 -446690075 -890637632 -1002269539 -935052817 -1795933995 -842443202 1089290655 -1663675386 569925211 1468351793
REM
CELL 1.54180   50.00000   50.00000   50.00000   90.00000   90.00000   90.00000
LATT -1
SFAC C  
C      1  0.4661780000000  0.5288480000000  0.5118720000000 1.0
C      1  0.5236120000000  0.4775130000000  0.4890230000000 1.0
C      1  0.4701540000000  0.4757680000000  0.5206050000000 1.0
C      1  0.4383420000000  0.5468420000000  0.5196250000000 1.0
C      1  0.4311100000000  0.5134820000000  0.5199050000000 1.0
C      1  0.4625570000000  0.5259410000000  0.4785940000000 1.0
C      1  0.5691380000000  0.5292750000000  0.4675640000000 1.0
C      1  0.4688990000000  0.4294600000000  0.5189180000000 1.0
C      1  0.5684430000000  0.5100090000000  0.5117320000000 1.0
C      1  0.5790490000000  0.5076770000000  0.5360540000000 1.0
C      1  0.4902910000000  0.5358920000000  0.4664190000000 1.0
C      1  0.5307930000000  0.5039000000000  0.4822410000000 1.0
C      1  0.5100630000000  0.4592330000000  0.4650710000000 1.0
C      1  0.5562070000000  0.5147460000000  0.4873120000000 1.0
C      1  0.4579170000000  0.4526650000000  0.5299930000000 1.0
C      1  0.4892830000000  0.4837410000000  0.4698140000000 1.0
C      1  0.4611190000000  0.5021710000000  0.5309550000000 1.0
C      1  0.5887520000000  0.5029320000000  0.5599360000000 1.0
C      1  0.4328370000000  0.5293950000000  0.4911620000000 1.0
C      1  0.5102770000000  0.5177250000000  0.4690600000000 1.0
C      1  0.4664780000000  0.5060170000000  0.5582420000000 1.0
C      1  0.4892540000000  0.4362960000000  0.5010580000000 1.0
C      1  0.5802420000000  0.5451210000000  0.4498840000000 1.0
C      1  0.4924840000000  0.4683860000000  0.4994400000000 1.0
C      1  0.4665230000000  0.4969640000000  0.4655220000000 1.0
END
