TITL C-2847950-6905-11 -0.00156852955189536 125000 -769.224719801787 0 0 145 (C1) n - 1
REM
REM in /home/bkarasulu/work/CARBON/AIRSS/Generating-Clusters/AIREBO/with-SteepDescent/Only-C1/SD-CG-opt/Try1-1.4A-POS3A/HFTN-CG
REM
REM
REM
REM
REM
REM ./C.cell (11c1c37f851c82e70ff6c80c92926a4b)
REM
REM compiler GCC version 9.2.1 20190827 (Red Hat 9.2.1-1)
REM options -cpp -mtune=generic -march=x86-64 -g -O0 -fpre-include=/usr/include/finclude/math-vector-fortran.h
REM seed 2125762677 -677498850 -1627924514 1596788156 1808464675 834030364 1253803339 384777598 1710897552 1237414714 351681526 1079684267 -1835066665 -1952080341 -987417875 1848912383 1515219316 -534504920 -1834035097 538692674 2042790264 -149428714 1932346444 774356203 333154516 -1239522549 -170778001 771631705 1122794397 995644195 -1527964758 667782005 -1100035192
REM
CELL 1.54180   50.00000   50.00000   50.00000   90.00000   90.00000   90.00000
LATT -1
SFAC C  
C      1  0.4831290000000  0.5643990000000  0.4906050000000 1.0
C      1  0.5148780000000  0.4079490000000  0.5432490000000 1.0
C      1  0.5190700000000  0.5762480000000  0.5379220000000 1.0
C      1  0.4648170000000  0.5478790000000  0.5950500000000 1.0
C      1  0.4371870000000  0.5375160000000  0.4950220000000 1.0
C      1  0.4865390000000  0.4351230000000  0.4442720000000 1.0
C      1  0.5614790000000  0.5250980000000  0.5655520000000 1.0
C      1  0.5183110000000  0.4530270000000  0.5471800000000 1.0
C      1  0.5187480000000  0.5441910000000  0.5291470000000 1.0
C      1  0.4546710000000  0.4955630000000  0.5461480000000 1.0
C      1  0.4738640000000  0.5690060000000  0.4322000000000 1.0
C      1  0.5692600000000  0.4153630000000  0.5326770000000 1.0
C      1  0.4440630000000  0.4603600000000  0.4170490000000 1.0
C      1  0.5159240000000  0.4709160000000  0.3965680000000 1.0
C      1  0.4562110000000  0.4795400000000  0.4913440000000 1.0
C      1  0.5186590000000  0.5436070000000  0.4080170000000 1.0
C      1  0.5397810000000  0.4748770000000  0.4429500000000 1.0
C      1  0.4379380000000  0.5545800000000  0.4653240000000 1.0
C      1  0.5335000000000  0.4848040000000  0.5122540000000 1.0
C      1  0.4704460000000  0.4866540000000  0.4311810000000 1.0
C      1  0.5513260000000  0.4413090000000  0.5258940000000 1.0
C      1  0.5334880000000  0.4311160000000  0.4675430000000 1.0
C      1  0.4787300000000  0.4229790000000  0.4814200000000 1.0
C      1  0.4926280000000  0.4878630000000  0.3885220000000 1.0
C      1  0.4883180000000  0.5432650000000  0.4414140000000 1.0
C      1  0.4797910000000  0.4446810000000  0.5766730000000 1.0
C      1  0.4867470000000  0.4401710000000  0.5065360000000 1.0
C      1  0.5711810000000  0.4677060000000  0.5339990000000 1.0
C      1  0.5919780000000  0.4938740000000  0.5419100000000 1.0
C      1  0.5847020000000  0.4413690000000  0.4904750000000 1.0
C      1  0.5702930000000  0.5386210000000  0.4416430000000 1.0
C      1  0.4307820000000  0.4769230000000  0.5304010000000 1.0
C      1  0.4854210000000  0.5070280000000  0.5094130000000 1.0
C      1  0.5696840000000  0.4164250000000  0.5009290000000 1.0
C      1  0.4748610000000  0.5904800000000  0.5439220000000 1.0
C      1  0.3976900000000  0.4978940000000  0.5117960000000 1.0
C      1  0.5463470000000  0.5445770000000  0.4219080000000 1.0
C      1  0.4614280000000  0.5252360000000  0.4028240000000 1.0
C      1  0.3824650000000  0.4966080000000  0.5390450000000 1.0
C      1  0.5886820000000  0.5226180000000  0.5460450000000 1.0
C      1  0.5131000000000  0.4951390000000  0.6094310000000 1.0
C      1  0.4555490000000  0.5746710000000  0.4538180000000 1.0
C      1  0.4962340000000  0.5626920000000  0.4076990000000 1.0
C      1  0.6084970000000  0.4621880000000  0.4956650000000 1.0
C      1  0.4876630000000  0.4209640000000  0.5339360000000 1.0
C      1  0.5875190000000  0.5437040000000  0.5242080000000 1.0
C      1  0.5014980000000  0.5172770000000  0.4682330000000 1.0
C      1  0.5703270000000  0.5091710000000  0.4373770000000 1.0
C      1  0.5662780000000  0.4557920000000  0.5654790000000 1.0
C      1  0.4053420000000  0.5197950000000  0.4624340000000 1.0
C      1  0.5778100000000  0.4919900000000  0.4619950000000 1.0
C      1  0.4844110000000  0.5654450000000  0.5555660000000 1.0
C      1  0.5150120000000  0.4999270000000  0.4921450000000 1.0
C      1  0.5538290000000  0.5050620000000  0.5391480000000 1.0
C      1  0.5590120000000  0.4273900000000  0.5622500000000 1.0
C      1  0.5922820000000  0.5371930000000  0.4911780000000 1.0
C      1  0.5547070000000  0.5794970000000  0.4689370000000 1.0
C      1  0.3966070000000  0.4708380000000  0.4901350000000 1.0
C      1  0.5302850000000  0.4261190000000  0.5587250000000 1.0
C      1  0.5163000000000  0.4666930000000  0.4243690000000 1.0
C      1  0.6196540000000  0.4917070000000  0.4875310000000 1.0
C      1  0.4930180000000  0.5461300000000  0.5886500000000 1.0
C      1  0.5097260000000  0.5022210000000  0.5649540000000 1.0
C      1  0.4787080000000  0.5385790000000  0.4736970000000 1.0
C      1  0.5537350000000  0.5447440000000  0.4970140000000 1.0
C      1  0.5670270000000  0.4668130000000  0.5002310000000 1.0
C      1  0.5394940000000  0.4756360000000  0.5434590000000 1.0
C      1  0.4992690000000  0.5263800000000  0.5434110000000 1.0
C      1  0.5467620000000  0.5540460000000  0.5559080000000 1.0
C      1  0.5430750000000  0.4125980000000  0.4902410000000 1.0
C      1  0.4487640000000  0.5253840000000  0.5861180000000 1.0
C      1  0.4262080000000  0.4856860000000  0.4978630000000 1.0
C      1  0.4441920000000  0.4194790000000  0.5140680000000 1.0
C      1  0.4296000000000  0.4564930000000  0.5651200000000 1.0
C      1  0.4344510000000  0.5570210000000  0.5412890000000 1.0
C      1  0.4607780000000  0.5556780000000  0.5114520000000 1.0
C      1  0.5651600000000  0.4980360000000  0.5089620000000 1.0
C      1  0.5235590000000  0.4592510000000  0.4835420000000 1.0
C      1  0.5022320000000  0.4698080000000  0.5720240000000 1.0
C      1  0.5485740000000  0.4807780000000  0.4752970000000 1.0
C      1  0.4703470000000  0.4734440000000  0.5881750000000 1.0
C      1  0.4497470000000  0.6006160000000  0.4994490000000 1.0
C      1  0.4404770000000  0.5277380000000  0.4197190000000 1.0
C      1  0.4695210000000  0.4695940000000  0.5352530000000 1.0
C      1  0.5539570000000  0.4488520000000  0.4520040000000 1.0
C      1  0.5238690000000  0.5321690000000  0.4983300000000 1.0
C      1  0.5412820000000  0.5021280000000  0.5764540000000 1.0
C      1  0.4736130000000  0.4990660000000  0.4613880000000 1.0
C      1  0.4391050000000  0.4767660000000  0.5812580000000 1.0
C      1  0.5002790000000  0.6014460000000  0.5023500000000 1.0
C      1  0.5168890000000  0.5510220000000  0.4480900000000 1.0
C      1  0.4387050000000  0.4441870000000  0.5351200000000 1.0
C      1  0.4292570000000  0.5030460000000  0.5759920000000 1.0
C      1  0.4696590000000  0.4409410000000  0.5488070000000 1.0
C      1  0.4390400000000  0.4251890000000  0.4855900000000 1.0
C      1  0.4908140000000  0.4010940000000  0.4994630000000 1.0
C      1  0.4582360000000  0.4252750000000  0.4575190000000 1.0
C      1  0.5235870000000  0.4723020000000  0.5961160000000 1.0
C      1  0.4210870000000  0.5381600000000  0.4430050000000 1.0
C      1  0.5156890000000  0.5610950000000  0.5681830000000 1.0
C      1  0.4074100000000  0.4630370000000  0.4575160000000 1.0
C      1  0.4471840000000  0.5181730000000  0.4517130000000 1.0
C      1  0.5432410000000  0.5720380000000  0.5143780000000 1.0
C      1  0.4958050000000  0.4772810000000  0.4755700000000 1.0
C      1  0.4611110000000  0.5140340000000  0.4893350000000 1.0
C      1  0.4043540000000  0.5338770000000  0.4869460000000 1.0
C      1  0.4333120000000  0.4439830000000  0.4448830000000 1.0
C      1  0.5417470000000  0.5006700000000  0.4208640000000 1.0
C      1  0.5183500000000  0.4103730000000  0.5105830000000 1.0
C      1  0.4220870000000  0.5201220000000  0.5200500000000 1.0
C      1  0.4423570000000  0.4570580000000  0.4751740000000 1.0
C      1  0.4380840000000  0.4826460000000  0.4409910000000 1.0
C      1  0.4185310000000  0.4933750000000  0.4656200000000 1.0
C      1  0.5242200000000  0.5755440000000  0.4633570000000 1.0
C      1  0.4455520000000  0.5267200000000  0.5425000000000 1.0
C      1  0.4691170000000  0.5021920000000  0.5742620000000 1.0
C      1  0.5788720000000  0.4578130000000  0.4631870000000 1.0
C      1  0.5702060000000  0.5517700000000  0.4698160000000 1.0
C      1  0.4988100000000  0.5972750000000  0.5302830000000 1.0
C      1  0.5337620000000  0.5231390000000  0.4451230000000 1.0
C      1  0.4668940000000  0.4780860000000  0.3991380000000 1.0
C      1  0.5138000000000  0.5103330000000  0.4029510000000 1.0
C      1  0.4151460000000  0.5013760000000  0.5475610000000 1.0
C      1  0.5517350000000  0.4734920000000  0.5829400000000 1.0
C      1  0.5079890000000  0.5019680000000  0.4414790000000 1.0
C      1  0.5976200000000  0.5106480000000  0.4792770000000 1.0
C      1  0.5155460000000  0.5723370000000  0.4946380000000 1.0
C      1  0.4857380000000  0.5154640000000  0.4214770000000 1.0
C      1  0.5093470000000  0.4210770000000  0.4500020000000 1.0
C      1  0.5582260000000  0.5942200000000  0.4935900000000 1.0
C      1  0.4954810000000  0.5160180000000  0.5906950000000 1.0
C      1  0.4908520000000  0.4609760000000  0.4356900000000 1.0
C      1  0.4665200000000  0.4022530000000  0.5192050000000 1.0
C      1  0.5078120000000  0.4962200000000  0.5311730000000 1.0
C      1  0.5196090000000  0.4441600000000  0.5143480000000 1.0
C      1  0.5490510000000  0.5336380000000  0.5288060000000 1.0
C      1  0.4115090000000  0.4412390000000  0.4825270000000 1.0
C      1  0.5977110000000  0.4886490000000  0.5124340000000 1.0
C      1  0.4730780000000  0.5419080000000  0.5384830000000 1.0
C      1  0.5406390000000  0.5138350000000  0.4746360000000 1.0
C      1  0.4690330000000  0.5898980000000  0.4766190000000 1.0
C      1  0.5701040000000  0.5665350000000  0.5344910000000 1.0
C      1  0.4504770000000  0.5830510000000  0.5265110000000 1.0
C      1  0.5002140000000  0.5988390000000  0.4696840000000 1.0
C      1  0.4853370000000  0.4730720000000  0.5076490000000 1.0
END
