TITL C-2847948-6138-452 -0.00319232214919854 125000 -728.25320078158 0 0 134 (C1) n - 1
REM
REM in /home/bkarasulu/work/CARBON/AIRSS/Generating-Clusters/AIREBO/with-SteepDescent/Only-C1/SD-CG-opt/Try1-1.4A-POS3A/HFTN-CG
REM
REM
REM
REM
REM
REM ./C.cell (11c1c37f851c82e70ff6c80c92926a4b)
REM
REM compiler GCC version 9.2.1 20190827 (Red Hat 9.2.1-1)
REM options -cpp -mtune=generic -march=x86-64 -g -O0 -fpre-include=/usr/include/finclude/math-vector-fortran.h
REM seed 1113630131 159928400 -1873114575 -345186755 -1728841358 2035420120 -109060377 1323626010 627093825 761643101 1643519341 -487714939 487418515 1912234914 1608711653 2065120154 -1022913990 -651811547 -274103464 1940640840 551152481 284306940 21379069 -2085994439 -705072805 -1616183689 1627898534 932706322 -1144194217 -1169461611 -1037890530 -1834475380 680650043
REM
CELL 1.54180   50.00000   50.00000   50.00000   90.00000   90.00000   90.00000
LATT -1
SFAC C  
C      1  0.5217230000000  0.5543000000000  0.4631920000000 1.0
C      1  0.4077780000000  0.5254930000000  0.5271410000000 1.0
C      1  0.5640870000000  0.4483180000000  0.5667540000000 1.0
C      1  0.4857570000000  0.4203560000000  0.5481930000000 1.0
C      1  0.4358950000000  0.5101800000000  0.5386030000000 1.0
C      1  0.5145630000000  0.4379110000000  0.4748980000000 1.0
C      1  0.5129930000000  0.5351840000000  0.4159140000000 1.0
C      1  0.4518880000000  0.4738620000000  0.5753660000000 1.0
C      1  0.4839240000000  0.5049980000000  0.4414150000000 1.0
C      1  0.5833390000000  0.4902750000000  0.5348830000000 1.0
C      1  0.4881930000000  0.4425950000000  0.4334980000000 1.0
C      1  0.4954480000000  0.5228020000000  0.5974600000000 1.0
C      1  0.5441660000000  0.5706550000000  0.4802360000000 1.0
C      1  0.4061520000000  0.4941690000000  0.5425280000000 1.0
C      1  0.4294540000000  0.5698940000000  0.5051840000000 1.0
C      1  0.4851130000000  0.4579640000000  0.4033100000000 1.0
C      1  0.4814100000000  0.5407430000000  0.5795200000000 1.0
C      1  0.5289780000000  0.4752760000000  0.5227630000000 1.0
C      1  0.4974460000000  0.4250470000000  0.5166040000000 1.0
C      1  0.5189640000000  0.5428190000000  0.4933910000000 1.0
C      1  0.5309580000000  0.4666720000000  0.5518360000000 1.0
C      1  0.5004750000000  0.5703030000000  0.4466490000000 1.0
C      1  0.4689420000000  0.5279060000000  0.5522750000000 1.0
C      1  0.4602040000000  0.4889940000000  0.4689160000000 1.0
C      1  0.5166210000000  0.5443120000000  0.5421820000000 1.0
C      1  0.4556930000000  0.5566760000000  0.5472530000000 1.0
C      1  0.5239320000000  0.5881550000000  0.5566490000000 1.0
C      1  0.4752360000000  0.4318880000000  0.4782150000000 1.0
C      1  0.4803910000000  0.5949800000000  0.5298930000000 1.0
C      1  0.5320700000000  0.5934500000000  0.4914630000000 1.0
C      1  0.5703560000000  0.4406040000000  0.5356990000000 1.0
C      1  0.4566360000000  0.4945980000000  0.4239640000000 1.0
C      1  0.4891690000000  0.5261110000000  0.5301930000000 1.0
C      1  0.5302650000000  0.3993150000000  0.4410580000000 1.0
C      1  0.4476610000000  0.5714530000000  0.4454320000000 1.0
C      1  0.4381260000000  0.5437300000000  0.4761410000000 1.0
C      1  0.5061120000000  0.4465230000000  0.4988550000000 1.0
C      1  0.5214190000000  0.4009580000000  0.5154410000000 1.0
C      1  0.4382920000000  0.4535320000000  0.5608990000000 1.0
C      1  0.4277530000000  0.5036790000000  0.4354520000000 1.0
C      1  0.5019540000000  0.5904810000000  0.5052390000000 1.0
C      1  0.5305780000000  0.5195440000000  0.4989840000000 1.0
C      1  0.5165980000000  0.5061650000000  0.4507630000000 1.0
C      1  0.4303450000000  0.5378440000000  0.5584170000000 1.0
C      1  0.4577210000000  0.4637710000000  0.4206810000000 1.0
C      1  0.5619200000000  0.4346080000000  0.4970940000000 1.0
C      1  0.5389300000000  0.5799840000000  0.5351130000000 1.0
C      1  0.5177100000000  0.5644540000000  0.5148030000000 1.0
C      1  0.4613530000000  0.4969330000000  0.5568640000000 1.0
C      1  0.5733730000000  0.5436580000000  0.5497230000000 1.0
C      1  0.4332310000000  0.5044510000000  0.5048550000000 1.0
C      1  0.4761750000000  0.5773830000000  0.5506050000000 1.0
C      1  0.4507040000000  0.5750220000000  0.4791230000000 1.0
C      1  0.4845910000000  0.5341200000000  0.4141260000000 1.0
C      1  0.4049010000000  0.5201910000000  0.4945740000000 1.0
C      1  0.5109850000000  0.5053680000000  0.6194170000000 1.0
C      1  0.5131550000000  0.4574630000000  0.4511670000000 1.0
C      1  0.5199360000000  0.5646600000000  0.4218920000000 1.0
C      1  0.5445340000000  0.4214830000000  0.5245200000000 1.0
C      1  0.4687210000000  0.4825230000000  0.4986000000000 1.0
C      1  0.4891800000000  0.3936780000000  0.5267970000000 1.0
C      1  0.4378880000000  0.4403530000000  0.4669420000000 1.0
C      1  0.5711620000000  0.4708210000000  0.5800160000000 1.0
C      1  0.4749570000000  0.5094450000000  0.4029970000000 1.0
C      1  0.5448090000000  0.5731970000000  0.4127290000000 1.0
C      1  0.4717160000000  0.5283450000000  0.4560080000000 1.0
C      1  0.4401050000000  0.4258980000000  0.4959460000000 1.0
C      1  0.5473550000000  0.5411090000000  0.5279690000000 1.0
C      1  0.5003420000000  0.4778750000000  0.5097370000000 1.0
C      1  0.4693520000000  0.4105660000000  0.5040450000000 1.0
C      1  0.5118840000000  0.4884910000000  0.4795600000000 1.0
C      1  0.4232080000000  0.4640230000000  0.4704740000000 1.0
C      1  0.5738170000000  0.4681680000000  0.5217990000000 1.0
C      1  0.5065560000000  0.4770700000000  0.5682170000000 1.0
C      1  0.5617940000000  0.5368820000000  0.4368070000000 1.0
C      1  0.5142840000000  0.5105470000000  0.5456280000000 1.0
C      1  0.5322110000000  0.5336370000000  0.4439210000000 1.0
C      1  0.4158880000000  0.4761540000000  0.4973520000000 1.0
C      1  0.5122460000000  0.4979700000000  0.5878340000000 1.0
C      1  0.5585330000000  0.4415830000000  0.4696750000000 1.0
C      1  0.4685300000000  0.5945920000000  0.5004660000000 1.0
C      1  0.5027490000000  0.5637690000000  0.5664510000000 1.0
C      1  0.5241370000000  0.3897400000000  0.4889560000000 1.0
C      1  0.5514870000000  0.4740160000000  0.5069550000000 1.0
C      1  0.4559800000000  0.4418010000000  0.4445990000000 1.0
C      1  0.4093700000000  0.5229030000000  0.4443550000000 1.0
C      1  0.5843150000000  0.5520440000000  0.5186370000000 1.0
C      1  0.5349390000000  0.4963000000000  0.4256910000000 1.0
C      1  0.4817730000000  0.5130890000000  0.5058790000000 1.0
C      1  0.5423880000000  0.4973590000000  0.5530300000000 1.0
C      1  0.4347770000000  0.4838740000000  0.4555210000000 1.0
C      1  0.5667340000000  0.4972380000000  0.5705400000000 1.0
C      1  0.4893730000000  0.4784550000000  0.4585350000000 1.0
C      1  0.4318720000000  0.5847330000000  0.4297610000000 1.0
C      1  0.5153060000000  0.4063300000000  0.4637880000000 1.0
C      1  0.6012060000000  0.5527920000000  0.4609170000000 1.0
C      1  0.5659390000000  0.5560890000000  0.4177270000000 1.0
C      1  0.4897110000000  0.4875440000000  0.5405870000000 1.0
C      1  0.4656070000000  0.4645000000000  0.5338740000000 1.0
C      1  0.5665900000000  0.5745400000000  0.5372160000000 1.0
C      1  0.6132710000000  0.4959330000000  0.4802930000000 1.0
C      1  0.4949770000000  0.4883320000000  0.3982000000000 1.0
C      1  0.4724870000000  0.5541730000000  0.4388360000000 1.0
C      1  0.5826270000000  0.4177310000000  0.5137370000000 1.0
C      1  0.4294540000000  0.5517030000000  0.5273650000000 1.0
C      1  0.4634490000000  0.4497030000000  0.5033350000000 1.0
C      1  0.4952530000000  0.4530650000000  0.5815100000000 1.0
C      1  0.5448020000000  0.4624190000000  0.4573110000000 1.0
C      1  0.3861620000000  0.4760130000000  0.5035450000000 1.0
C      1  0.5495810000000  0.5094480000000  0.5252450000000 1.0
C      1  0.5768820000000  0.5226730000000  0.5721840000000 1.0
C      1  0.5123580000000  0.5691370000000  0.5959030000000 1.0
C      1  0.5547150000000  0.4946170000000  0.4525630000000 1.0
C      1  0.5595190000000  0.5467730000000  0.4959570000000 1.0
C      1  0.5863930000000  0.5294930000000  0.4545760000000 1.0
C      1  0.6064890000000  0.5037470000000  0.5053040000000 1.0
C      1  0.4854980000000  0.4177360000000  0.4565380000000 1.0
C      1  0.4608660000000  0.4367480000000  0.5498910000000 1.0
C      1  0.4793620000000  0.5858830000000  0.4643590000000 1.0
C      1  0.4480540000000  0.5416160000000  0.5833770000000 1.0
C      1  0.4118810000000  0.4628610000000  0.5455760000000 1.0
C      1  0.5353720000000  0.4355760000000  0.5541780000000 1.0
C      1  0.4709090000000  0.4620350000000  0.5933730000000 1.0
C      1  0.4879770000000  0.4412790000000  0.3812070000000 1.0
C      1  0.5213640000000  0.4972770000000  0.4025890000000 1.0
C      1  0.5060890000000  0.4300970000000  0.5677900000000 1.0
C      1  0.4211740000000  0.4403040000000  0.5181090000000 1.0
C      1  0.4354820000000  0.4694020000000  0.5235100000000 1.0
C      1  0.6049930000000  0.5045780000000  0.4557400000000 1.0
C      1  0.4572420000000  0.5183360000000  0.4851040000000 1.0
C      1  0.5446750000000  0.4933240000000  0.4848000000000 1.0
C      1  0.5816150000000  0.5191520000000  0.5192350000000 1.0
C      1  0.4119430000000  0.5339040000000  0.4706600000000 1.0
C      1  0.5620170000000  0.5206300000000  0.4742840000000 1.0
END
