TITL C-2848494-1720-660 -0.00203757524040177 125000 -1058.441202189 0 0 199 (C1) n - 1
REM
REM in /home/bkarasulu/work/CARBON/AIRSS/Generating-Clusters/AIREBO/with-SteepDescent/Only-C1/SD-CG-opt/Try1-1.4A-POS3A/HFTN-CG
REM
REM
REM
REM
REM
REM ./C.cell (11c1c37f851c82e70ff6c80c92926a4b)
REM
REM compiler GCC version 9.2.1 20190827 (Red Hat 9.2.1-1)
REM options -cpp -mtune=generic -march=x86-64 -g -O0 -fpre-include=/usr/include/finclude/math-vector-fortran.h
REM seed -1507966681 -701152296 1549546581 89699044 83415460 1015830083 -1428545296 181873391 -1296705105 2010080580 275613432 -309992580 -2108853908 462496155 947813901 -1653261020 528236066 176006803 558699225 -773364058 909441120 -1127706606 28021173 519443816 1974118052 -516493696 -380807964 1306031812 -542380325 -1363835368 -1623770729 -1287371706 -67699695
REM
CELL 1.54180   50.00000   50.00000   50.00000   90.00000   90.00000   90.00000
LATT -1
SFAC C  
C      1  0.4921010000000  0.4776480000000  0.4267230000000 1.0
C      1  0.4286190000000  0.5736450000000  0.4628050000000 1.0
C      1  0.4914120000000  0.5197020000000  0.5574580000000 1.0
C      1  0.4368950000000  0.5725650000000  0.4957680000000 1.0
C      1  0.5047700000000  0.5260080000000  0.4828050000000 1.0
C      1  0.4572700000000  0.3929650000000  0.4862560000000 1.0
C      1  0.4681520000000  0.4667240000000  0.6001330000000 1.0
C      1  0.4810430000000  0.5325250000000  0.5872080000000 1.0
C      1  0.5377360000000  0.4592080000000  0.5186860000000 1.0
C      1  0.5412910000000  0.4766420000000  0.4122210000000 1.0
C      1  0.5081750000000  0.5736060000000  0.5898550000000 1.0
C      1  0.5707700000000  0.5252650000000  0.5496500000000 1.0
C      1  0.4249040000000  0.4563800000000  0.4361050000000 1.0
C      1  0.5202370000000  0.4758650000000  0.5695090000000 1.0
C      1  0.5424040000000  0.5568770000000  0.4664260000000 1.0
C      1  0.5062450000000  0.4410780000000  0.5507270000000 1.0
C      1  0.4624620000000  0.4890850000000  0.4156470000000 1.0
C      1  0.6016410000000  0.5573190000000  0.4841320000000 1.0
C      1  0.5051410000000  0.6184790000000  0.4869830000000 1.0
C      1  0.4549380000000  0.4822690000000  0.5193370000000 1.0
C      1  0.5168410000000  0.5859640000000  0.4320110000000 1.0
C      1  0.4786470000000  0.5914280000000  0.4445580000000 1.0
C      1  0.5350840000000  0.5374320000000  0.4191210000000 1.0
C      1  0.5538340000000  0.4261400000000  0.5002200000000 1.0
C      1  0.5468520000000  0.4260300000000  0.4683550000000 1.0
C      1  0.4787350000000  0.5494530000000  0.3879110000000 1.0
C      1  0.5657140000000  0.4735200000000  0.5097470000000 1.0
C      1  0.4515090000000  0.3931500000000  0.5325140000000 1.0
C      1  0.6108970000000  0.4944230000000  0.5517170000000 1.0
C      1  0.4840270000000  0.5817360000000  0.4822290000000 1.0
C      1  0.5788570000000  0.4429510000000  0.5159580000000 1.0
C      1  0.4412780000000  0.4542620000000  0.5882720000000 1.0
C      1  0.5626840000000  0.5317380000000  0.5172500000000 1.0
C      1  0.5265690000000  0.5918990000000  0.5546860000000 1.0
C      1  0.4884840000000  0.4434140000000  0.4066750000000 1.0
C      1  0.5247080000000  0.4954040000000  0.3812710000000 1.0
C      1  0.6183020000000  0.5295520000000  0.5124960000000 1.0
C      1  0.4208300000000  0.4161500000000  0.4907690000000 1.0
C      1  0.5624400000000  0.6065460000000  0.4711340000000 1.0
C      1  0.4588910000000  0.4218000000000  0.4696360000000 1.0
C      1  0.3874030000000  0.5360030000000  0.5267560000000 1.0
C      1  0.4834910000000  0.5586840000000  0.4497260000000 1.0
C      1  0.5174520000000  0.4771640000000  0.5385050000000 1.0
C      1  0.4475370000000  0.4357390000000  0.4985100000000 1.0
C      1  0.4646740000000  0.5149270000000  0.4647680000000 1.0
C      1  0.3871260000000  0.4483280000000  0.5240850000000 1.0
C      1  0.4957040000000  0.5011470000000  0.5042360000000 1.0
C      1  0.5820020000000  0.4305170000000  0.5712400000000 1.0
C      1  0.5415940000000  0.5974490000000  0.4523070000000 1.0
C      1  0.5808770000000  0.5039840000000  0.5084370000000 1.0
C      1  0.5765620000000  0.5610110000000  0.5068010000000 1.0
C      1  0.5375150000000  0.5351560000000  0.4864660000000 1.0
C      1  0.4988500000000  0.5881910000000  0.5523750000000 1.0
C      1  0.4873690000000  0.4689660000000  0.5721640000000 1.0
C      1  0.5640840000000  0.4628060000000  0.5482410000000 1.0
C      1  0.5322370000000  0.4987480000000  0.5198990000000 1.0
C      1  0.5400590000000  0.6004370000000  0.4919610000000 1.0
C      1  0.4346450000000  0.5153020000000  0.4033200000000 1.0
C      1  0.4412640000000  0.4845130000000  0.5765610000000 1.0
C      1  0.5417910000000  0.5626470000000  0.4329190000000 1.0
C      1  0.4602810000000  0.4953010000000  0.6100160000000 1.0
C      1  0.5475470000000  0.4598210000000  0.4645100000000 1.0
C      1  0.4940900000000  0.4498960000000  0.5042270000000 1.0
C      1  0.5662340000000  0.5742720000000  0.4772310000000 1.0
C      1  0.4787930000000  0.5582140000000  0.5147830000000 1.0
C      1  0.5320100000000  0.3967360000000  0.4771790000000 1.0
C      1  0.5016020000000  0.4477380000000  0.4651240000000 1.0
C      1  0.4771810000000  0.6042740000000  0.5409860000000 1.0
C      1  0.5961090000000  0.4675230000000  0.5422590000000 1.0
C      1  0.5776600000000  0.4034880000000  0.5102270000000 1.0
C      1  0.4663430000000  0.5442720000000  0.5399930000000 1.0
C      1  0.4197310000000  0.4489110000000  0.5129980000000 1.0
C      1  0.5089380000000  0.5195320000000  0.5304000000000 1.0
C      1  0.4880340000000  0.5594420000000  0.5584700000000 1.0
C      1  0.5633470000000  0.4397610000000  0.4338780000000 1.0
C      1  0.4869720000000  0.4753920000000  0.5246690000000 1.0
C      1  0.3812590000000  0.4736480000000  0.5395540000000 1.0
C      1  0.4503030000000  0.5472700000000  0.4832350000000 1.0
C      1  0.5085130000000  0.5677150000000  0.5132320000000 1.0
C      1  0.4303090000000  0.4874090000000  0.5364720000000 1.0
C      1  0.5713170000000  0.5041190000000  0.5762960000000 1.0
C      1  0.4698060000000  0.4963840000000  0.5623710000000 1.0
C      1  0.5590270000000  0.4419900000000  0.5818360000000 1.0
C      1  0.4684190000000  0.3887460000000  0.5111280000000 1.0
C      1  0.5354090000000  0.4333810000000  0.4245110000000 1.0
C      1  0.6045420000000  0.4803320000000  0.5148320000000 1.0
C      1  0.5470500000000  0.4042430000000  0.5250140000000 1.0
C      1  0.5046760000000  0.3995990000000  0.4821650000000 1.0
C      1  0.5559750000000  0.5205060000000  0.4180290000000 1.0
C      1  0.4050850000000  0.5360800000000  0.5038120000000 1.0
C      1  0.5637330000000  0.5553380000000  0.5629460000000 1.0
C      1  0.5355450000000  0.4822160000000  0.6229170000000 1.0
C      1  0.5300420000000  0.5415970000000  0.5171100000000 1.0
C      1  0.4684470000000  0.6073870000000  0.4968210000000 1.0
C      1  0.5671600000000  0.5065350000000  0.4379250000000 1.0
C      1  0.5221480000000  0.4195480000000  0.4458910000000 1.0
C      1  0.5140860000000  0.4034490000000  0.5585050000000 1.0
C      1  0.4448610000000  0.4324480000000  0.5658670000000 1.0
C      1  0.6282570000000  0.5002680000000  0.5161590000000 1.0
C      1  0.4293040000000  0.4876500000000  0.4230510000000 1.0
C      1  0.4820230000000  0.5488550000000  0.4822520000000 1.0
C      1  0.4972930000000  0.5701250000000  0.4088470000000 1.0
C      1  0.4117840000000  0.5011210000000  0.5731980000000 1.0
C      1  0.4559960000000  0.5180310000000  0.5946520000000 1.0
C      1  0.5818270000000  0.5198020000000  0.4623150000000 1.0
C      1  0.5361640000000  0.5661470000000  0.5716980000000 1.0
C      1  0.6117210000000  0.4947010000000  0.4329960000000 1.0
C      1  0.4841880000000  0.3881170000000  0.4427970000000 1.0
C      1  0.4968570000000  0.3983610000000  0.5117790000000 1.0
C      1  0.4353190000000  0.5235700000000  0.5724280000000 1.0
C      1  0.5147640000000  0.5432630000000  0.5649350000000 1.0
C      1  0.5920910000000  0.4262880000000  0.4894300000000 1.0
C      1  0.4651330000000  0.4639480000000  0.4929990000000 1.0
C      1  0.4961810000000  0.5154940000000  0.4515130000000 1.0
C      1  0.5329770000000  0.4298940000000  0.5685240000000 1.0
C      1  0.4324320000000  0.5582870000000  0.4370700000000 1.0
C      1  0.4540200000000  0.4433970000000  0.4349140000000 1.0
C      1  0.5074370000000  0.5205070000000  0.5968120000000 1.0
C      1  0.5790440000000  0.4219480000000  0.4591850000000 1.0
C      1  0.4196240000000  0.4970800000000  0.4799550000000 1.0
C      1  0.4013520000000  0.5252370000000  0.5516160000000 1.0
C      1  0.5033230000000  0.6073290000000  0.4548150000000 1.0
C      1  0.4787660000000  0.4913370000000  0.4781660000000 1.0
C      1  0.4022940000000  0.5609850000000  0.4806090000000 1.0
C      1  0.3947150000000  0.4386210000000  0.4923960000000 1.0
C      1  0.4801510000000  0.5434960000000  0.4212750000000 1.0
C      1  0.5423600000000  0.6025520000000  0.5330100000000 1.0
C      1  0.4275340000000  0.4681540000000  0.4738740000000 1.0
C      1  0.4140680000000  0.5147600000000  0.4525040000000 1.0
C      1  0.4279990000000  0.4110180000000  0.5227390000000 1.0
C      1  0.5958080000000  0.4696810000000  0.4684090000000 1.0
C      1  0.5998450000000  0.5512480000000  0.5295770000000 1.0
C      1  0.4588420000000  0.5815990000000  0.5137220000000 1.0
C      1  0.5130860000000  0.4957260000000  0.4119580000000 1.0
C      1  0.4107550000000  0.4309480000000  0.5404790000000 1.0
C      1  0.5177840000000  0.5809150000000  0.4866250000000 1.0
C      1  0.4264660000000  0.4572220000000  0.5515620000000 1.0
C      1  0.5160560000000  0.4559450000000  0.4135550000000 1.0
C      1  0.4716180000000  0.4630080000000  0.3958310000000 1.0
C      1  0.5554170000000  0.5087290000000  0.4759910000000 1.0
C      1  0.5672270000000  0.4795230000000  0.4785550000000 1.0
C      1  0.5125000000000  0.5662090000000  0.4593410000000 1.0
C      1  0.5079760000000  0.5240430000000  0.4231730000000 1.0
C      1  0.4558600000000  0.4641340000000  0.4600420000000 1.0
C      1  0.4556680000000  0.5936900000000  0.4677640000000 1.0
C      1  0.5259560000000  0.4936420000000  0.5973590000000 1.0
C      1  0.6067820000000  0.4566270000000  0.4939400000000 1.0
C      1  0.4024390000000  0.4745860000000  0.5620930000000 1.0
C      1  0.4864040000000  0.4700520000000  0.4549530000000 1.0
C      1  0.5201260000000  0.3916270000000  0.5338320000000 1.0
C      1  0.6050200000000  0.5127050000000  0.4861130000000 1.0
C      1  0.5284610000000  0.5148700000000  0.5709560000000 1.0
C      1  0.4206850000000  0.5505550000000  0.5638400000000 1.0
C      1  0.6032520000000  0.5195500000000  0.5413880000000 1.0
C      1  0.4077480000000  0.5750450000000  0.5111030000000 1.0
C      1  0.4900300000000  0.4168730000000  0.4567820000000 1.0
C      1  0.5914450000000  0.5482880000000  0.4601460000000 1.0
C      1  0.5537000000000  0.4750370000000  0.5755770000000 1.0
C      1  0.3978840000000  0.4599860000000  0.4724930000000 1.0
C      1  0.4755360000000  0.5642130000000  0.5877570000000 1.0
C      1  0.5632360000000  0.4732910000000  0.4374880000000 1.0
C      1  0.4298410000000  0.5622430000000  0.5335630000000 1.0
C      1  0.5924470000000  0.4354480000000  0.5462250000000 1.0
C      1  0.4520140000000  0.4329830000000  0.5326300000000 1.0
C      1  0.4898450000000  0.4414180000000  0.5919710000000 1.0
C      1  0.4522890000000  0.5312150000000  0.3883610000000 1.0
C      1  0.5438380000000  0.5064420000000  0.5477130000000 1.0
C      1  0.5243460000000  0.4887850000000  0.4913640000000 1.0
C      1  0.4983970000000  0.4272900000000  0.5234470000000 1.0
C      1  0.4500930000000  0.5881020000000  0.5435310000000 1.0
C      1  0.5243770000000  0.5050110000000  0.4646010000000 1.0
C      1  0.5939780000000  0.4480480000000  0.4460930000000 1.0
C      1  0.5924020000000  0.4786040000000  0.4208210000000 1.0
C      1  0.3942600000000  0.4979250000000  0.4993560000000 1.0
C      1  0.6118670000000  0.4938370000000  0.4601640000000 1.0
C      1  0.4754100000000  0.4512910000000  0.5456930000000 1.0
C      1  0.3936260000000  0.5287750000000  0.4740230000000 1.0
C      1  0.5499700000000  0.4836120000000  0.3801100000000 1.0
C      1  0.5067620000000  0.4196550000000  0.5876370000000 1.0
C      1  0.5293220000000  0.6221650000000  0.5106460000000 1.0
C      1  0.4769740000000  0.4304880000000  0.4284800000000 1.0
C      1  0.4612510000000  0.5176110000000  0.4326580000000 1.0
C      1  0.3817440000000  0.4975060000000  0.4677270000000 1.0
C      1  0.5232010000000  0.4567310000000  0.4880420000000 1.0
C      1  0.4009480000000  0.4986910000000  0.5302890000000 1.0
C      1  0.4303740000000  0.5283750000000  0.4337930000000 1.0
C      1  0.5736280000000  0.5661500000000  0.4441080000000 1.0
C      1  0.5651530000000  0.5873050000000  0.5258610000000 1.0
C      1  0.5464370000000  0.4355690000000  0.5380680000000 1.0
C      1  0.4540060000000  0.5652530000000  0.4211150000000 1.0
C      1  0.4394400000000  0.5190740000000  0.4864280000000 1.0
C      1  0.4492660000000  0.5149700000000  0.5426330000000 1.0
C      1  0.4479330000000  0.5691050000000  0.5685140000000 1.0
C      1  0.4966400000000  0.6002170000000  0.5144470000000 1.0
C      1  0.5808710000000  0.5709430000000  0.5452580000000 1.0
C      1  0.4553530000000  0.4017340000000  0.5586860000000 1.0
C      1  0.4352450000000  0.5328040000000  0.5172890000000 1.0
C      1  0.4012600000000  0.4859130000000  0.4424140000000 1.0
C      1  0.4283730000000  0.4357220000000  0.4636730000000 1.0
END
