TITL C-2847956-8218-208 0.00264507367233135 125000 -1060.56364240871 0 0 197 (C1) n - 1
REM
REM in /home/bkarasulu/work/CARBON/AIRSS/Generating-Clusters/AIREBO/with-SteepDescent/Only-C1/SD-CG-opt/Try1-1.4A-POS3A/HFTN-CG
REM
REM
REM
REM
REM
REM ./C.cell (11c1c37f851c82e70ff6c80c92926a4b)
REM
REM compiler GCC version 9.2.1 20190827 (Red Hat 9.2.1-1)
REM options -cpp -mtune=generic -march=x86-64 -g -O0 -fpre-include=/usr/include/finclude/math-vector-fortran.h
REM seed 1984256004 -1108519804 1780607176 700547203 1286327122 57782940 -1198885148 1090653159 1336264851 -1719571771 -1678369706 -1515277004 1970872175 -1493177922 -926898858 -646865399 -518923341 34261808 -1617752093 131468957 29462830 -1678858993 -1779081562 -764067807 1215333338 -1817513956 1569727980 -844678195 -338197345 -883711478 2045560003 -469307399 -1439680586
REM
CELL 1.54180   50.00000   50.00000   50.00000   90.00000   90.00000   90.00000
LATT -1
SFAC C  
C      1  0.4556710000000  0.5126250000000  0.4533910000000 1.0
C      1  0.5844550000000  0.5048740000000  0.4356460000000 1.0
C      1  0.4208900000000  0.5065100000000  0.4740500000000 1.0
C      1  0.5506440000000  0.5414900000000  0.4542630000000 1.0
C      1  0.4279340000000  0.5156050000000  0.5395460000000 1.0
C      1  0.5063460000000  0.5699580000000  0.5833000000000 1.0
C      1  0.3940430000000  0.5196740000000  0.4902430000000 1.0
C      1  0.5693440000000  0.4222150000000  0.4473410000000 1.0
C      1  0.4621370000000  0.4505360000000  0.4341110000000 1.0
C      1  0.3985850000000  0.5111390000000  0.4327380000000 1.0
C      1  0.4351040000000  0.5433050000000  0.4259790000000 1.0
C      1  0.5273870000000  0.5021420000000  0.5210680000000 1.0
C      1  0.4893040000000  0.6049760000000  0.5446090000000 1.0
C      1  0.5083640000000  0.5367980000000  0.4596010000000 1.0
C      1  0.5791750000000  0.5111190000000  0.5627900000000 1.0
C      1  0.5449900000000  0.4412820000000  0.4060860000000 1.0
C      1  0.4916990000000  0.4562030000000  0.6054540000000 1.0
C      1  0.5417430000000  0.4635750000000  0.5679740000000 1.0
C      1  0.4334520000000  0.5668530000000  0.4485320000000 1.0
C      1  0.3817560000000  0.5407260000000  0.5381880000000 1.0
C      1  0.4372370000000  0.5837120000000  0.4932200000000 1.0
C      1  0.4398740000000  0.4270260000000  0.4107040000000 1.0
C      1  0.4337280000000  0.5217630000000  0.4022590000000 1.0
C      1  0.5092070000000  0.4357110000000  0.6044010000000 1.0
C      1  0.4193110000000  0.4928200000000  0.5051390000000 1.0
C      1  0.4996060000000  0.6074470000000  0.5122930000000 1.0
C      1  0.5396940000000  0.4331230000000  0.5626020000000 1.0
C      1  0.5506870000000  0.5951710000000  0.5452060000000 1.0
C      1  0.4315060000000  0.5069480000000  0.5784160000000 1.0
C      1  0.4686730000000  0.4769370000000  0.6166580000000 1.0
C      1  0.4157900000000  0.5312760000000  0.4512670000000 1.0
C      1  0.4614650000000  0.5628990000000  0.4203360000000 1.0
C      1  0.6204920000000  0.4953240000000  0.4837700000000 1.0
C      1  0.4787330000000  0.5867240000000  0.4667120000000 1.0
C      1  0.5887500000000  0.5626990000000  0.5462200000000 1.0
C      1  0.5826520000000  0.5125150000000  0.5954490000000 1.0
C      1  0.5267880000000  0.6009410000000  0.5001820000000 1.0
C      1  0.5940130000000  0.4736430000000  0.5216970000000 1.0
C      1  0.4484440000000  0.4829650000000  0.5933680000000 1.0
C      1  0.4676650000000  0.4358600000000  0.5733090000000 1.0
C      1  0.4898280000000  0.5022550000000  0.6172010000000 1.0
C      1  0.5079370000000  0.5407460000000  0.4306660000000 1.0
C      1  0.5359120000000  0.4892190000000  0.4513690000000 1.0
C      1  0.5822130000000  0.4208230000000  0.5431520000000 1.0
C      1  0.4998500000000  0.3876880000000  0.5138570000000 1.0
C      1  0.5400950000000  0.5423020000000  0.4240220000000 1.0
C      1  0.5209800000000  0.4816560000000  0.4784630000000 1.0
C      1  0.5259980000000  0.4468040000000  0.4993010000000 1.0
C      1  0.4906880000000  0.4452600000000  0.4068440000000 1.0
C      1  0.5018930000000  0.4943800000000  0.4225630000000 1.0
C      1  0.4428710000000  0.4711880000000  0.5124220000000 1.0
C      1  0.4150090000000  0.4212630000000  0.5262220000000 1.0
C      1  0.5140040000000  0.5442320000000  0.5624150000000 1.0
C      1  0.4660150000000  0.4391380000000  0.3959680000000 1.0
C      1  0.5793860000000  0.4502700000000  0.5045520000000 1.0
C      1  0.4361540000000  0.4889360000000  0.4098750000000 1.0
C      1  0.5858220000000  0.5327890000000  0.4376600000000 1.0
C      1  0.5306980000000  0.5110320000000  0.4183630000000 1.0
C      1  0.5380070000000  0.5782190000000  0.5183940000000 1.0
C      1  0.4063830000000  0.5298050000000  0.5173920000000 1.0
C      1  0.4947700000000  0.5014620000000  0.3837810000000 1.0
C      1  0.4155820000000  0.5616060000000  0.4951750000000 1.0
C      1  0.5814400000000  0.5466230000000  0.4677580000000 1.0
C      1  0.5194360000000  0.5117760000000  0.5710060000000 1.0
C      1  0.5395100000000  0.5555020000000  0.4996560000000 1.0
C      1  0.4357820000000  0.4833440000000  0.5431170000000 1.0
C      1  0.4418360000000  0.4500330000000  0.5463180000000 1.0
C      1  0.5354370000000  0.5163980000000  0.6006570000000 1.0
C      1  0.4790960000000  0.4798630000000  0.4370520000000 1.0
C      1  0.4512450000000  0.5137300000000  0.4871260000000 1.0
C      1  0.4025510000000  0.5629870000000  0.5237360000000 1.0
C      1  0.5995680000000  0.5291900000000  0.5278520000000 1.0
C      1  0.5008930000000  0.4554630000000  0.4785130000000 1.0
C      1  0.5569580000000  0.5922360000000  0.4864620000000 1.0
C      1  0.5662200000000  0.4033100000000  0.4941180000000 1.0
C      1  0.5701760000000  0.5198830000000  0.5216110000000 1.0
C      1  0.4985700000000  0.4057270000000  0.5362490000000 1.0
C      1  0.5399430000000  0.4275310000000  0.4345280000000 1.0
C      1  0.5721050000000  0.4364780000000  0.5631610000000 1.0
C      1  0.4419050000000  0.4561840000000  0.4587670000000 1.0
C      1  0.4947400000000  0.4434730000000  0.4407920000000 1.0
C      1  0.3930480000000  0.4529980000000  0.4958250000000 1.0
C      1  0.5808130000000  0.5685170000000  0.4923100000000 1.0
C      1  0.5416910000000  0.4802400000000  0.5427910000000 1.0
C      1  0.4542460000000  0.4279870000000  0.5235360000000 1.0
C      1  0.4924760000000  0.5236820000000  0.4866500000000 1.0
C      1  0.5110440000000  0.5377320000000  0.5291380000000 1.0
C      1  0.4587650000000  0.5112540000000  0.4227220000000 1.0
C      1  0.5653820000000  0.4246660000000  0.5166350000000 1.0
C      1  0.4250490000000  0.5564160000000  0.5560590000000 1.0
C      1  0.6348960000000  0.4961740000000  0.5303600000000 1.0
C      1  0.5746760000000  0.5426970000000  0.5707740000000 1.0
C      1  0.5487690000000  0.5101480000000  0.5538780000000 1.0
C      1  0.5611740000000  0.4654380000000  0.4809870000000 1.0
C      1  0.5178490000000  0.4229260000000  0.5817560000000 1.0
C      1  0.6052130000000  0.4829400000000  0.4597470000000 1.0
C      1  0.4928410000000  0.5724250000000  0.5371160000000 1.0
C      1  0.4005570000000  0.4349330000000  0.4753060000000 1.0
C      1  0.4755400000000  0.5841050000000  0.4333730000000 1.0
C      1  0.5070000000000  0.4996760000000  0.5443330000000 1.0
C      1  0.4767450000000  0.5505620000000  0.3999790000000 1.0
C      1  0.5122650000000  0.5252230000000  0.6192920000000 1.0
C      1  0.4236410000000  0.4804140000000  0.4553380000000 1.0
C      1  0.5916870000000  0.4717120000000  0.4333640000000 1.0
C      1  0.4441940000000  0.5444130000000  0.4946540000000 1.0
C      1  0.5211640000000  0.4626330000000  0.4372280000000 1.0
C      1  0.5554240000000  0.4110610000000  0.4705600000000 1.0
C      1  0.4982470000000  0.3959790000000  0.4877230000000 1.0
C      1  0.5437150000000  0.4503120000000  0.4595120000000 1.0
C      1  0.4088850000000  0.5283050000000  0.5646860000000 1.0
C      1  0.5445380000000  0.5355590000000  0.5346420000000 1.0
C      1  0.3760290000000  0.4756170000000  0.5009970000000 1.0
C      1  0.4084140000000  0.4564140000000  0.5501390000000 1.0
C      1  0.4589380000000  0.5150800000000  0.5506270000000 1.0
C      1  0.5043060000000  0.4274080000000  0.5135110000000 1.0
C      1  0.4636250000000  0.4169370000000  0.4290180000000 1.0
C      1  0.4707000000000  0.4971420000000  0.5727010000000 1.0
C      1  0.5991630000000  0.5206650000000  0.4757620000000 1.0
C      1  0.5939490000000  0.5605550000000  0.5159510000000 1.0
C      1  0.5069290000000  0.5526640000000  0.3917800000000 1.0
C      1  0.5795890000000  0.5621210000000  0.3978450000000 1.0
C      1  0.5426770000000  0.5420060000000  0.5822460000000 1.0
C      1  0.5588170000000  0.4732840000000  0.5907820000000 1.0
C      1  0.4468980000000  0.5374740000000  0.5722200000000 1.0
C      1  0.6165440000000  0.5314240000000  0.5005020000000 1.0
C      1  0.4659070000000  0.4962290000000  0.5123910000000 1.0
C      1  0.5343860000000  0.5176580000000  0.4677820000000 1.0
C      1  0.5230850000000  0.5276230000000  0.4989710000000 1.0
C      1  0.5673770000000  0.4963710000000  0.3929470000000 1.0
C      1  0.5811400000000  0.4612390000000  0.5730520000000 1.0
C      1  0.5674820000000  0.4561610000000  0.4190060000000 1.0
C      1  0.4830130000000  0.5888150000000  0.5721210000000 1.0
C      1  0.5197690000000  0.4624290000000  0.5288690000000 1.0
C      1  0.4591870000000  0.4591270000000  0.4863760000000 1.0
C      1  0.5102820000000  0.5819330000000  0.3959690000000 1.0
C      1  0.5463890000000  0.5650560000000  0.4730000000000 1.0
C      1  0.3941150000000  0.4918360000000  0.5197210000000 1.0
C      1  0.5372380000000  0.5787930000000  0.5734690000000 1.0
C      1  0.4456360000000  0.4160210000000  0.4863900000000 1.0
C      1  0.5810110000000  0.4930730000000  0.4785750000000 1.0
C      1  0.4579470000000  0.4140690000000  0.5524320000000 1.0
C      1  0.4913440000000  0.5135090000000  0.5874280000000 1.0
C      1  0.5278580000000  0.4246290000000  0.4735930000000 1.0
C      1  0.4749280000000  0.4304870000000  0.4958430000000 1.0
C      1  0.4284450000000  0.4312620000000  0.4703910000000 1.0
C      1  0.4439120000000  0.4610410000000  0.4073890000000 1.0
C      1  0.4940070000000  0.4237100000000  0.4684870000000 1.0
C      1  0.4846460000000  0.4817160000000  0.5367760000000 1.0
C      1  0.3886540000000  0.5084570000000  0.5458880000000 1.0
C      1  0.5323480000000  0.4728390000000  0.4067740000000 1.0
C      1  0.4425750000000  0.4561040000000  0.5797660000000 1.0
C      1  0.5340580000000  0.4253640000000  0.5299560000000 1.0
C      1  0.5416860000000  0.4833760000000  0.5010820000000 1.0
C      1  0.5595260000000  0.4984910000000  0.6028600000000 1.0
C      1  0.4899860000000  0.4925670000000  0.4884410000000 1.0
C      1  0.5202830000000  0.5799610000000  0.5446350000000 1.0
C      1  0.5227610000000  0.5286850000000  0.3906920000000 1.0
C      1  0.4331870000000  0.4043970000000  0.5110430000000 1.0
C      1  0.4506020000000  0.5895590000000  0.5202080000000 1.0
C      1  0.5927620000000  0.4828930000000  0.5544250000000 1.0
C      1  0.4960680000000  0.5949670000000  0.4165170000000 1.0
C      1  0.5564110000000  0.4895290000000  0.4240680000000 1.0
C      1  0.4952090000000  0.4530310000000  0.5501350000000 1.0
C      1  0.5954210000000  0.4451260000000  0.4772130000000 1.0
C      1  0.5865990000000  0.4435330000000  0.4517000000000 1.0
C      1  0.4811790000000  0.5516890000000  0.5575380000000 1.0
C      1  0.4948080000000  0.5595610000000  0.5087200000000 1.0
C      1  0.5144840000000  0.4082130000000  0.4378340000000 1.0
C      1  0.4217440000000  0.5850490000000  0.5380100000000 1.0
C      1  0.4926320000000  0.4658390000000  0.5092890000000 1.0
C      1  0.6218390000000  0.4828790000000  0.5085640000000 1.0
C      1  0.5710760000000  0.4924010000000  0.5087760000000 1.0
C      1  0.4642870000000  0.5495610000000  0.5160260000000 1.0
C      1  0.4807140000000  0.4672040000000  0.5759680000000 1.0
C      1  0.4848540000000  0.4048570000000  0.4417080000000 1.0
C      1  0.4674220000000  0.5611960000000  0.5855580000000 1.0
C      1  0.5703980000000  0.5472360000000  0.4187570000000 1.0
C      1  0.4714200000000  0.4954670000000  0.6450320000000 1.0
C      1  0.4132360000000  0.4879960000000  0.4301280000000 1.0
C      1  0.4845580000000  0.5551900000000  0.4765960000000 1.0
C      1  0.4082370000000  0.4885180000000  0.5613440000000 1.0
C      1  0.3719980000000  0.5031210000000  0.4885130000000 1.0
C      1  0.4150030000000  0.4522320000000  0.5170360000000 1.0
C      1  0.5004170000000  0.4710430000000  0.3978790000000 1.0
C      1  0.4058630000000  0.5582260000000  0.4659560000000 1.0
C      1  0.5271700000000  0.4960560000000  0.3820940000000 1.0
C      1  0.4550750000000  0.5449900000000  0.4630780000000 1.0
C      1  0.4959610000000  0.4221970000000  0.5608410000000 1.0
C      1  0.4883340000000  0.5221800000000  0.4099870000000 1.0
C      1  0.4796220000000  0.5234360000000  0.5275040000000 1.0
C      1  0.4754980000000  0.5982250000000  0.4985690000000 1.0
C      1  0.4542330000000  0.5635490000000  0.5418300000000 1.0
C      1  0.4688540000000  0.4847370000000  0.4662520000000 1.0
C      1  0.5551810000000  0.5615630000000  0.5502750000000 1.0
C      1  0.6139210000000  0.5076350000000  0.5445770000000 1.0
C      1  0.4478970000000  0.5845350000000  0.4688240000000 1.0
C      1  0.4918880000000  0.5439200000000  0.5999440000000 1.0
END
