TITL C-2847955-7945-544 -0.00240261193367579 125000 -711.752257876357 0 0 133 (C1) n - 1
REM
REM in /home/bkarasulu/work/CARBON/AIRSS/Generating-Clusters/AIREBO/with-SteepDescent/Only-C1/SD-CG-opt/Try1-1.4A-POS3A/HFTN-CG
REM
REM
REM
REM
REM
REM ./C.cell (11c1c37f851c82e70ff6c80c92926a4b)
REM
REM compiler GCC version 9.2.1 20190827 (Red Hat 9.2.1-1)
REM options -cpp -mtune=generic -march=x86-64 -g -O0 -fpre-include=/usr/include/finclude/math-vector-fortran.h
REM seed 1441249519 -418850646 -715618399 -1478258881 2002733896 -698613733 -960604711 486670810 249558046 -1025000775 -1668408296 427204028 1185083463 1946793297 -535418810 -807082761 1671626320 446825319 -829849356 -1684800610 2113224084 1318462367 300401478 -1005441486 -555454835 -411001745 -300476082 1669435604 -1800562725 -468162058 1798510985 2045635340 324275948
REM
CELL 1.54180   50.00000   50.00000   50.00000   90.00000   90.00000   90.00000
LATT -1
SFAC C  
C      1  0.5616520000000  0.4617750000000  0.4195040000000 1.0
C      1  0.5253080000000  0.5428330000000  0.3999500000000 1.0
C      1  0.4026960000000  0.5197180000000  0.4471980000000 1.0
C      1  0.4426310000000  0.5375720000000  0.5133560000000 1.0
C      1  0.5714730000000  0.4277420000000  0.4632570000000 1.0
C      1  0.4208660000000  0.4575140000000  0.4102310000000 1.0
C      1  0.5396860000000  0.5901690000000  0.4929060000000 1.0
C      1  0.4425940000000  0.5554750000000  0.5587870000000 1.0
C      1  0.4410240000000  0.4386190000000  0.5410480000000 1.0
C      1  0.4438760000000  0.5631480000000  0.5283730000000 1.0
C      1  0.4068480000000  0.5018760000000  0.5502100000000 1.0
C      1  0.5714310000000  0.5518930000000  0.4550660000000 1.0
C      1  0.5852810000000  0.4770660000000  0.4710440000000 1.0
C      1  0.5607310000000  0.5199090000000  0.4939840000000 1.0
C      1  0.4961590000000  0.4628120000000  0.4966030000000 1.0
C      1  0.4864210000000  0.5716310000000  0.5433880000000 1.0
C      1  0.4936530000000  0.5969170000000  0.5265350000000 1.0
C      1  0.5187450000000  0.5792260000000  0.5414970000000 1.0
C      1  0.4903130000000  0.4189160000000  0.5459790000000 1.0
C      1  0.4684780000000  0.5145530000000  0.5389870000000 1.0
C      1  0.4980010000000  0.5397530000000  0.5036270000000 1.0
C      1  0.4652310000000  0.4167590000000  0.5065610000000 1.0
C      1  0.4203420000000  0.4779700000000  0.4991430000000 1.0
C      1  0.4567760000000  0.4580220000000  0.4496130000000 1.0
C      1  0.4669200000000  0.5733820000000  0.4782270000000 1.0
C      1  0.5810770000000  0.4450750000000  0.4818490000000 1.0
C      1  0.5119540000000  0.5876590000000  0.4808240000000 1.0
C      1  0.5505790000000  0.5339730000000  0.4435220000000 1.0
C      1  0.4926080000000  0.4518420000000  0.4240670000000 1.0
C      1  0.4804730000000  0.4056060000000  0.4468240000000 1.0
C      1  0.3971330000000  0.5178230000000  0.5298280000000 1.0
C      1  0.4653410000000  0.4606640000000  0.5776460000000 1.0
C      1  0.4977260000000  0.4331020000000  0.4899910000000 1.0
C      1  0.4726540000000  0.5677480000000  0.4474290000000 1.0
C      1  0.4658930000000  0.4397680000000  0.4844790000000 1.0
C      1  0.4528730000000  0.5021570000000  0.4629000000000 1.0
C      1  0.4578230000000  0.5811030000000  0.5107580000000 1.0
C      1  0.5127070000000  0.4043570000000  0.5340330000000 1.0
C      1  0.5387230000000  0.5740100000000  0.5200970000000 1.0
C      1  0.5247510000000  0.5534030000000  0.4965510000000 1.0
C      1  0.5687560000000  0.5011780000000  0.4299900000000 1.0
C      1  0.5227040000000  0.4419190000000  0.5414730000000 1.0
C      1  0.5878970000000  0.4843690000000  0.4404020000000 1.0
C      1  0.5354140000000  0.4734060000000  0.4315530000000 1.0
C      1  0.5490540000000  0.5463220000000  0.5798840000000 1.0
C      1  0.4716230000000  0.5460720000000  0.5514430000000 1.0
C      1  0.6025560000000  0.5001280000000  0.5123250000000 1.0
C      1  0.4931680000000  0.5152430000000  0.4846210000000 1.0
C      1  0.5510490000000  0.5842020000000  0.4434440000000 1.0
C      1  0.4982490000000  0.5045370000000  0.5979700000000 1.0
C      1  0.5172280000000  0.5064750000000  0.4189630000000 1.0
C      1  0.5623960000000  0.5791440000000  0.4733150000000 1.0
C      1  0.4698740000000  0.4862290000000  0.5976430000000 1.0
C      1  0.5152630000000  0.5042580000000  0.5097850000000 1.0
C      1  0.5352020000000  0.5005710000000  0.4824680000000 1.0
C      1  0.5115870000000  0.5582950000000  0.4655790000000 1.0
C      1  0.5671040000000  0.4437500000000  0.5095040000000 1.0
C      1  0.4936940000000  0.4618470000000  0.5935060000000 1.0
C      1  0.5673810000000  0.4892560000000  0.5561710000000 1.0
C      1  0.4666870000000  0.5286370000000  0.5941680000000 1.0
C      1  0.3930440000000  0.4792100000000  0.4793870000000 1.0
C      1  0.4377300000000  0.5385900000000  0.5819530000000 1.0
C      1  0.4609930000000  0.5381420000000  0.4443230000000 1.0
C      1  0.5590520000000  0.4597470000000  0.5615750000000 1.0
C      1  0.5186550000000  0.4153480000000  0.4699220000000 1.0
C      1  0.4863260000000  0.4792380000000  0.3958390000000 1.0
C      1  0.5091700000000  0.4814410000000  0.4712970000000 1.0
C      1  0.5433090000000  0.4964860000000  0.5273730000000 1.0
C      1  0.5312710000000  0.5595350000000  0.4423820000000 1.0
C      1  0.4832800000000  0.4841230000000  0.4293530000000 1.0
C      1  0.4260440000000  0.4669750000000  0.4381320000000 1.0
C      1  0.4291960000000  0.5395550000000  0.4445650000000 1.0
C      1  0.5035170000000  0.4235560000000  0.4406020000000 1.0
C      1  0.4947740000000  0.4804190000000  0.5227450000000 1.0
C      1  0.5849720000000  0.5502490000000  0.5090490000000 1.0
C      1  0.5449260000000  0.5200550000000  0.4143990000000 1.0
C      1  0.4654670000000  0.4219620000000  0.5329290000000 1.0
C      1  0.4949030000000  0.5491380000000  0.5748420000000 1.0
C      1  0.5461210000000  0.4259780000000  0.4559100000000 1.0
C      1  0.5668540000000  0.5628410000000  0.5628720000000 1.0
C      1  0.4767450000000  0.4911230000000  0.4763890000000 1.0
C      1  0.4137970000000  0.5351830000000  0.4749890000000 1.0
C      1  0.4863140000000  0.5930720000000  0.4965670000000 1.0
C      1  0.4786810000000  0.4730710000000  0.5489310000000 1.0
C      1  0.5417990000000  0.4147780000000  0.5451980000000 1.0
C      1  0.4812600000000  0.5119550000000  0.5694460000000 1.0
C      1  0.4917940000000  0.5345480000000  0.4584040000000 1.0
C      1  0.4600110000000  0.5084670000000  0.4310890000000 1.0
C      1  0.4985340000000  0.5251650000000  0.5307410000000 1.0
C      1  0.4637110000000  0.4992860000000  0.3985410000000 1.0
C      1  0.5522080000000  0.5127090000000  0.5758040000000 1.0
C      1  0.5332100000000  0.4408980000000  0.5090140000000 1.0
C      1  0.5213190000000  0.5541520000000  0.5616290000000 1.0
C      1  0.5423280000000  0.5015200000000  0.4495290000000 1.0
C      1  0.5027000000000  0.5047170000000  0.4473460000000 1.0
C      1  0.5135190000000  0.5600740000000  0.4181700000000 1.0
C      1  0.5575820000000  0.4764120000000  0.4885530000000 1.0
C      1  0.5812240000000  0.5195580000000  0.5493610000000 1.0
C      1  0.4636150000000  0.4344760000000  0.4256930000000 1.0
C      1  0.5102830000000  0.4741910000000  0.5614080000000 1.0
C      1  0.4649550000000  0.4712880000000  0.4978410000000 1.0
C      1  0.4552280000000  0.4890040000000  0.5208290000000 1.0
C      1  0.4312710000000  0.5072300000000  0.5119850000000 1.0
C      1  0.4306870000000  0.4821980000000  0.4674650000000 1.0
C      1  0.5236680000000  0.5253800000000  0.5892660000000 1.0
C      1  0.4679660000000  0.5451970000000  0.4923480000000 1.0
C      1  0.5147650000000  0.4800890000000  0.4053400000000 1.0
C      1  0.5906710000000  0.4853530000000  0.5316990000000 1.0
C      1  0.5224270000000  0.4500180000000  0.4505400000000 1.0
C      1  0.5331280000000  0.5249690000000  0.5504670000000 1.0
C      1  0.5353310000000  0.4595020000000  0.5750970000000 1.0
C      1  0.4893340000000  0.5731880000000  0.4262660000000 1.0
C      1  0.5177620000000  0.4118530000000  0.5038620000000 1.0
C      1  0.4564270000000  0.4250340000000  0.4575600000000 1.0
C      1  0.4963720000000  0.5375770000000  0.6057760000000 1.0
C      1  0.4446970000000  0.5049880000000  0.5839790000000 1.0
C      1  0.4288340000000  0.4912470000000  0.5621410000000 1.0
C      1  0.5870870000000  0.5033330000000  0.4899580000000 1.0
C      1  0.4898680000000  0.4570460000000  0.4575550000000 1.0
C      1  0.4451740000000  0.4720910000000  0.5453380000000 1.0
C      1  0.5631570000000  0.4743580000000  0.5195580000000 1.0
C      1  0.5088070000000  0.5036520000000  0.5549950000000 1.0
C      1  0.5571850000000  0.5523230000000  0.4921460000000 1.0
C      1  0.4038780000000  0.4900360000000  0.4499260000000 1.0
C      1  0.4444990000000  0.5261370000000  0.4786410000000 1.0
C      1  0.4043170000000  0.5237690000000  0.5021070000000 1.0
C      1  0.5327480000000  0.4592070000000  0.4816070000000 1.0
C      1  0.5576740000000  0.5272930000000  0.5270460000000 1.0
C      1  0.4200560000000  0.4542900000000  0.5201110000000 1.0
C      1  0.4417170000000  0.4430470000000  0.5725480000000 1.0
C      1  0.4990600000000  0.4430110000000  0.5655210000000 1.0
C      1  0.5624060000000  0.5600590000000  0.5317800000000 1.0
C      1  0.5622630000000  0.4389160000000  0.5423700000000 1.0
END
