TITL C-2848500-1637-158 -0.00137148178952616 125000 -527.525119126856 0 0 94 (C1) n - 1
REM
REM in /home/bkarasulu/work/CARBON/AIRSS/Generating-Clusters/AIREBO/with-SteepDescent/Only-C1/SD-CG-opt/Try1-1.4A-POS3A/HFTN-CG
REM
REM
REM
REM
REM
REM ./C.cell (11c1c37f851c82e70ff6c80c92926a4b)
REM
REM compiler GCC version 9.2.1 20190827 (Red Hat 9.2.1-1)
REM options -cpp -mtune=generic -march=x86-64 -g -O0 -fpre-include=/usr/include/finclude/math-vector-fortran.h
REM seed 259988299 1896180965 881221496 -958957878 -520724750 -1551190618 -1733650694 2077454029 -1575282520 735146709 1397477349 1984051146 549134406 -54010207 -1357644149 -1754116602 -1867326815 44311746 1399876824 -239440788 -1819447317 -1844625182 -689301302 -1303550594 -178930664 1012227040 1777828422 -815615486 304702881 1740017600 -2043085282 771960851 -31971138
REM
CELL 1.54180   50.00000   50.00000   50.00000   90.00000   90.00000   90.00000
LATT -1
SFAC C  
C      1  0.5217830000000  0.5504140000000  0.4986770000000 1.0
C      1  0.5614330000000  0.5758040000000  0.5102210000000 1.0
C      1  0.5365020000000  0.5295350000000  0.5990610000000 1.0
C      1  0.5566000000000  0.4521940000000  0.5382740000000 1.0
C      1  0.5231040000000  0.5494430000000  0.5544690000000 1.0
C      1  0.5300450000000  0.4599580000000  0.4315020000000 1.0
C      1  0.5444610000000  0.4515120000000  0.5632940000000 1.0
C      1  0.5515110000000  0.4630980000000  0.4505530000000 1.0
C      1  0.4218190000000  0.5362750000000  0.4883610000000 1.0
C      1  0.4644060000000  0.4091290000000  0.5041560000000 1.0
C      1  0.5390930000000  0.4185070000000  0.5020870000000 1.0
C      1  0.5775370000000  0.4833120000000  0.4992040000000 1.0
C      1  0.4720990000000  0.5350650000000  0.4239930000000 1.0
C      1  0.4915950000000  0.5764150000000  0.5021090000000 1.0
C      1  0.4568460000000  0.4359590000000  0.5122990000000 1.0
C      1  0.4574660000000  0.4173850000000  0.4282160000000 1.0
C      1  0.4730790000000  0.5227530000000  0.4730440000000 1.0
C      1  0.4721710000000  0.4874130000000  0.4246090000000 1.0
C      1  0.4853080000000  0.5111350000000  0.4164470000000 1.0
C      1  0.5600100000000  0.4909530000000  0.4546460000000 1.0
C      1  0.4510630000000  0.5105230000000  0.5806010000000 1.0
C      1  0.4453480000000  0.4384680000000  0.4480580000000 1.0
C      1  0.4786650000000  0.4397480000000  0.4426890000000 1.0
C      1  0.5423110000000  0.5302940000000  0.5138440000000 1.0
C      1  0.5084730000000  0.5698820000000  0.5315650000000 1.0
C      1  0.5914300000000  0.4919370000000  0.5276840000000 1.0
C      1  0.5156850000000  0.5849250000000  0.4796590000000 1.0
C      1  0.5247010000000  0.5178890000000  0.5453910000000 1.0
C      1  0.4796450000000  0.4733990000000  0.4852800000000 1.0
C      1  0.4932200000000  0.5545150000000  0.4599910000000 1.0
C      1  0.5132030000000  0.4886400000000  0.5511460000000 1.0
C      1  0.5450840000000  0.5462850000000  0.4555940000000 1.0
C      1  0.5580510000000  0.4361810000000  0.5151500000000 1.0
C      1  0.5671200000000  0.4533850000000  0.4942150000000 1.0
C      1  0.4617890000000  0.5556640000000  0.5385560000000 1.0
C      1  0.5090380000000  0.5314510000000  0.5211400000000 1.0
C      1  0.4870050000000  0.4335960000000  0.5934690000000 1.0
C      1  0.4589430000000  0.5147170000000  0.5095840000000 1.0
C      1  0.4806950000000  0.5054590000000  0.5740760000000 1.0
C      1  0.4308280000000  0.4776100000000  0.5256970000000 1.0
C      1  0.4244230000000  0.5402160000000  0.4613420000000 1.0
C      1  0.4866830000000  0.5609450000000  0.5559190000000 1.0
C      1  0.5292200000000  0.5236400000000  0.4358010000000 1.0
C      1  0.4367010000000  0.5436030000000  0.5508230000000 1.0
C      1  0.5463450000000  0.4521850000000  0.4757750000000 1.0
C      1  0.5322630000000  0.4980620000000  0.4490620000000 1.0
C      1  0.5137770000000  0.5081600000000  0.4151430000000 1.0
C      1  0.4596030000000  0.5746130000000  0.5134960000000 1.0
C      1  0.5255610000000  0.4681660000000  0.5717140000000 1.0
C      1  0.4324670000000  0.4586060000000  0.4611740000000 1.0
C      1  0.4497830000000  0.4997970000000  0.5346630000000 1.0
C      1  0.4727160000000  0.5553460000000  0.4832270000000 1.0
C      1  0.4793830000000  0.3819280000000  0.4990710000000 1.0
C      1  0.5608500000000  0.5301480000000  0.4812800000000 1.0
C      1  0.4452890000000  0.4532030000000  0.5308920000000 1.0
C      1  0.4914250000000  0.4722030000000  0.5171740000000 1.0
C      1  0.5303980000000  0.5814810000000  0.5091200000000 1.0
C      1  0.5086820000000  0.4465490000000  0.4518340000000 1.0
C      1  0.5706530000000  0.5031840000000  0.4772270000000 1.0
C      1  0.5006170000000  0.4838550000000  0.5886780000000 1.0
C      1  0.4985610000000  0.4524130000000  0.5432670000000 1.0
C      1  0.5160090000000  0.5381440000000  0.4712450000000 1.0
C      1  0.4368660000000  0.4858160000000  0.4647260000000 1.0
C      1  0.5597300000000  0.4805660000000  0.5276470000000 1.0
C      1  0.5238120000000  0.4808830000000  0.4131930000000 1.0
C      1  0.4884680000000  0.4548770000000  0.5756880000000 1.0
C      1  0.5142560000000  0.5147710000000  0.5926070000000 1.0
C      1  0.4525900000000  0.5294310000000  0.4467040000000 1.0
C      1  0.4902590000000  0.4096520000000  0.4824500000000 1.0
C      1  0.4878860000000  0.5571290000000  0.4312660000000 1.0
C      1  0.4797440000000  0.4875880000000  0.5451600000000 1.0
C      1  0.4070960000000  0.5162920000000  0.5023490000000 1.0
C      1  0.6114710000000  0.5002010000000  0.5407320000000 1.0
C      1  0.5155950000000  0.4867860000000  0.4992630000000 1.0
C      1  0.5329100000000  0.4929590000000  0.5246080000000 1.0
C      1  0.5106020000000  0.5768150000000  0.4317820000000 1.0
C      1  0.5173200000000  0.4250530000000  0.4767980000000 1.0
C      1  0.4774630000000  0.4710480000000  0.4513940000000 1.0
C      1  0.5271080000000  0.5751620000000  0.4555050000000 1.0
C      1  0.4847170000000  0.4415190000000  0.4929380000000 1.0
C      1  0.5037370000000  0.5083720000000  0.4764390000000 1.0
C      1  0.4798440000000  0.5338040000000  0.5228930000000 1.0
C      1  0.5418210000000  0.5504820000000  0.5811220000000 1.0
C      1  0.4386190000000  0.5172740000000  0.5570790000000 1.0
C      1  0.4316820000000  0.5045900000000  0.4456210000000 1.0
C      1  0.5690580000000  0.5528630000000  0.4390800000000 1.0
C      1  0.5154820000000  0.4564630000000  0.4895290000000 1.0
C      1  0.4473380000000  0.5446510000000  0.5023960000000 1.0
C      1  0.4637530000000  0.4587190000000  0.5533490000000 1.0
C      1  0.4086240000000  0.4904880000000  0.5131020000000 1.0
C      1  0.4977060000000  0.5333210000000  0.5704680000000 1.0
C      1  0.4586860000000  0.4955830000000  0.4838640000000 1.0
C      1  0.5082290000000  0.4801120000000  0.4582050000000 1.0
C      1  0.5669550000000  0.5494580000000  0.5055050000000 1.0
END
