TITL C-2847957-7266-269 0.00240854652896432 125000 -998.18652380366 0 0 181 (C1) n - 1
REM
REM in /home/bkarasulu/work/CARBON/AIRSS/Generating-Clusters/AIREBO/with-SteepDescent/Only-C1/SD-CG-opt/Try1-1.4A-POS3A/HFTN-CG
REM
REM
REM
REM
REM
REM ./C.cell (11c1c37f851c82e70ff6c80c92926a4b)
REM
REM compiler GCC version 9.2.1 20190827 (Red Hat 9.2.1-1)
REM options -cpp -mtune=generic -march=x86-64 -g -O0 -fpre-include=/usr/include/finclude/math-vector-fortran.h
REM seed -156224147 -475465795 -1688843182 -655744344 -1014428355 1520560103 1540965392 1095678398 703310771 -1922220078 1212285277 1713941978 1967677785 -1089634162 1904956842 1725857752 1043839435 216792900 -147108207 -1605531824 548383951 136375000 1086069397 924282014 -903077553 933867462 -724800299 1054017009 -2139351697 -546205569 407151201 469903818 -1943563869
REM
CELL 1.54180   50.00000   50.00000   50.00000   90.00000   90.00000   90.00000
LATT -1
SFAC C  
C      1  0.5225030000000  0.5022380000000  0.6147390000000 1.0
C      1  0.4510110000000  0.4772170000000  0.5406940000000 1.0
C      1  0.5251850000000  0.4697140000000  0.6161250000000 1.0
C      1  0.4734530000000  0.5753030000000  0.5130390000000 1.0
C      1  0.5313380000000  0.4761230000000  0.4569280000000 1.0
C      1  0.5493980000000  0.4863370000000  0.5687510000000 1.0
C      1  0.4543730000000  0.5859150000000  0.4451640000000 1.0
C      1  0.4791160000000  0.5474160000000  0.5880060000000 1.0
C      1  0.5363590000000  0.5157140000000  0.5657720000000 1.0
C      1  0.4268680000000  0.4444060000000  0.4993180000000 1.0
C      1  0.5928720000000  0.5204350000000  0.4563920000000 1.0
C      1  0.4272190000000  0.4326880000000  0.4596650000000 1.0
C      1  0.4754580000000  0.4373260000000  0.5564300000000 1.0
C      1  0.4828490000000  0.4050960000000  0.5483540000000 1.0
C      1  0.5145630000000  0.4706480000000  0.5575510000000 1.0
C      1  0.4029980000000  0.5666650000000  0.5202980000000 1.0
C      1  0.5707600000000  0.5890080000000  0.5116500000000 1.0
C      1  0.4789820000000  0.4657190000000  0.4931540000000 1.0
C      1  0.5353410000000  0.4866830000000  0.5109810000000 1.0
C      1  0.4757710000000  0.5806010000000  0.4232280000000 1.0
C      1  0.4641630000000  0.5583600000000  0.4017290000000 1.0
C      1  0.4640910000000  0.4663650000000  0.5699980000000 1.0
C      1  0.5104840000000  0.5356520000000  0.5290500000000 1.0
C      1  0.5762650000000  0.5328930000000  0.5741150000000 1.0
C      1  0.5618200000000  0.4442540000000  0.5404720000000 1.0
C      1  0.4190380000000  0.4866920000000  0.5361390000000 1.0
C      1  0.4058620000000  0.5120700000000  0.4471940000000 1.0
C      1  0.5566790000000  0.4411580000000  0.5890980000000 1.0
C      1  0.4383700000000  0.5190690000000  0.5701330000000 1.0
C      1  0.5497330000000  0.4798130000000  0.5960120000000 1.0
C      1  0.6037360000000  0.5165920000000  0.5255920000000 1.0
C      1  0.5570510000000  0.5759230000000  0.5577840000000 1.0
C      1  0.4943290000000  0.5786880000000  0.4793090000000 1.0
C      1  0.4434630000000  0.5890880000000  0.4907260000000 1.0
C      1  0.4806030000000  0.4796880000000  0.6034180000000 1.0
C      1  0.5850030000000  0.4892410000000  0.4453620000000 1.0
C      1  0.5443590000000  0.5109950000000  0.5330600000000 1.0
C      1  0.5184110000000  0.4975840000000  0.4339170000000 1.0
C      1  0.4460580000000  0.4279630000000  0.5707210000000 1.0
C      1  0.5188720000000  0.5480180000000  0.4865180000000 1.0
C      1  0.5712830000000  0.4529340000000  0.5691430000000 1.0
C      1  0.4968200000000  0.3984310000000  0.5211350000000 1.0
C      1  0.5547860000000  0.4898080000000  0.4194250000000 1.0
C      1  0.5692640000000  0.5220160000000  0.5023240000000 1.0
C      1  0.5642120000000  0.5651930000000  0.4351310000000 1.0
C      1  0.5537400000000  0.5359140000000  0.3942590000000 1.0
C      1  0.5040520000000  0.5176840000000  0.5575740000000 1.0
C      1  0.5552380000000  0.4532450000000  0.5023330000000 1.0
C      1  0.4529070000000  0.5920640000000  0.5461600000000 1.0
C      1  0.5063110000000  0.5197360000000  0.4117040000000 1.0
C      1  0.3834910000000  0.4957920000000  0.4952880000000 1.0
C      1  0.5845140000000  0.5140290000000  0.5485490000000 1.0
C      1  0.4736820000000  0.4303270000000  0.4128620000000 1.0
C      1  0.4714330000000  0.4114330000000  0.4339740000000 1.0
C      1  0.4083380000000  0.4260300000000  0.4822970000000 1.0
C      1  0.4200340000000  0.4939730000000  0.5673630000000 1.0
C      1  0.4174570000000  0.5175190000000  0.5251250000000 1.0
C      1  0.4547720000000  0.4945130000000  0.5870010000000 1.0
C      1  0.4478520000000  0.5337180000000  0.4063900000000 1.0
C      1  0.5592400000000  0.5602730000000  0.4986790000000 1.0
C      1  0.5287760000000  0.5230700000000  0.3895910000000 1.0
C      1  0.5098180000000  0.5659140000000  0.5422980000000 1.0
C      1  0.5657120000000  0.4265030000000  0.4634830000000 1.0
C      1  0.5534330000000  0.4027040000000  0.5126190000000 1.0
C      1  0.4097970000000  0.4637990000000  0.4689280000000 1.0
C      1  0.4423590000000  0.4650920000000  0.4771960000000 1.0
C      1  0.5253300000000  0.5454960000000  0.4554680000000 1.0
C      1  0.5969300000000  0.5397500000000  0.5074180000000 1.0
C      1  0.5048130000000  0.4134620000000  0.5711760000000 1.0
C      1  0.4507670000000  0.4090240000000  0.5440350000000 1.0
C      1  0.5042750000000  0.4303460000000  0.5229610000000 1.0
C      1  0.5579380000000  0.5619480000000  0.4046260000000 1.0
C      1  0.4565270000000  0.4216130000000  0.4605040000000 1.0
C      1  0.4772550000000  0.4450890000000  0.5175180000000 1.0
C      1  0.4859380000000  0.3940230000000  0.4769390000000 1.0
C      1  0.4513100000000  0.4266980000000  0.5149870000000 1.0
C      1  0.4351580000000  0.5352450000000  0.4333290000000 1.0
C      1  0.5391370000000  0.5896290000000  0.5164950000000 1.0
C      1  0.4519690000000  0.4496270000000  0.4135480000000 1.0
C      1  0.5918430000000  0.5470150000000  0.4412340000000 1.0
C      1  0.5939520000000  0.4609200000000  0.4789660000000 1.0
C      1  0.4524780000000  0.4818630000000  0.4153970000000 1.0
C      1  0.5125760000000  0.4708010000000  0.4917140000000 1.0
C      1  0.4550300000000  0.5087550000000  0.3971880000000 1.0
C      1  0.5062510000000  0.4800100000000  0.4073940000000 1.0
C      1  0.4096580000000  0.5466790000000  0.5382670000000 1.0
C      1  0.5471910000000  0.4161830000000  0.5390630000000 1.0
C      1  0.5053450000000  0.3887930000000  0.4964870000000 1.0
C      1  0.4797760000000  0.6025630000000  0.5412270000000 1.0
C      1  0.4610730000000  0.5460390000000  0.4656880000000 1.0
C      1  0.5471820000000  0.4951520000000  0.4802340000000 1.0
C      1  0.4875190000000  0.6021790000000  0.5109480000000 1.0
C      1  0.5709490000000  0.5134910000000  0.4015690000000 1.0
C      1  0.5071050000000  0.5207430000000  0.4544260000000 1.0
C      1  0.5217020000000  0.4153890000000  0.4441260000000 1.0
C      1  0.4635480000000  0.5908560000000  0.4713650000000 1.0
C      1  0.5078250000000  0.5586440000000  0.5809210000000 1.0
C      1  0.5207650000000  0.4174600000000  0.5465600000000 1.0
C      1  0.5160140000000  0.5766960000000  0.4531830000000 1.0
C      1  0.4287110000000  0.5513070000000  0.5660530000000 1.0
C      1  0.4849380000000  0.5464090000000  0.4879380000000 1.0
C      1  0.4862270000000  0.5759390000000  0.5611260000000 1.0
C      1  0.4611340000000  0.4071420000000  0.4889150000000 1.0
C      1  0.5562060000000  0.5062120000000  0.4493490000000 1.0
C      1  0.4719100000000  0.5154010000000  0.4930940000000 1.0
C      1  0.5287210000000  0.6114250000000  0.4682220000000 1.0
C      1  0.6023420000000  0.4923600000000  0.4733350000000 1.0
C      1  0.4053230000000  0.5456340000000  0.4458990000000 1.0
C      1  0.5043010000000  0.5888050000000  0.4297850000000 1.0
C      1  0.5460440000000  0.4069390000000  0.4620000000000 1.0
C      1  0.5689330000000  0.4622480000000  0.4442460000000 1.0
C      1  0.5126250000000  0.4237630000000  0.4758060000000 1.0
C      1  0.4989930000000  0.4509360000000  0.4176220000000 1.0
C      1  0.5371940000000  0.5497050000000  0.5664210000000 1.0
C      1  0.5323670000000  0.4934590000000  0.3967950000000 1.0
C      1  0.5442980000000  0.5179790000000  0.6166270000000 1.0
C      1  0.4099180000000  0.5289090000000  0.4752850000000 1.0
C      1  0.5334390000000  0.4009090000000  0.4902460000000 1.0
C      1  0.4776860000000  0.5151030000000  0.5385840000000 1.0
C      1  0.4831580000000  0.4381770000000  0.4736350000000 1.0
C      1  0.4383320000000  0.4485730000000  0.5374080000000 1.0
C      1  0.4765690000000  0.5200600000000  0.5924030000000 1.0
C      1  0.3935560000000  0.4706280000000  0.4926060000000 1.0
C      1  0.4933130000000  0.4003630000000  0.4497590000000 1.0
C      1  0.5234310000000  0.5779650000000  0.4969060000000 1.0
C      1  0.5239330000000  0.4423690000000  0.5004640000000 1.0
C      1  0.4252510000000  0.4467240000000  0.5749940000000 1.0
C      1  0.4118540000000  0.5779860000000  0.4950550000000 1.0
C      1  0.4827680000000  0.5001730000000  0.3969020000000 1.0
C      1  0.4300100000000  0.5543180000000  0.4767820000000 1.0
C      1  0.5170190000000  0.5087620000000  0.4804600000000 1.0
C      1  0.4008280000000  0.5162530000000  0.4993380000000 1.0
C      1  0.4050140000000  0.4800340000000  0.4455320000000 1.0
C      1  0.4461140000000  0.5623830000000  0.5389940000000 1.0
C      1  0.4310440000000  0.5672360000000  0.4453390000000 1.0
C      1  0.4327650000000  0.4953570000000  0.4352400000000 1.0
C      1  0.5784140000000  0.5853740000000  0.5429030000000 1.0
C      1  0.5560050000000  0.5236690000000  0.5923760000000 1.0
C      1  0.4785500000000  0.5443560000000  0.5212730000000 1.0
C      1  0.5751440000000  0.5819100000000  0.4784300000000 1.0
C      1  0.4579090000000  0.5649170000000  0.5767610000000 1.0
C      1  0.5766330000000  0.4935500000000  0.4938430000000 1.0
C      1  0.5022180000000  0.5123430000000  0.5057120000000 1.0
C      1  0.5327860000000  0.5809330000000  0.5418650000000 1.0
C      1  0.5048070000000  0.4322890000000  0.5915340000000 1.0
C      1  0.6078310000000  0.4898080000000  0.5182960000000 1.0
C      1  0.4802410000000  0.5177370000000  0.4334520000000 1.0
C      1  0.4084580000000  0.4477740000000  0.5494730000000 1.0
C      1  0.5540330000000  0.4567170000000  0.4715890000000 1.0
C      1  0.5744260000000  0.4287100000000  0.5129520000000 1.0
C      1  0.5408590000000  0.4700620000000  0.5401340000000 1.0
C      1  0.4830590000000  0.4875560000000  0.5193720000000 1.0
C      1  0.5263710000000  0.4378130000000  0.4236800000000 1.0
C      1  0.5539720000000  0.5377910000000  0.4500190000000 1.0
C      1  0.5049840000000  0.6106170000000  0.4841520000000 1.0
C      1  0.4466720000000  0.5283820000000  0.5393200000000 1.0
C      1  0.5728440000000  0.5399410000000  0.4754780000000 1.0
C      1  0.5784600000000  0.4726510000000  0.5178590000000 1.0
C      1  0.5298500000000  0.4430270000000  0.5994070000000 1.0
C      1  0.4058910000000  0.4617600000000  0.5189840000000 1.0
C      1  0.4512370000000  0.4982440000000  0.5139500000000 1.0
C      1  0.4914340000000  0.4633740000000  0.5415110000000 1.0
C      1  0.4530320000000  0.5150980000000  0.4541090000000 1.0
C      1  0.5774380000000  0.4811130000000  0.5508200000000 1.0
C      1  0.5100400000000  0.4772410000000  0.5865620000000 1.0
C      1  0.4789830000000  0.4865240000000  0.4354740000000 1.0
C      1  0.4821500000000  0.4495960000000  0.5934490000000 1.0
C      1  0.4284410000000  0.4726800000000  0.5869340000000 1.0
C      1  0.5486930000000  0.5858120000000  0.4574140000000 1.0
C      1  0.5392600000000  0.5359240000000  0.5109020000000 1.0
C      1  0.5988010000000  0.5635370000000  0.4945790000000 1.0
C      1  0.4996710000000  0.4751450000000  0.4605170000000 1.0
C      1  0.4446430000000  0.5592980000000  0.5070750000000 1.0
C      1  0.5041660000000  0.5087220000000  0.5894200000000 1.0
C      1  0.4442960000000  0.4561920000000  0.4447540000000 1.0
C      1  0.5608220000000  0.5384760000000  0.5444720000000 1.0
C      1  0.5858700000000  0.4357620000000  0.4835950000000 1.0
C      1  0.4650770000000  0.4902190000000  0.4740840000000 1.0
C      1  0.4782450000000  0.4542450000000  0.4443790000000 1.0
C      1  0.4722490000000  0.5496540000000  0.4337800000000 1.0
C      1  0.5495100000000  0.4562640000000  0.4218130000000 1.0
END
