TITL C-2847957-7266-326 0.000316033453833945 125000 -568.65436337133 0 0 105 (C1) n - 1
REM
REM in /home/bkarasulu/work/CARBON/AIRSS/Generating-Clusters/AIREBO/with-SteepDescent/Only-C1/SD-CG-opt/Try1-1.4A-POS3A/HFTN-CG
REM
REM
REM
REM
REM
REM ./C.cell (11c1c37f851c82e70ff6c80c92926a4b)
REM
REM compiler GCC version 9.2.1 20190827 (Red Hat 9.2.1-1)
REM options -cpp -mtune=generic -march=x86-64 -g -O0 -fpre-include=/usr/include/finclude/math-vector-fortran.h
REM seed 1732140722 -680859549 -904992033 -467317476 1201642128 -1835567248 922920339 1043665700 915247084 188306985 -728868849 -856092614 1481796389 1930456559 -46649392 -524683616 -1938156269 -1745359695 1236984422 -419197726 -168838923 -2066496164 367890013 1483622808 -110543016 322639203 -1165746044 1416441279 1407182313 1371886500 1976047319 1339353262 1929177809
REM
CELL 1.54180   50.00000   50.00000   50.00000   90.00000   90.00000   90.00000
LATT -1
SFAC C  
C      1  0.5189320000000  0.5652700000000  0.5526270000000 1.0
C      1  0.4833040000000  0.4590910000000  0.5812680000000 1.0
C      1  0.5077180000000  0.4514540000000  0.5728280000000 1.0
C      1  0.5309930000000  0.5724800000000  0.4627560000000 1.0
C      1  0.5416760000000  0.4207340000000  0.5275260000000 1.0
C      1  0.4561050000000  0.5630510000000  0.4958710000000 1.0
C      1  0.5078630000000  0.4281620000000  0.5241370000000 1.0
C      1  0.5146080000000  0.4919670000000  0.4609730000000 1.0
C      1  0.4458940000000  0.5065600000000  0.5612990000000 1.0
C      1  0.4098540000000  0.4948920000000  0.5150010000000 1.0
C      1  0.5652820000000  0.4597390000000  0.4777360000000 1.0
C      1  0.4609500000000  0.4377780000000  0.5083160000000 1.0
C      1  0.5568590000000  0.5291350000000  0.4688230000000 1.0
C      1  0.3847810000000  0.4996880000000  0.5151220000000 1.0
C      1  0.4447260000000  0.4968640000000  0.5911810000000 1.0
C      1  0.4688370000000  0.5203210000000  0.3869010000000 1.0
C      1  0.5421220000000  0.5012820000000  0.4447750000000 1.0
C      1  0.5585860000000  0.5782640000000  0.5278330000000 1.0
C      1  0.4435110000000  0.5327420000000  0.4964840000000 1.0
C      1  0.5801530000000  0.4704450000000  0.5013830000000 1.0
C      1  0.5613230000000  0.4989680000000  0.4717080000000 1.0
C      1  0.4958990000000  0.4962840000000  0.4186620000000 1.0
C      1  0.4285840000000  0.4134970000000  0.4697000000000 1.0
C      1  0.5795720000000  0.5356990000000  0.4281490000000 1.0
C      1  0.4664630000000  0.5301240000000  0.5581630000000 1.0
C      1  0.5273400000000  0.5406050000000  0.5620780000000 1.0
C      1  0.5668720000000  0.4952040000000  0.5725340000000 1.0
C      1  0.5619520000000  0.5167860000000  0.4219120000000 1.0
C      1  0.4286850000000  0.5318090000000  0.5468630000000 1.0
C      1  0.5036550000000  0.4059840000000  0.4996610000000 1.0
C      1  0.5235090000000  0.4449780000000  0.4569090000000 1.0
C      1  0.5247680000000  0.5413720000000  0.5160570000000 1.0
C      1  0.4504220000000  0.5152020000000  0.4708420000000 1.0
C      1  0.4509610000000  0.5557630000000  0.5439520000000 1.0
C      1  0.5480280000000  0.5560260000000  0.4965400000000 1.0
C      1  0.5216720000000  0.5535010000000  0.4361100000000 1.0
C      1  0.4489670000000  0.5202280000000  0.5236290000000 1.0
C      1  0.5263900000000  0.4718090000000  0.5656550000000 1.0
C      1  0.4340070000000  0.4909240000000  0.4377830000000 1.0
C      1  0.4576850000000  0.4824750000000  0.5438720000000 1.0
C      1  0.5586370000000  0.4647080000000  0.4269480000000 1.0
C      1  0.5323210000000  0.5193350000000  0.5376630000000 1.0
C      1  0.4886360000000  0.4879990000000  0.5308220000000 1.0
C      1  0.5063030000000  0.5865360000000  0.5068060000000 1.0
C      1  0.5120660000000  0.4672540000000  0.4402170000000 1.0
C      1  0.4361610000000  0.4565470000000  0.5033050000000 1.0
C      1  0.4648420000000  0.5238500000000  0.4131740000000 1.0
C      1  0.5314610000000  0.5975200000000  0.4444320000000 1.0
C      1  0.4169470000000  0.4686350000000  0.4781590000000 1.0
C      1  0.5131090000000  0.4942950000000  0.5503370000000 1.0
C      1  0.4544210000000  0.5436800000000  0.4325130000000 1.0
C      1  0.4931040000000  0.5088410000000  0.5043130000000 1.0
C      1  0.5640700000000  0.5682370000000  0.4693880000000 1.0
C      1  0.4976120000000  0.5322840000000  0.4797800000000 1.0
C      1  0.5339520000000  0.5036090000000  0.4113470000000 1.0
C      1  0.5406060000000  0.5829790000000  0.5494160000000 1.0
C      1  0.4315970000000  0.4695340000000  0.4547030000000 1.0
C      1  0.4421290000000  0.4882700000000  0.5141980000000 1.0
C      1  0.4605920000000  0.4143700000000  0.5490230000000 1.0
C      1  0.4865350000000  0.5263490000000  0.5801820000000 1.0
C      1  0.5125950000000  0.4562790000000  0.5053720000000 1.0
C      1  0.4337830000000  0.5328120000000  0.4488240000000 1.0
C      1  0.4178820000000  0.4265820000000  0.5703100000000 1.0
C      1  0.5526920000000  0.5947900000000  0.5048350000000 1.0
C      1  0.4433830000000  0.4318840000000  0.5622230000000 1.0
C      1  0.5550180000000  0.4853500000000  0.5413490000000 1.0
C      1  0.4938200000000  0.4175430000000  0.4769670000000 1.0
C      1  0.5104320000000  0.5190570000000  0.5708980000000 1.0
C      1  0.5359500000000  0.4535800000000  0.4820570000000 1.0
C      1  0.5627280000000  0.5134380000000  0.5238000000000 1.0
C      1  0.5661370000000  0.5062610000000  0.5953330000000 1.0
C      1  0.5568240000000  0.4580850000000  0.5615910000000 1.0
C      1  0.5263990000000  0.5414390000000  0.4763910000000 1.0
C      1  0.5694080000000  0.4728290000000  0.4515220000000 1.0
C      1  0.4780010000000  0.4428080000000  0.4825710000000 1.0
C      1  0.4656960000000  0.5685500000000  0.5238620000000 1.0
C      1  0.5115620000000  0.4208450000000  0.4559950000000 1.0
C      1  0.5473130000000  0.4297610000000  0.5552430000000 1.0
C      1  0.5889860000000  0.4898750000000  0.5209890000000 1.0
C      1  0.5667810000000  0.5472380000000  0.5221400000000 1.0
C      1  0.4572130000000  0.4724970000000  0.5938440000000 1.0
C      1  0.4939470000000  0.5145050000000  0.4541040000000 1.0
C      1  0.5757450000000  0.5463980000000  0.4537060000000 1.0
C      1  0.4555420000000  0.4585680000000  0.5640140000000 1.0
C      1  0.4645080000000  0.5052810000000  0.4415240000000 1.0
C      1  0.5279200000000  0.5900680000000  0.4910980000000 1.0
C      1  0.4712520000000  0.5606010000000  0.4480060000000 1.0
C      1  0.5504210000000  0.4648680000000  0.5143480000000 1.0
C      1  0.4788650000000  0.4746190000000  0.4382930000000 1.0
C      1  0.5130590000000  0.5237700000000  0.4290520000000 1.0
C      1  0.5162580000000  0.4293090000000  0.5570720000000 1.0
C      1  0.4645190000000  0.4960300000000  0.4910830000000 1.0
C      1  0.4752820000000  0.4252710000000  0.5282220000000 1.0
C      1  0.4395130000000  0.4362590000000  0.4752980000000 1.0
C      1  0.5859810000000  0.4760750000000  0.5519180000000 1.0
C      1  0.5175780000000  0.4877420000000  0.4933810000000 1.0
C      1  0.4812520000000  0.5308400000000  0.5273900000000 1.0
C      1  0.5483370000000  0.4951430000000  0.4990080000000 1.0
C      1  0.4242220000000  0.5573280000000  0.4865120000000 1.0
C      1  0.4767960000000  0.5547380000000  0.4741910000000 1.0
C      1  0.4155440000000  0.5508400000000  0.4613490000000 1.0
C      1  0.4829880000000  0.4703050000000  0.5019430000000 1.0
C      1  0.5334060000000  0.4725870000000  0.4185760000000 1.0
C      1  0.4983970000000  0.5601860000000  0.5259640000000 1.0
C      1  0.4614570000000  0.4551780000000  0.4574890000000 1.0
END
