TITL C-2848506-1665-373 -0.00449117857739123 125000 -265.91066205782 0 0 51 (C1) n - 1
REM
REM in /home/bkarasulu/work/CARBON/AIRSS/Generating-Clusters/AIREBO/with-SteepDescent/Only-C1/SD-CG-opt/Try1-1.4A-POS3A/HFTN-CG
REM
REM
REM
REM
REM
REM ./C.cell (11c1c37f851c82e70ff6c80c92926a4b)
REM
REM compiler GCC version 9.2.1 20190827 (Red Hat 9.2.1-1)
REM options -cpp -mtune=generic -march=x86-64 -g -O0 -fpre-include=/usr/include/finclude/math-vector-fortran.h
REM seed -1228985659 659738801 1765190649 195629332 1886612186 691360303 1218793063 -174533570 -521969433 950255394 1324532210 1019677885 1713037654 -1803202000 1230916016 281148787 -1969531478 72183240 1192248118 -302573731 347945293 -64790917 2018810831 -1384925585 2081863402 -1252493781 1055166001 -103908235 927633681 1840416012 -532295975 1739821332 -904863555
REM
CELL 1.54180   50.00000   50.00000   50.00000   90.00000   90.00000   90.00000
LATT -1
SFAC C  
C      1  0.4870130000000  0.4663730000000  0.4436050000000 1.0
C      1  0.4523750000000  0.5487660000000  0.5058020000000 1.0
C      1  0.4520860000000  0.4811940000000  0.4560830000000 1.0
C      1  0.5095960000000  0.5769390000000  0.4942260000000 1.0
C      1  0.5196650000000  0.4715890000000  0.5533660000000 1.0
C      1  0.5428410000000  0.4634270000000  0.4572520000000 1.0
C      1  0.5062050000000  0.4506730000000  0.4909840000000 1.0
C      1  0.4749850000000  0.5029480000000  0.5207440000000 1.0
C      1  0.5545860000000  0.5459760000000  0.4766140000000 1.0
C      1  0.4831620000000  0.4880800000000  0.4249820000000 1.0
C      1  0.5194660000000  0.4477990000000  0.5361990000000 1.0
C      1  0.5067920000000  0.5336220000000  0.5219480000000 1.0
C      1  0.4315700000000  0.4637660000000  0.4763700000000 1.0
C      1  0.5287030000000  0.5187950000000  0.4423570000000 1.0
C      1  0.5466000000000  0.5440730000000  0.4504650000000 1.0
C      1  0.4828670000000  0.5229710000000  0.5436590000000 1.0
C      1  0.4819180000000  0.5673400000000  0.5803120000000 1.0
C      1  0.4746900000000  0.5463810000000  0.5655880000000 1.0
C      1  0.4845510000000  0.5462250000000  0.4995110000000 1.0
C      1  0.5729090000000  0.4835140000000  0.4964720000000 1.0
C      1  0.4751230000000  0.4712150000000  0.5252280000000 1.0
C      1  0.5233760000000  0.5615700000000  0.5119430000000 1.0
C      1  0.5000180000000  0.4748750000000  0.4738470000000 1.0
C      1  0.5437070000000  0.4938350000000  0.4463580000000 1.0
C      1  0.4960810000000  0.5176060000000  0.4328470000000 1.0
C      1  0.5657960000000  0.4850150000000  0.4690380000000 1.0
C      1  0.5293200000000  0.5240700000000  0.5455680000000 1.0
C      1  0.4638820000000  0.5097090000000  0.4407140000000 1.0
C      1  0.4728470000000  0.5766610000000  0.4595670000000 1.0
C      1  0.4380080000000  0.5009980000000  0.5622640000000 1.0
C      1  0.4423740000000  0.4638190000000  0.5306140000000 1.0
C      1  0.4763480000000  0.4710110000000  0.5789690000000 1.0
C      1  0.5447700000000  0.4416510000000  0.5257310000000 1.0
C      1  0.4945410000000  0.4363900000000  0.4557450000000 1.0
C      1  0.4294800000000  0.4796550000000  0.5476210000000 1.0
C      1  0.5238240000000  0.4441700000000  0.4647420000000 1.0
C      1  0.5365590000000  0.4904490000000  0.5112000000000 1.0
C      1  0.4561860000000  0.4595970000000  0.4994520000000 1.0
C      1  0.5547550000000  0.4627520000000  0.5109670000000 1.0
C      1  0.4668380000000  0.5051920000000  0.4728350000000 1.0
C      1  0.4924950000000  0.5605950000000  0.4717120000000 1.0
C      1  0.5407160000000  0.4933110000000  0.5431790000000 1.0
C      1  0.4673340000000  0.4531330000000  0.4679810000000 1.0
C      1  0.4662000000000  0.5189940000000  0.4972340000000 1.0
C      1  0.4549970000000  0.5222930000000  0.5631420000000 1.0
C      1  0.5256750000000  0.5130770000000  0.5014180000000 1.0
C      1  0.5060250000000  0.5420130000000  0.4529280000000 1.0
C      1  0.4904750000000  0.4724000000000  0.5556020000000 1.0
C      1  0.4987550000000  0.4495410000000  0.5170540000000 1.0
C      1  0.5391360000000  0.5399020000000  0.4992920000000 1.0
C      1  0.5717780000000  0.4940520000000  0.5286680000000 1.0
END
