TITL C-2848495-5024-410 -0.000184756140890186 125000 -1010.23110506291 0 0 189 (C1) n - 1
REM
REM in /home/bkarasulu/work/CARBON/AIRSS/Generating-Clusters/AIREBO/with-SteepDescent/Only-C1/SD-CG-opt/Try1-1.4A-POS3A/HFTN-CG
REM
REM
REM
REM
REM
REM ./C.cell (11c1c37f851c82e70ff6c80c92926a4b)
REM
REM compiler GCC version 9.2.1 20190827 (Red Hat 9.2.1-1)
REM options -cpp -mtune=generic -march=x86-64 -g -O0 -fpre-include=/usr/include/finclude/math-vector-fortran.h
REM seed 1568529524 -550801696 -1151261958 1597531549 812590356 1137392243 1619934002 2062286591 -1078466049 -2114362305 529290909 1858688845 -300768240 836944506 1935843771 1076251544 -2106341685 643699109 -393014766 343256475 1137139204 1081738717 1896689632 -2022463844 -291661157 -593005909 -1431102302 -51869810 -1372789348 -466468214 254478939 -640352425 1972969049
REM
CELL 1.54180   50.00000   50.00000   50.00000   90.00000   90.00000   90.00000
LATT -1
SFAC C  
C      1  0.4079220000000  0.5766390000000  0.5082180000000 1.0
C      1  0.3924280000000  0.5514930000000  0.5245000000000 1.0
C      1  0.5592920000000  0.4714240000000  0.5704470000000 1.0
C      1  0.5323260000000  0.4050800000000  0.5159290000000 1.0
C      1  0.5844790000000  0.5275100000000  0.5746600000000 1.0
C      1  0.5228100000000  0.6102120000000  0.4838500000000 1.0
C      1  0.4790970000000  0.3916950000000  0.5700810000000 1.0
C      1  0.4245800000000  0.5075420000000  0.4840140000000 1.0
C      1  0.4976990000000  0.5309380000000  0.4563010000000 1.0
C      1  0.5280540000000  0.6101710000000  0.5438100000000 1.0
C      1  0.4649400000000  0.5723260000000  0.5718470000000 1.0
C      1  0.5353270000000  0.5156850000000  0.5001260000000 1.0
C      1  0.4729120000000  0.4775300000000  0.3960840000000 1.0
C      1  0.4160480000000  0.4839440000000  0.4607560000000 1.0
C      1  0.4960530000000  0.4000010000000  0.5448280000000 1.0
C      1  0.4004200000000  0.5241760000000  0.4824640000000 1.0
C      1  0.4309880000000  0.4565160000000  0.4742000000000 1.0
C      1  0.4485410000000  0.5795750000000  0.5419120000000 1.0
C      1  0.3983660000000  0.4525790000000  0.4778570000000 1.0
C      1  0.4615920000000  0.4966600000000  0.5260800000000 1.0
C      1  0.3843170000000  0.4736600000000  0.4627950000000 1.0
C      1  0.5472390000000  0.4542900000000  0.6044090000000 1.0
C      1  0.4776950000000  0.4520880000000  0.4922550000000 1.0
C      1  0.4963430000000  0.4783690000000  0.4546180000000 1.0
C      1  0.4543260000000  0.4506070000000  0.5759330000000 1.0
C      1  0.5495590000000  0.5783210000000  0.4471270000000 1.0
C      1  0.5615570000000  0.4313350000000  0.5118090000000 1.0
C      1  0.4659760000000  0.4473500000000  0.4445210000000 1.0
C      1  0.4386730000000  0.5790490000000  0.4722390000000 1.0
C      1  0.4635630000000  0.4806530000000  0.4457230000000 1.0
C      1  0.5665860000000  0.4910220000000  0.5038500000000 1.0
C      1  0.5749770000000  0.5159970000000  0.5966820000000 1.0
C      1  0.5966470000000  0.4686060000000  0.5177500000000 1.0
C      1  0.5897740000000  0.5076730000000  0.5505050000000 1.0
C      1  0.5486030000000  0.4405750000000  0.5745790000000 1.0
C      1  0.5437980000000  0.5209450000000  0.4676130000000 1.0
C      1  0.5218390000000  0.5569920000000  0.4049290000000 1.0
C      1  0.5966650000000  0.5137190000000  0.4908820000000 1.0
C      1  0.5795450000000  0.5745610000000  0.5492030000000 1.0
C      1  0.6057450000000  0.4798820000000  0.5546850000000 1.0
C      1  0.4643670000000  0.5190700000000  0.5881080000000 1.0
C      1  0.5326270000000  0.5086860000000  0.5393760000000 1.0
C      1  0.4170420000000  0.5555480000000  0.4641680000000 1.0
C      1  0.4388770000000  0.4082880000000  0.5021320000000 1.0
C      1  0.4377410000000  0.4801620000000  0.5343280000000 1.0
C      1  0.4499280000000  0.5238820000000  0.4076180000000 1.0
C      1  0.4030650000000  0.5221970000000  0.5609830000000 1.0
C      1  0.4160850000000  0.5440270000000  0.5735420000000 1.0
C      1  0.4331660000000  0.5482570000000  0.4225960000000 1.0
C      1  0.4755840000000  0.5280350000000  0.4796700000000 1.0
C      1  0.5662680000000  0.4157490000000  0.5388810000000 1.0
C      1  0.4931910000000  0.5550540000000  0.4095770000000 1.0
C      1  0.5791910000000  0.5810000000000  0.4463230000000 1.0
C      1  0.4583810000000  0.3991400000000  0.5200930000000 1.0
C      1  0.5123510000000  0.5077130000000  0.4763660000000 1.0
C      1  0.5700860000000  0.4469750000000  0.4760430000000 1.0
C      1  0.4063690000000  0.5650760000000  0.4334010000000 1.0
C      1  0.4521890000000  0.4109550000000  0.4768480000000 1.0
C      1  0.5600120000000  0.4155530000000  0.5648910000000 1.0
C      1  0.4863470000000  0.4308010000000  0.5377000000000 1.0
C      1  0.3886850000000  0.5011950000000  0.5225750000000 1.0
C      1  0.4644360000000  0.4976590000000  0.4865830000000 1.0
C      1  0.5416120000000  0.5480790000000  0.5056710000000 1.0
C      1  0.4562910000000  0.3993530000000  0.5476020000000 1.0
C      1  0.5068710000000  0.5210350000000  0.5179660000000 1.0
C      1  0.4591290000000  0.4797430000000  0.5847440000000 1.0
C      1  0.4986070000000  0.5955000000000  0.5029930000000 1.0
C      1  0.4967590000000  0.4256430000000  0.4850470000000 1.0
C      1  0.5536960000000  0.4566890000000  0.4251440000000 1.0
C      1  0.4757970000000  0.6104160000000  0.4737540000000 1.0
C      1  0.5705180000000  0.5822800000000  0.4981080000000 1.0
C      1  0.4270860000000  0.4785820000000  0.4294670000000 1.0
C      1  0.5606110000000  0.3936200000000  0.5812340000000 1.0
C      1  0.5131220000000  0.4523760000000  0.4145870000000 1.0
C      1  0.4748840000000  0.5600320000000  0.5354130000000 1.0
C      1  0.6289800000000  0.5066500000000  0.4555880000000 1.0
C      1  0.3601800000000  0.4819050000000  0.4546900000000 1.0
C      1  0.5499990000000  0.4266000000000  0.4148910000000 1.0
C      1  0.4416780000000  0.5197860000000  0.5108660000000 1.0
C      1  0.5971210000000  0.5424160000000  0.4975740000000 1.0
C      1  0.4951440000000  0.4464150000000  0.6172290000000 1.0
C      1  0.4227690000000  0.5628350000000  0.5347690000000 1.0
C      1  0.4378100000000  0.5775170000000  0.4380290000000 1.0
C      1  0.4921370000000  0.5056100000000  0.4347090000000 1.0
C      1  0.3895660000000  0.5245010000000  0.5366100000000 1.0
C      1  0.4822950000000  0.5718270000000  0.4848190000000 1.0
C      1  0.4510870000000  0.4404950000000  0.4179220000000 1.0
C      1  0.5299230000000  0.4794210000000  0.5983480000000 1.0
C      1  0.4827440000000  0.4046100000000  0.5077910000000 1.0
C      1  0.4819580000000  0.4512110000000  0.4083350000000 1.0
C      1  0.5557970000000  0.4637100000000  0.5209970000000 1.0
C      1  0.5833870000000  0.5293790000000  0.4127480000000 1.0
C      1  0.5088500000000  0.5614920000000  0.4662660000000 1.0
C      1  0.5243240000000  0.4507310000000  0.5584090000000 1.0
C      1  0.5409510000000  0.5049320000000  0.4228170000000 1.0
C      1  0.5530210000000  0.4213590000000  0.4438720000000 1.0
C      1  0.4266880000000  0.4529920000000  0.4179820000000 1.0
C      1  0.6009880000000  0.4646930000000  0.4418240000000 1.0
C      1  0.4077350000000  0.4516280000000  0.5061730000000 1.0
C      1  0.4866620000000  0.5461460000000  0.5066980000000 1.0
C      1  0.4809700000000  0.5255300000000  0.4096600000000 1.0
C      1  0.4530080000000  0.5500280000000  0.5036400000000 1.0
C      1  0.5660040000000  0.5446580000000  0.4606750000000 1.0
C      1  0.5570940000000  0.5848540000000  0.5287250000000 1.0
C      1  0.5647440000000  0.5063880000000  0.5302790000000 1.0
C      1  0.4303050000000  0.5186610000000  0.4349120000000 1.0
C      1  0.5223710000000  0.4355240000000  0.5050210000000 1.0
C      1  0.4613780000000  0.4390310000000  0.5190830000000 1.0
C      1  0.4837910000000  0.4209260000000  0.4539610000000 1.0
C      1  0.4786860000000  0.4949490000000  0.6073330000000 1.0
C      1  0.5262330000000  0.4672310000000  0.4422320000000 1.0
C      1  0.5229300000000  0.5310100000000  0.4351190000000 1.0
C      1  0.5484180000000  0.4103680000000  0.4884580000000 1.0
C      1  0.5972790000000  0.4660450000000  0.4833280000000 1.0
C      1  0.4451440000000  0.5397290000000  0.4722030000000 1.0
C      1  0.5157000000000  0.5661990000000  0.5053360000000 1.0
C      1  0.5217040000000  0.5595250000000  0.5531390000000 1.0
C      1  0.4126740000000  0.4713020000000  0.5555280000000 1.0
C      1  0.5208240000000  0.4200570000000  0.4091350000000 1.0
C      1  0.4221610000000  0.4462080000000  0.5693900000000 1.0
C      1  0.5736740000000  0.5517020000000  0.4299620000000 1.0
C      1  0.5257360000000  0.5186380000000  0.5954540000000 1.0
C      1  0.5092860000000  0.5000640000000  0.6137450000000 1.0
C      1  0.5750900000000  0.4968550000000  0.4716060000000 1.0
C      1  0.6063180000000  0.4986950000000  0.5153300000000 1.0
C      1  0.5392500000000  0.5600990000000  0.4739310000000 1.0
C      1  0.4391190000000  0.5792240000000  0.5023680000000 1.0
C      1  0.5110130000000  0.4467140000000  0.5311570000000 1.0
C      1  0.5131550000000  0.4012260000000  0.4360600000000 1.0
C      1  0.4820620000000  0.5544010000000  0.4372990000000 1.0
C      1  0.4532160000000  0.4923810000000  0.4159680000000 1.0
C      1  0.5440030000000  0.5407130000000  0.5380760000000 1.0
C      1  0.5211070000000  0.4088430000000  0.4682310000000 1.0
C      1  0.4470910000000  0.5033990000000  0.5654940000000 1.0
C      1  0.5422300000000  0.5682270000000  0.4204780000000 1.0
C      1  0.5759490000000  0.4707880000000  0.5446530000000 1.0
C      1  0.4112670000000  0.4811340000000  0.5165870000000 1.0
C      1  0.5103580000000  0.5421510000000  0.5866790000000 1.0
C      1  0.5255050000000  0.4772400000000  0.5285560000000 1.0
C      1  0.3953160000000  0.5524160000000  0.4899610000000 1.0
C      1  0.4178470000000  0.4989520000000  0.5633960000000 1.0
C      1  0.5384270000000  0.4983000000000  0.5713400000000 1.0
C      1  0.5036480000000  0.6035590000000  0.5334580000000 1.0
C      1  0.4940360000000  0.5399270000000  0.5504850000000 1.0
C      1  0.4660590000000  0.5217260000000  0.5439830000000 1.0
C      1  0.5078470000000  0.3861150000000  0.5161130000000 1.0
C      1  0.5049000000000  0.5949900000000  0.4619030000000 1.0
C      1  0.5706580000000  0.5061880000000  0.4079640000000 1.0
C      1  0.5261590000000  0.5271130000000  0.4014900000000 1.0
C      1  0.5403200000000  0.4531490000000  0.4859320000000 1.0
C      1  0.4717030000000  0.6140350000000  0.5019230000000 1.0
C      1  0.4770280000000  0.3932070000000  0.4700710000000 1.0
C      1  0.6065720000000  0.4882010000000  0.4620810000000 1.0
C      1  0.4285040000000  0.4345510000000  0.5114720000000 1.0
C      1  0.5318420000000  0.4399210000000  0.4595650000000 1.0
C      1  0.5762140000000  0.4537350000000  0.4456920000000 1.0
C      1  0.4695640000000  0.4246410000000  0.5660560000000 1.0
C      1  0.5093330000000  0.4710330000000  0.5735570000000 1.0
C      1  0.5688080000000  0.4893630000000  0.5957730000000 1.0
C      1  0.4945790000000  0.4895270000000  0.5215090000000 1.0
C      1  0.5424660000000  0.5859110000000  0.5585570000000 1.0
C      1  0.4449750000000  0.4511710000000  0.5437110000000 1.0
C      1  0.4488610000000  0.5445240000000  0.5717470000000 1.0
C      1  0.4924280000000  0.4659880000000  0.6001890000000 1.0
C      1  0.5743470000000  0.5441020000000  0.5477320000000 1.0
C      1  0.5476210000000  0.4917470000000  0.4522210000000 1.0
C      1  0.4675540000000  0.5763940000000  0.4544810000000 1.0
C      1  0.5973560000000  0.5293230000000  0.5273600000000 1.0
C      1  0.5797790000000  0.5591000000000  0.4851040000000 1.0
C      1  0.4798490000000  0.6055960000000  0.4421320000000 1.0
C      1  0.5563670000000  0.5906060000000  0.5846630000000 1.0
C      1  0.5911000000000  0.4395870000000  0.5017990000000 1.0
C      1  0.5593600000000  0.4775170000000  0.4006550000000 1.0
C      1  0.4976250000000  0.4971310000000  0.4022150000000 1.0
C      1  0.5373620000000  0.4829290000000  0.4911730000000 1.0
C      1  0.4994330000000  0.4929620000000  0.5550100000000 1.0
C      1  0.4548860000000  0.4409430000000  0.4724220000000 1.0
C      1  0.5255060000000  0.4806880000000  0.4046480000000 1.0
C      1  0.5381980000000  0.5903360000000  0.5036040000000 1.0
C      1  0.4925470000000  0.5172810000000  0.5733080000000 1.0
C      1  0.4891570000000  0.4212690000000  0.4214600000000 1.0
C      1  0.4989590000000  0.5697300000000  0.5762990000000 1.0
C      1  0.4865220000000  0.5878670000000  0.5506550000000 1.0
C      1  0.4371170000000  0.4790560000000  0.4945840000000 1.0
C      1  0.4931640000000  0.4822670000000  0.4882850000000 1.0
C      1  0.4517800000000  0.6027690000000  0.5179020000000 1.0
C      1  0.4479930000000  0.5078210000000  0.4590840000000 1.0
C      1  0.5038510000000  0.3830970000000  0.4822280000000 1.0
C      1  0.4375550000000  0.5362990000000  0.5407000000000 1.0
END
