TITL C-2848496-4490-630 0.0156213560557944 125000 -958.001807359716 0 0 171 (C1) n - 1
REM
REM in /home/bkarasulu/work/CARBON/AIRSS/Generating-Clusters/AIREBO/with-SteepDescent/Only-C1/SD-CG-opt/Try1-1.4A-POS3A/HFTN-CG
REM
REM
REM
REM
REM
REM ./C.cell (11c1c37f851c82e70ff6c80c92926a4b)
REM
REM compiler GCC version 9.2.1 20190827 (Red Hat 9.2.1-1)
REM options -cpp -mtune=generic -march=x86-64 -g -O0 -fpre-include=/usr/include/finclude/math-vector-fortran.h
REM seed 1756686548 -1782057577 -2015039075 1732943826 1172252811 -1897576494 -851818634 -272028487 -2098651071 1514163228 -1916671229 -1415202344 371629308 1480856680 -2070687677 1027499930 1134119284 2073719842 250101534 -1680840691 -508859452 -513065710 -1958193648 252698591 -1833827345 382522192 -349508356 -1430481021 1951445716 -1370390234 -446233049 1760593918 1707145121
REM
CELL 1.54180   50.00000   50.00000   50.00000   90.00000   90.00000   90.00000
LATT -1
SFAC C  
C      1  0.4896730000000  0.4862120000000  0.4716950000000 1.0
C      1  0.5880320000000  0.5614110000000  0.4561160000000 1.0
C      1  0.5101980000000  0.5830910000000  0.4743310000000 1.0
C      1  0.4922540000000  0.4826530000000  0.3959490000000 1.0
C      1  0.4635560000000  0.4461450000000  0.4189110000000 1.0
C      1  0.4976100000000  0.4990220000000  0.5706140000000 1.0
C      1  0.4887450000000  0.3960980000000  0.4965560000000 1.0
C      1  0.5871180000000  0.5418750000000  0.4335690000000 1.0
C      1  0.5956830000000  0.5173120000000  0.4810490000000 1.0
C      1  0.4040110000000  0.4694290000000  0.5595710000000 1.0
C      1  0.4695810000000  0.5386350000000  0.4947230000000 1.0
C      1  0.5557600000000  0.5356050000000  0.4220110000000 1.0
C      1  0.4428750000000  0.5090000000000  0.5960300000000 1.0
C      1  0.4537230000000  0.5641000000000  0.5746700000000 1.0
C      1  0.5796480000000  0.4174430000000  0.4839840000000 1.0
C      1  0.4592970000000  0.4787840000000  0.4694250000000 1.0
C      1  0.5467170000000  0.4843490000000  0.5210920000000 1.0
C      1  0.5148500000000  0.5193390000000  0.4857430000000 1.0
C      1  0.5168620000000  0.5914830000000  0.5310320000000 1.0
C      1  0.4414700000000  0.4323760000000  0.5718670000000 1.0
C      1  0.4335040000000  0.4224410000000  0.5113580000000 1.0
C      1  0.5658430000000  0.5606000000000  0.5155580000000 1.0
C      1  0.5861620000000  0.4351300000000  0.5356690000000 1.0
C      1  0.5533910000000  0.4848690000000  0.4717650000000 1.0
C      1  0.4892600000000  0.4664480000000  0.4226290000000 1.0
C      1  0.4816510000000  0.5327800000000  0.5997980000000 1.0
C      1  0.4095860000000  0.5464770000000  0.5270730000000 1.0
C      1  0.5723410000000  0.5067700000000  0.5643320000000 1.0
C      1  0.4304340000000  0.4432610000000  0.5451890000000 1.0
C      1  0.4246880000000  0.5857940000000  0.4933030000000 1.0
C      1  0.4632960000000  0.4220970000000  0.5528550000000 1.0
C      1  0.5706970000000  0.4564710000000  0.5572190000000 1.0
C      1  0.4790320000000  0.5324730000000  0.5260330000000 1.0
C      1  0.5301190000000  0.3993770000000  0.4643920000000 1.0
C      1  0.4297940000000  0.5644660000000  0.4704620000000 1.0
C      1  0.4455060000000  0.5911550000000  0.5233290000000 1.0
C      1  0.4540320000000  0.5203920000000  0.4322900000000 1.0
C      1  0.5145520000000  0.5610870000000  0.4001490000000 1.0
C      1  0.5319560000000  0.5375610000000  0.5918990000000 1.0
C      1  0.5807540000000  0.4761460000000  0.4349050000000 1.0
C      1  0.4171710000000  0.5727450000000  0.5229600000000 1.0
C      1  0.5564200000000  0.4074680000000  0.4638650000000 1.0
C      1  0.5348930000000  0.4124000000000  0.5123940000000 1.0
C      1  0.4512130000000  0.5013330000000  0.4081140000000 1.0
C      1  0.5743800000000  0.5086970000000  0.4596050000000 1.0
C      1  0.5650470000000  0.4114720000000  0.5283470000000 1.0
C      1  0.5030920000000  0.5724700000000  0.5745730000000 1.0
C      1  0.5170870000000  0.4888860000000  0.6037030000000 1.0
C      1  0.4891970000000  0.5711200000000  0.4199290000000 1.0
C      1  0.4147980000000  0.5391120000000  0.4633910000000 1.0
C      1  0.4824390000000  0.5192420000000  0.4752610000000 1.0
C      1  0.4653460000000  0.5033150000000  0.5374150000000 1.0
C      1  0.5193230000000  0.6003230000000  0.5009680000000 1.0
C      1  0.4796890000000  0.5635530000000  0.5898120000000 1.0
C      1  0.4977970000000  0.4272680000000  0.5024820000000 1.0
C      1  0.4993920000000  0.5902260000000  0.4431080000000 1.0
C      1  0.4770550000000  0.4606250000000  0.5945520000000 1.0
C      1  0.5013920000000  0.4866620000000  0.5416460000000 1.0
C      1  0.5040660000000  0.4915090000000  0.5020420000000 1.0
C      1  0.4509640000000  0.5516840000000  0.5264850000000 1.0
C      1  0.4644200000000  0.5001550000000  0.5712560000000 1.0
C      1  0.5349580000000  0.5280990000000  0.4466610000000 1.0
C      1  0.6007750000000  0.5173890000000  0.5557150000000 1.0
C      1  0.5124290000000  0.4260470000000  0.5314610000000 1.0
C      1  0.4417610000000  0.5189530000000  0.5258980000000 1.0
C      1  0.5664310000000  0.5407240000000  0.4677100000000 1.0
C      1  0.4788230000000  0.4795740000000  0.6150450000000 1.0
C      1  0.4694120000000  0.3882520000000  0.5191700000000 1.0
C      1  0.5576880000000  0.4578110000000  0.5194450000000 1.0
C      1  0.4525540000000  0.6006480000000  0.4434590000000 1.0
C      1  0.4945680000000  0.4287690000000  0.4611260000000 1.0
C      1  0.5876240000000  0.4450700000000  0.4714610000000 1.0
C      1  0.4746850000000  0.5661800000000  0.4802200000000 1.0
C      1  0.4766990000000  0.4460720000000  0.4839640000000 1.0
C      1  0.5811960000000  0.4791910000000  0.4905220000000 1.0
C      1  0.5378780000000  0.5637640000000  0.4153800000000 1.0
C      1  0.4645270000000  0.4904620000000  0.3793720000000 1.0
C      1  0.4408320000000  0.4573630000000  0.4572360000000 1.0
C      1  0.5595160000000  0.4386390000000  0.4573280000000 1.0
C      1  0.4931820000000  0.4329190000000  0.4219590000000 1.0
C      1  0.5098790000000  0.5398520000000  0.5383520000000 1.0
C      1  0.4417440000000  0.4717110000000  0.5438940000000 1.0
C      1  0.5109810000000  0.4583620000000  0.4985100000000 1.0
C      1  0.4047180000000  0.5317840000000  0.5013900000000 1.0
C      1  0.5763190000000  0.5090510000000  0.4274390000000 1.0
C      1  0.5173480000000  0.4501320000000  0.4495730000000 1.0
C      1  0.4536680000000  0.5741440000000  0.5482930000000 1.0
C      1  0.6077500000000  0.5101840000000  0.5322980000000 1.0
C      1  0.5412580000000  0.4902560000000  0.3858080000000 1.0
C      1  0.5942260000000  0.4718520000000  0.4599780000000 1.0
C      1  0.5594560000000  0.5214820000000  0.5159780000000 1.0
C      1  0.3909180000000  0.4493960000000  0.5461940000000 1.0
C      1  0.4548680000000  0.4634730000000  0.4976690000000 1.0
C      1  0.5053210000000  0.4793960000000  0.4482010000000 1.0
C      1  0.3948830000000  0.5059420000000  0.4913190000000 1.0
C      1  0.4327730000000  0.5035930000000  0.5025820000000 1.0
C      1  0.4414000000000  0.5327980000000  0.5730770000000 1.0
C      1  0.4549600000000  0.5083990000000  0.4590310000000 1.0
C      1  0.4993540000000  0.4428700000000  0.5815470000000 1.0
C      1  0.5206800000000  0.4711730000000  0.3960360000000 1.0
C      1  0.5280330000000  0.4873810000000  0.5712390000000 1.0
C      1  0.5474270000000  0.5681380000000  0.5568960000000 1.0
C      1  0.5611750000000  0.4974610000000  0.5911970000000 1.0
C      1  0.4545330000000  0.5715480000000  0.4544240000000 1.0
C      1  0.4875430000000  0.5360330000000  0.4472790000000 1.0
C      1  0.4421250000000  0.5593010000000  0.4094950000000 1.0
C      1  0.5053940000000  0.5517780000000  0.4826960000000 1.0
C      1  0.5183250000000  0.5091770000000  0.5273770000000 1.0
C      1  0.4245710000000  0.4609370000000  0.5804980000000 1.0
C      1  0.5038060000000  0.6167360000000  0.4775750000000 1.0
C      1  0.5793750000000  0.5860440000000  0.4974270000000 1.0
C      1  0.5490550000000  0.5187510000000  0.6043810000000 1.0
C      1  0.4244910000000  0.4544050000000  0.5037110000000 1.0
C      1  0.4753010000000  0.5318170000000  0.5664090000000 1.0
C      1  0.5089550000000  0.5296560000000  0.5707820000000 1.0
C      1  0.4886830000000  0.5424850000000  0.4012730000000 1.0
C      1  0.5928750000000  0.5820500000000  0.4745310000000 1.0
C      1  0.5307970000000  0.5777810000000  0.4391240000000 1.0
C      1  0.5465040000000  0.4306000000000  0.5757230000000 1.0
C      1  0.4717810000000  0.5074910000000  0.6107520000000 1.0
C      1  0.5434520000000  0.5444530000000  0.5353230000000 1.0
C      1  0.4355720000000  0.5454100000000  0.4967970000000 1.0
C      1  0.4451590000000  0.4145620000000  0.4804030000000 1.0
C      1  0.5798720000000  0.5378000000000  0.4972170000000 1.0
C      1  0.4311220000000  0.4399910000000  0.4756970000000 1.0
C      1  0.5564120000000  0.4658420000000  0.5850370000000 1.0
C      1  0.4834390000000  0.5123640000000  0.4065940000000 1.0
C      1  0.5241800000000  0.4212840000000  0.5860800000000 1.0
C      1  0.4207940000000  0.5255330000000  0.5495620000000 1.0
C      1  0.4631220000000  0.5525260000000  0.4303000000000 1.0
C      1  0.4159220000000  0.4928160000000  0.5415350000000 1.0
C      1  0.4935890000000  0.4606960000000  0.5279430000000 1.0
C      1  0.5271200000000  0.4554690000000  0.4172530000000 1.0
C      1  0.5398830000000  0.4287400000000  0.4244820000000 1.0
C      1  0.4661080000000  0.4749450000000  0.5231700000000 1.0
C      1  0.5316890000000  0.4955340000000  0.4478280000000 1.0
C      1  0.4903230000000  0.4367760000000  0.5519140000000 1.0
C      1  0.5437140000000  0.5701720000000  0.4917570000000 1.0
C      1  0.5794660000000  0.4832390000000  0.5438460000000 1.0
C      1  0.5434760000000  0.4999140000000  0.5483380000000 1.0
C      1  0.4768540000000  0.6031870000000  0.4655750000000 1.0
C      1  0.4405390000000  0.4577870000000  0.4293990000000 1.0
C      1  0.5140040000000  0.4119840000000  0.4388300000000 1.0
C      1  0.4301600000000  0.5129070000000  0.4742270000000 1.0
C      1  0.4716140000000  0.4082030000000  0.4734160000000 1.0
C      1  0.5064970000000  0.5202800000000  0.4293170000000 1.0
C      1  0.5412250000000  0.5039480000000  0.4953070000000 1.0
C      1  0.5306270000000  0.5643920000000  0.5801770000000 1.0
C      1  0.5371550000000  0.4553810000000  0.4767110000000 1.0
C      1  0.5472270000000  0.4361100000000  0.5434090000000 1.0
C      1  0.4028180000000  0.5009480000000  0.4606100000000 1.0
C      1  0.5902930000000  0.4544930000000  0.5113050000000 1.0
C      1  0.4251080000000  0.4843370000000  0.6029650000000 1.0
C      1  0.4545000000000  0.4084210000000  0.5300490000000 1.0
C      1  0.5532640000000  0.4340280000000  0.4977140000000 1.0
C      1  0.5499580000000  0.5207400000000  0.3919820000000 1.0
C      1  0.4069620000000  0.4302560000000  0.5299660000000 1.0
C      1  0.5014280000000  0.5721480000000  0.5449060000000 1.0
C      1  0.5320390000000  0.5042020000000  0.4152230000000 1.0
C      1  0.5647360000000  0.4516290000000  0.4285660000000 1.0
C      1  0.4103490000000  0.4818990000000  0.5098080000000 1.0
C      1  0.4583250000000  0.5918720000000  0.4918430000000 1.0
C      1  0.4563880000000  0.4692950000000  0.5737960000000 1.0
C      1  0.5352000000000  0.5521270000000  0.4670450000000 1.0
C      1  0.5443580000000  0.5923800000000  0.5427470000000 1.0
C      1  0.5836040000000  0.4981630000000  0.5150520000000 1.0
C      1  0.5509270000000  0.5972400000000  0.5110330000000 1.0
C      1  0.5198160000000  0.3961830000000  0.4906160000000 1.0
C      1  0.4297510000000  0.4820900000000  0.4195180000000 1.0
C      1  0.4071800000000  0.4926760000000  0.4339410000000 1.0
C      1  0.5244450000000  0.4608540000000  0.5897280000000 1.0
END
