TITL C-2848499-1157-529 -0.000293244641545407 125000 -447.388788558704 0 0 81 (C1) n - 1
REM
REM in /home/bkarasulu/work/CARBON/AIRSS/Generating-Clusters/AIREBO/with-SteepDescent/Only-C1/SD-CG-opt/Try1-1.4A-POS3A/HFTN-CG
REM
REM
REM
REM
REM
REM ./C.cell (11c1c37f851c82e70ff6c80c92926a4b)
REM
REM compiler GCC version 9.2.1 20190827 (Red Hat 9.2.1-1)
REM options -cpp -mtune=generic -march=x86-64 -g -O0 -fpre-include=/usr/include/finclude/math-vector-fortran.h
REM seed 1851217098 1874115907 1587084501 1591658670 -1136471351 1448982994 -2104214503 1331491294 -2000883216 1313821674 -1867183860 -1516959136 1320230216 338057744 56731480 -339944425 448314035 -1129124798 1401533136 1094796469 1155861590 -657151045 1012010970 1113208503 -1561102744 -1200515589 -1590816544 1073384260 606450351 1511808337 34873768 -1800622629 -850052073
REM
CELL 1.54180   50.00000   50.00000   50.00000   90.00000   90.00000   90.00000
LATT -1
SFAC C  
C      1  0.5083880000000  0.4320440000000  0.5485300000000 1.0
C      1  0.4754290000000  0.5150510000000  0.4949220000000 1.0
C      1  0.5128320000000  0.4598170000000  0.5168390000000 1.0
C      1  0.5590490000000  0.5189160000000  0.4409130000000 1.0
C      1  0.5847890000000  0.5561270000000  0.5118630000000 1.0
C      1  0.4636670000000  0.4630470000000  0.4616020000000 1.0
C      1  0.4739740000000  0.4987730000000  0.4141710000000 1.0
C      1  0.5647700000000  0.5131260000000  0.4966400000000 1.0
C      1  0.5013060000000  0.4644320000000  0.5554840000000 1.0
C      1  0.4982110000000  0.5622050000000  0.5124730000000 1.0
C      1  0.5031330000000  0.5232530000000  0.5026400000000 1.0
C      1  0.4904320000000  0.5546000000000  0.4187370000000 1.0
C      1  0.5636380000000  0.5433290000000  0.5001930000000 1.0
C      1  0.5667510000000  0.4900660000000  0.5175910000000 1.0
C      1  0.5849760000000  0.5206590000000  0.4513050000000 1.0
C      1  0.5339090000000  0.5117520000000  0.4626570000000 1.0
C      1  0.4998910000000  0.4942510000000  0.5463690000000 1.0
C      1  0.5356080000000  0.4484120000000  0.4580500000000 1.0
C      1  0.4421830000000  0.5793320000000  0.5158340000000 1.0
C      1  0.4664980000000  0.5342190000000  0.5562380000000 1.0
C      1  0.4273530000000  0.4945210000000  0.4846280000000 1.0
C      1  0.4582950000000  0.4702570000000  0.5080040000000 1.0
C      1  0.4801740000000  0.5290630000000  0.4186130000000 1.0
C      1  0.5362480000000  0.4951030000000  0.4922220000000 1.0
C      1  0.5258680000000  0.5358540000000  0.5613440000000 1.0
C      1  0.5533440000000  0.5146320000000  0.5615720000000 1.0
C      1  0.5495710000000  0.4221410000000  0.5217130000000 1.0
C      1  0.4918410000000  0.4796220000000  0.4252200000000 1.0
C      1  0.5882410000000  0.5075100000000  0.4756510000000 1.0
C      1  0.4053950000000  0.4505840000000  0.4952730000000 1.0
C      1  0.5078300000000  0.4970500000000  0.5774100000000 1.0
C      1  0.4449660000000  0.5701890000000  0.4598510000000 1.0
C      1  0.4872000000000  0.5774220000000  0.4836360000000 1.0
C      1  0.4203290000000  0.5759940000000  0.5031100000000 1.0
C      1  0.5854810000000  0.4794620000000  0.4839220000000 1.0
C      1  0.5599790000000  0.4508020000000  0.5177200000000 1.0
C      1  0.5342570000000  0.4179640000000  0.5434350000000 1.0
C      1  0.4711710000000  0.5800710000000  0.4580490000000 1.0
C      1  0.5507000000000  0.4080930000000  0.4960980000000 1.0
C      1  0.4451300000000  0.4963450000000  0.4265760000000 1.0
C      1  0.4309970000000  0.4806510000000  0.5586510000000 1.0
C      1  0.5301970000000  0.4804200000000  0.5824990000000 1.0
C      1  0.5089390000000  0.4526910000000  0.4543660000000 1.0
C      1  0.4609960000000  0.5211930000000  0.4443050000000 1.0
C      1  0.4320320000000  0.4648690000000  0.5369770000000 1.0
C      1  0.5397440000000  0.4747350000000  0.5313990000000 1.0
C      1  0.4773850000000  0.4430880000000  0.5575410000000 1.0
C      1  0.5436970000000  0.5271180000000  0.5337420000000 1.0
C      1  0.4435040000000  0.5375660000000  0.4605740000000 1.0
C      1  0.4635890000000  0.4980900000000  0.5161520000000 1.0
C      1  0.4716640000000  0.5044740000000  0.5430700000000 1.0
C      1  0.4802140000000  0.4537940000000  0.4399410000000 1.0
C      1  0.4973010000000  0.4844520000000  0.4584300000000 1.0
C      1  0.4442280000000  0.4882140000000  0.4591000000000 1.0
C      1  0.4880050000000  0.4116990000000  0.5032610000000 1.0
C      1  0.5880190000000  0.4670400000000  0.5123700000000 1.0
C      1  0.5491800000000  0.4860860000000  0.5621020000000 1.0
C      1  0.5572360000000  0.4706870000000  0.4832610000000 1.0
C      1  0.5158260000000  0.5667980000000  0.4771860000000 1.0
C      1  0.4573870000000  0.5143190000000  0.5895840000000 1.0
C      1  0.5062080000000  0.5253180000000  0.5821750000000 1.0
C      1  0.5419580000000  0.5544500000000  0.4894180000000 1.0
C      1  0.5192360000000  0.5336310000000  0.4789440000000 1.0
C      1  0.4659270000000  0.5632520000000  0.5051240000000 1.0
C      1  0.4556710000000  0.5379500000000  0.4923210000000 1.0
C      1  0.5488390000000  0.4398560000000  0.4858880000000 1.0
C      1  0.4771820000000  0.4641720000000  0.4861620000000 1.0
C      1  0.5096160000000  0.4743790000000  0.4879240000000 1.0
C      1  0.4504510000000  0.4991000000000  0.5665030000000 1.0
C      1  0.4218700000000  0.5550780000000  0.4801060000000 1.0
C      1  0.5227410000000  0.5028220000000  0.5224860000000 1.0
C      1  0.5135260000000  0.5410510000000  0.5296830000000 1.0
C      1  0.5460660000000  0.4908730000000  0.4385540000000 1.0
C      1  0.4795720000000  0.5346990000000  0.5837880000000 1.0
C      1  0.4244240000000  0.4688920000000  0.5040810000000 1.0
C      1  0.4898200000000  0.4367890000000  0.5204450000000 1.0
C      1  0.4744260000000  0.5016670000000  0.4670440000000 1.0
C      1  0.4596310000000  0.4477460000000  0.5319190000000 1.0
C      1  0.4247100000000  0.5233800000000  0.4921750000000 1.0
C      1  0.4840500000000  0.5770140000000  0.4332840000000 1.0
C      1  0.5511310000000  0.4638080000000  0.4403620000000 1.0
END
