TITL C-2848507-1641-159 0.00658517164028844 125000 -159.104830192328 0 0 29 (C1) n - 1
REM
REM in /home/bkarasulu/work/CARBON/AIRSS/Generating-Clusters/AIREBO/with-SteepDescent/Only-C1/SD-CG-opt/Try1-1.4A-POS3A/HFTN-CG
REM
REM
REM
REM
REM
REM ./C.cell (11c1c37f851c82e70ff6c80c92926a4b)
REM
REM compiler GCC version 9.2.1 20190827 (Red Hat 9.2.1-1)
REM options -cpp -mtune=generic -march=x86-64 -g -O0 -fpre-include=/usr/include/finclude/math-vector-fortran.h
REM seed -728881135 89759707 725334109 -683245051 -1645274564 1421822852 1618069362 901494656 1796160185 490791774 451876836 -2053617409 873206197 1316830503 1519930233 -411165364 -97749416 389393305 -1867748206 918149272 187232211 950304824 1962523344 1181716442 1874466455 -1571869240 -1963965178 367970461 -1418697641 -1438061679 438095583 301959687 -965608334
REM
CELL 1.54180   50.00000   50.00000   50.00000   90.00000   90.00000   90.00000
LATT -1
SFAC C  
C      1  0.4673390000000  0.5005240000000  0.5049630000000 1.0
C      1  0.4821990000000  0.5090830000000  0.4466860000000 1.0
C      1  0.5004480000000  0.4035090000000  0.5211840000000 1.0
C      1  0.4829420000000  0.5470330000000  0.5271520000000 1.0
C      1  0.4681970000000  0.4710280000000  0.5098290000000 1.0
C      1  0.5345690000000  0.5204130000000  0.5276000000000 1.0
C      1  0.4988070000000  0.4601160000000  0.5200560000000 1.0
C      1  0.5643640000000  0.5047630000000  0.5227350000000 1.0
C      1  0.5333800000000  0.4545670000000  0.4594370000000 1.0
C      1  0.5382340000000  0.4891880000000  0.5146550000000 1.0
C      1  0.5461240000000  0.4370060000000  0.4447360000000 1.0
C      1  0.5165630000000  0.5207380000000  0.5517750000000 1.0
C      1  0.4731330000000  0.5359950000000  0.4019720000000 1.0
C      1  0.5264700000000  0.5432700000000  0.5082530000000 1.0
C      1  0.4768390000000  0.5217380000000  0.4236510000000 1.0
C      1  0.4790460000000  0.5125500000000  0.5345320000000 1.0
C      1  0.4947680000000  0.5733410000000  0.4864310000000 1.0
C      1  0.4899040000000  0.4278290000000  0.5175780000000 1.0
C      1  0.5010270000000  0.5437580000000  0.5536980000000 1.0
C      1  0.5017140000000  0.4906890000000  0.4644220000000 1.0
C      1  0.4551940000000  0.5293720000000  0.5185290000000 1.0
C      1  0.4870450000000  0.5889860000000  0.4668730000000 1.0
C      1  0.5020100000000  0.5549140000000  0.5053450000000 1.0
C      1  0.4766620000000  0.5051530000000  0.4776100000000 1.0
C      1  0.5211590000000  0.4715220000000  0.5031720000000 1.0
C      1  0.4642080000000  0.4423750000000  0.5114140000000 1.0
C      1  0.5006040000000  0.4713080000000  0.5490860000000 1.0
C      1  0.4991750000000  0.4979300000000  0.5515400000000 1.0
C      1  0.5178750000000  0.4713030000000  0.4750900000000 1.0
END
