TITL C-2848501-3133-663 -0.00167993077841998 125000 -882.555414222056 0 0 166 (C1) n - 1
REM
REM in /home/bkarasulu/work/CARBON/AIRSS/Generating-Clusters/AIREBO/with-SteepDescent/Only-C1/SD-CG-opt/Try1-1.4A-POS3A/HFTN-CG
REM
REM
REM
REM
REM
REM ./C.cell (11c1c37f851c82e70ff6c80c92926a4b)
REM
REM compiler GCC version 9.2.1 20190827 (Red Hat 9.2.1-1)
REM options -cpp -mtune=generic -march=x86-64 -g -O0 -fpre-include=/usr/include/finclude/math-vector-fortran.h
REM seed 1494396820 3155145 833126404 1535075148 1033655306 2006946032 -1539054928 -1936447696 -1180572670 -336916898 1013950875 505870126 179748013 -2016764178 -2133420511 160876762 1415203156 1239905946 -1567922844 1749443190 912138001 -62182952 984951154 -807873598 -1402330653 226407389 1754360476 374607537 1578613312 -432673927 1298044516 99743820 -433517211
REM
CELL 1.54180   50.00000   50.00000   50.00000   90.00000   90.00000   90.00000
LATT -1
SFAC C  
C      1  0.5315300000000  0.5371070000000  0.4961130000000 1.0
C      1  0.4558330000000  0.4522600000000  0.4484900000000 1.0
C      1  0.4328180000000  0.4570300000000  0.5551090000000 1.0
C      1  0.5871800000000  0.5151900000000  0.4123170000000 1.0
C      1  0.4464840000000  0.4589980000000  0.4766150000000 1.0
C      1  0.4185470000000  0.5390790000000  0.5600350000000 1.0
C      1  0.5549280000000  0.4782190000000  0.4253490000000 1.0
C      1  0.5920650000000  0.5379440000000  0.5165410000000 1.0
C      1  0.5131050000000  0.4889130000000  0.5142040000000 1.0
C      1  0.3953120000000  0.4753470000000  0.5111290000000 1.0
C      1  0.5812490000000  0.4755830000000  0.4467290000000 1.0
C      1  0.4266910000000  0.5463630000000  0.4933090000000 1.0
C      1  0.4389150000000  0.5468610000000  0.4313920000000 1.0
C      1  0.5494790000000  0.5681160000000  0.5398210000000 1.0
C      1  0.5160250000000  0.4691070000000  0.5630990000000 1.0
C      1  0.5826020000000  0.4475370000000  0.5310420000000 1.0
C      1  0.4968920000000  0.4594650000000  0.4861090000000 1.0
C      1  0.5615890000000  0.5522750000000  0.4951920000000 1.0
C      1  0.5078280000000  0.4614310000000  0.4479840000000 1.0
C      1  0.4334400000000  0.4333630000000  0.5769780000000 1.0
C      1  0.4907850000000  0.4003140000000  0.5248250000000 1.0
C      1  0.4621240000000  0.4982100000000  0.6111180000000 1.0
C      1  0.4247160000000  0.5094210000000  0.5339610000000 1.0
C      1  0.4288180000000  0.4211300000000  0.4693220000000 1.0
C      1  0.5371410000000  0.5837460000000  0.5644450000000 1.0
C      1  0.5497060000000  0.5155500000000  0.5424800000000 1.0
C      1  0.4551510000000  0.4006460000000  0.5050350000000 1.0
C      1  0.4887540000000  0.5258770000000  0.4947660000000 1.0
C      1  0.3781860000000  0.5178470000000  0.4926490000000 1.0
C      1  0.5703120000000  0.4304110000000  0.4115470000000 1.0
C      1  0.5372720000000  0.6009960000000  0.4940350000000 1.0
C      1  0.4897100000000  0.4612800000000  0.5510910000000 1.0
C      1  0.5888830000000  0.5985840000000  0.5469970000000 1.0
C      1  0.4731900000000  0.5146620000000  0.4049020000000 1.0
C      1  0.4684370000000  0.4853700000000  0.4017150000000 1.0
C      1  0.4440170000000  0.4873790000000  0.5894640000000 1.0
C      1  0.4747420000000  0.4311130000000  0.4204470000000 1.0
C      1  0.4908340000000  0.4146400000000  0.5620980000000 1.0
C      1  0.5113320000000  0.4243500000000  0.5364510000000 1.0
C      1  0.5260980000000  0.4804640000000  0.4394560000000 1.0
C      1  0.5507830000000  0.5092570000000  0.4520740000000 1.0
C      1  0.5831400000000  0.5208580000000  0.5751740000000 1.0
C      1  0.3836110000000  0.5005720000000  0.5147840000000 1.0
C      1  0.4668690000000  0.5763700000000  0.4888890000000 1.0
C      1  0.5585780000000  0.4348090000000  0.4597930000000 1.0
C      1  0.5578150000000  0.4670760000000  0.5382320000000 1.0
C      1  0.5051860000000  0.5229440000000  0.5551510000000 1.0
C      1  0.5508890000000  0.5224570000000  0.5757690000000 1.0
C      1  0.4634040000000  0.5481320000000  0.5374970000000 1.0
C      1  0.5383620000000  0.4661650000000  0.5128910000000 1.0
C      1  0.5686050000000  0.5695040000000  0.4505900000000 1.0
C      1  0.4996380000000  0.5154360000000  0.4642740000000 1.0
C      1  0.5929160000000  0.5573080000000  0.4578350000000 1.0
C      1  0.5943720000000  0.4857160000000  0.5049610000000 1.0
C      1  0.4327470000000  0.4616710000000  0.4297990000000 1.0
C      1  0.4483780000000  0.4921470000000  0.4265790000000 1.0
C      1  0.4355010000000  0.4984440000000  0.4929570000000 1.0
C      1  0.6055450000000  0.5089820000000  0.5272790000000 1.0
C      1  0.4803070000000  0.5147270000000  0.5710800000000 1.0
C      1  0.4895760000000  0.5861360000000  0.4654870000000 1.0
C      1  0.5612060000000  0.4870970000000  0.4679610000000 1.0
C      1  0.5941960000000  0.4558200000000  0.5069380000000 1.0
C      1  0.4859090000000  0.4723410000000  0.5265110000000 1.0
C      1  0.4741140000000  0.4262820000000  0.4811770000000 1.0
C      1  0.5242500000000  0.5492230000000  0.5270380000000 1.0
C      1  0.5321490000000  0.4994060000000  0.3870420000000 1.0
C      1  0.4286480000000  0.5163060000000  0.5730580000000 1.0
C      1  0.4786730000000  0.5398960000000  0.4275890000000 1.0
C      1  0.5396310000000  0.4452430000000  0.5569090000000 1.0
C      1  0.5388450000000  0.5530170000000  0.4494150000000 1.0
C      1  0.5217680000000  0.5661450000000  0.5786940000000 1.0
C      1  0.4801660000000  0.5816830000000  0.5508110000000 1.0
C      1  0.5160060000000  0.4579110000000  0.3976290000000 1.0
C      1  0.5434740000000  0.5398380000000  0.4138560000000 1.0
C      1  0.4914750000000  0.5730990000000  0.5793250000000 1.0
C      1  0.5374780000000  0.4746470000000  0.3971210000000 1.0
C      1  0.4748750000000  0.5459360000000  0.5673630000000 1.0
C      1  0.4920610000000  0.5767770000000  0.4337740000000 1.0
C      1  0.4447890000000  0.4321270000000  0.4973860000000 1.0
C      1  0.5230460000000  0.4967480000000  0.5520600000000 1.0
C      1  0.4621670000000  0.4158100000000  0.5346690000000 1.0
C      1  0.5080270000000  0.5586830000000  0.4843040000000 1.0
C      1  0.4881540000000  0.6101210000000  0.4895470000000 1.0
C      1  0.5128520000000  0.5240720000000  0.6094590000000 1.0
C      1  0.4971740000000  0.5331370000000  0.4006520000000 1.0
C      1  0.4937820000000  0.5433180000000  0.5955720000000 1.0
C      1  0.5143700000000  0.4367700000000  0.4677900000000 1.0
C      1  0.5914400000000  0.5446860000000  0.4831750000000 1.0
C      1  0.5253920000000  0.5395130000000  0.5713760000000 1.0
C      1  0.5650750000000  0.5943970000000  0.5341340000000 1.0
C      1  0.4569790000000  0.4560450000000  0.5863610000000 1.0
C      1  0.5218750000000  0.5967450000000  0.5437230000000 1.0
C      1  0.5028160000000  0.5742140000000  0.5268340000000 1.0
C      1  0.4486480000000  0.5763720000000  0.5494130000000 1.0
C      1  0.4684530000000  0.4388650000000  0.5589090000000 1.0
C      1  0.4789670000000  0.4699450000000  0.4396500000000 1.0
C      1  0.4136240000000  0.4508460000000  0.4734750000000 1.0
C      1  0.4169390000000  0.4306230000000  0.5168390000000 1.0
C      1  0.4914900000000  0.3922940000000  0.4579370000000 1.0
C      1  0.4419800000000  0.5687490000000  0.5108040000000 1.0
C      1  0.4226750000000  0.5518490000000  0.4604930000000 1.0
C      1  0.5056180000000  0.4892200000000  0.4818650000000 1.0
C      1  0.4877980000000  0.5466720000000  0.4596640000000 1.0
C      1  0.6045070000000  0.5159660000000  0.4937780000000 1.0
C      1  0.4480300000000  0.6029300000000  0.4790970000000 1.0
C      1  0.4905260000000  0.5035430000000  0.5980120000000 1.0
C      1  0.5527830000000  0.6115570000000  0.5172530000000 1.0
C      1  0.5544130000000  0.4315430000000  0.4994670000000 1.0
C      1  0.4287560000000  0.5188650000000  0.4189770000000 1.0
C      1  0.5284760000000  0.4168960000000  0.4915440000000 1.0
C      1  0.4439750000000  0.5292890000000  0.5169090000000 1.0
C      1  0.5411890000000  0.5077590000000  0.5104930000000 1.0
C      1  0.4957680000000  0.4220930000000  0.4998210000000 1.0
C      1  0.4069610000000  0.4662790000000  0.4474860000000 1.0
C      1  0.5661820000000  0.4967460000000  0.4960950000000 1.0
C      1  0.5514670000000  0.4615240000000  0.4836900000000 1.0
C      1  0.5674040000000  0.4904940000000  0.5545020000000 1.0
C      1  0.5089120000000  0.5887810000000  0.5001460000000 1.0
C      1  0.4334620000000  0.4271000000000  0.5435320000000 1.0
C      1  0.4689070000000  0.4767450000000  0.4909470000000 1.0
C      1  0.3978630000000  0.5130480000000  0.5358860000000 1.0
C      1  0.5958930000000  0.5036880000000  0.5544630000000 1.0
C      1  0.5141600000000  0.4060840000000  0.4560240000000 1.0
C      1  0.5606950000000  0.5115770000000  0.4219310000000 1.0
C      1  0.4560440000000  0.5527380000000  0.4669690000000 1.0
C      1  0.4547560000000  0.5016290000000  0.5619150000000 1.0
C      1  0.5147040000000  0.5060720000000  0.4352570000000 1.0
C      1  0.5606970000000  0.4451890000000  0.4310110000000 1.0
C      1  0.5636790000000  0.5430440000000  0.5284820000000 1.0
C      1  0.4009750000000  0.4490510000000  0.5006310000000 1.0
C      1  0.4009440000000  0.5317060000000  0.4774330000000 1.0
C      1  0.5515510000000  0.5785210000000  0.4771860000000 1.0
C      1  0.4485980000000  0.5224770000000  0.4533730000000 1.0
C      1  0.4610060000000  0.3967520000000  0.4714350000000 1.0
C      1  0.5135470000000  0.4476510000000  0.5117060000000 1.0
C      1  0.4661570000000  0.4217170000000  0.4484350000000 1.0
C      1  0.5234680000000  0.4198480000000  0.5678960000000 1.0
C      1  0.4278140000000  0.4766900000000  0.5113700000000 1.0
C      1  0.4566480000000  0.4590440000000  0.5152240000000 1.0
C      1  0.5940830000000  0.4524900000000  0.4550510000000 1.0
C      1  0.5229110000000  0.5952990000000  0.4637430000000 1.0
C      1  0.5427310000000  0.4087970000000  0.4552380000000 1.0
C      1  0.4731820000000  0.5019350000000  0.4476920000000 1.0
C      1  0.5564460000000  0.4555020000000  0.5844500000000 1.0
C      1  0.5833540000000  0.4382460000000  0.4828630000000 1.0
C      1  0.5409710000000  0.5858800000000  0.4394380000000 1.0
C      1  0.4877490000000  0.4534780000000  0.5982730000000 1.0
C      1  0.5217390000000  0.5645950000000  0.4224090000000 1.0
C      1  0.5075260000000  0.4771210000000  0.5931360000000 1.0
C      1  0.4807690000000  0.5541030000000  0.5105360000000 1.0
C      1  0.5577370000000  0.4278910000000  0.5331630000000 1.0
C      1  0.5003150000000  0.4275940000000  0.5912120000000 1.0
C      1  0.5057440000000  0.5209750000000  0.5228590000000 1.0
C      1  0.4379270000000  0.4818680000000  0.5422000000000 1.0
C      1  0.5218530000000  0.5192470000000  0.4082040000000 1.0
C      1  0.5578000000000  0.4837470000000  0.5829570000000 1.0
C      1  0.4236940000000  0.5503640000000  0.5342570000000 1.0
C      1  0.5323320000000  0.5007020000000  0.5942440000000 1.0
C      1  0.5183380000000  0.3907710000000  0.5079230000000 1.0
C      1  0.5311280000000  0.5282830000000  0.4641040000000 1.0
C      1  0.4666060000000  0.5899940000000  0.5207500000000 1.0
C      1  0.4190410000000  0.4965610000000  0.4432000000000 1.0
C      1  0.4645720000000  0.5083750000000  0.4997090000000 1.0
C      1  0.4238440000000  0.5112540000000  0.4696480000000 1.0
C      1  0.4870370000000  0.4598230000000  0.4085710000000 1.0
C      1  0.4616570000000  0.5670950000000  0.4220320000000 1.0
END
