TITL C-2847959-7740-352 0.000896492907917271 125000 -291.643807566067 0 0 53 (C1) n - 1
REM
REM in /home/bkarasulu/work/CARBON/AIRSS/Generating-Clusters/AIREBO/with-SteepDescent/Only-C1/SD-CG-opt/Try1-1.4A-POS3A/HFTN-CG
REM
REM
REM
REM
REM
REM ./C.cell (11c1c37f851c82e70ff6c80c92926a4b)
REM
REM compiler GCC version 9.2.1 20190827 (Red Hat 9.2.1-1)
REM options -cpp -mtune=generic -march=x86-64 -g -O0 -fpre-include=/usr/include/finclude/math-vector-fortran.h
REM seed 1925095856 880385701 -1403835701 1982232350 366626009 -2100635423 103290401 763961059 622795874 -1321645990 -1430419173 1510751593 -1843924164 -1916980316 1316050219 -586697655 1497804611 -270973699 -1764050233 -87430777 -1620122727 469152486 -87660431 -1214864643 1383441810 -768606789 -512392306 -1844854103 -1579083918 -439708355 314216229 -1639018747 904684917
REM
CELL 1.54180   50.00000   50.00000   50.00000   90.00000   90.00000   90.00000
LATT -1
SFAC C  
C      1  0.4436550000000  0.5138740000000  0.4592300000000 1.0
C      1  0.4980940000000  0.4876180000000  0.4607680000000 1.0
C      1  0.5573010000000  0.4777080000000  0.4668600000000 1.0
C      1  0.4172580000000  0.4560120000000  0.4863690000000 1.0
C      1  0.5198370000000  0.5060580000000  0.4450310000000 1.0
C      1  0.5412110000000  0.4842530000000  0.5297250000000 1.0
C      1  0.4935990000000  0.4302610000000  0.4960750000000 1.0
C      1  0.4939690000000  0.4853590000000  0.4944420000000 1.0
C      1  0.4529610000000  0.4853820000000  0.5404750000000 1.0
C      1  0.5173990000000  0.5486270000000  0.5704500000000 1.0
C      1  0.5152420000000  0.5490260000000  0.4870980000000 1.0
C      1  0.4527920000000  0.5143240000000  0.5361390000000 1.0
C      1  0.5470730000000  0.5276530000000  0.4644250000000 1.0
C      1  0.5122090000000  0.4181490000000  0.5318930000000 1.0
C      1  0.4920750000000  0.5386420000000  0.5008220000000 1.0
C      1  0.4711320000000  0.5428340000000  0.4823510000000 1.0
C      1  0.4841780000000  0.4583800000000  0.5115390000000 1.0
C      1  0.5578960000000  0.5408280000000  0.5435700000000 1.0
C      1  0.5493150000000  0.4978060000000  0.4499860000000 1.0
C      1  0.4844690000000  0.4614210000000  0.4720220000000 1.0
C      1  0.4735260000000  0.4403130000000  0.4630300000000 1.0
C      1  0.5108880000000  0.4458200000000  0.5284730000000 1.0
C      1  0.4543930000000  0.4675450000000  0.5175630000000 1.0
C      1  0.4661670000000  0.5195490000000  0.4432100000000 1.0
C      1  0.4408740000000  0.5351360000000  0.4848760000000 1.0
C      1  0.4852020000000  0.5603390000000  0.5368460000000 1.0
C      1  0.4982230000000  0.4618350000000  0.5511670000000 1.0
C      1  0.5043160000000  0.5016540000000  0.4149470000000 1.0
C      1  0.4923450000000  0.4909180000000  0.5431350000000 1.0
C      1  0.5065080000000  0.5277150000000  0.5453900000000 1.0
C      1  0.5291600000000  0.5691300000000  0.4984690000000 1.0
C      1  0.4013630000000  0.4388270000000  0.4745800000000 1.0
C      1  0.5624490000000  0.4883110000000  0.4960790000000 1.0
C      1  0.5431270000000  0.4269740000000  0.4855120000000 1.0
C      1  0.5568830000000  0.5446500000000  0.5135330000000 1.0
C      1  0.5358020000000  0.5667240000000  0.5285270000000 1.0
C      1  0.5504950000000  0.4563290000000  0.4914530000000 1.0
C      1  0.5116570000000  0.5672310000000  0.5468510000000 1.0
C      1  0.5377600000000  0.5275240000000  0.5585770000000 1.0
C      1  0.5663780000000  0.5481930000000  0.4530180000000 1.0
C      1  0.4356100000000  0.5221610000000  0.5155560000000 1.0
C      1  0.5324090000000  0.5055880000000  0.5157680000000 1.0
C      1  0.5367610000000  0.4596160000000  0.5195710000000 1.0
C      1  0.5517590000000  0.5205880000000  0.4955740000000 1.0
C      1  0.4739170000000  0.5313300000000  0.5409880000000 1.0
C      1  0.4356380000000  0.4733140000000  0.4967590000000 1.0
C      1  0.4818800000000  0.5397990000000  0.4558660000000 1.0
C      1  0.4710290000000  0.4751090000000  0.5627400000000 1.0
C      1  0.5002360000000  0.5103710000000  0.5168050000000 1.0
C      1  0.4822110000000  0.4982310000000  0.4350130000000 1.0
C      1  0.5176790000000  0.4186530000000  0.4911010000000 1.0
C      1  0.4375220000000  0.5016010000000  0.4904480000000 1.0
C      1  0.5141660000000  0.5347090000000  0.4593050000000 1.0
END
