TITL C-2848503-6230-400 -3.62652274740406e-05 125000 -465.10168673875 0 0 90 (C1) n - 1
REM
REM in /home/bkarasulu/work/CARBON/AIRSS/Generating-Clusters/AIREBO/with-SteepDescent/Only-C1/SD-CG-opt/Try1-1.4A-POS3A/HFTN-CG
REM
REM
REM
REM
REM
REM ./C.cell (11c1c37f851c82e70ff6c80c92926a4b)
REM
REM compiler GCC version 9.2.1 20190827 (Red Hat 9.2.1-1)
REM options -cpp -mtune=generic -march=x86-64 -g -O0 -fpre-include=/usr/include/finclude/math-vector-fortran.h
REM seed -2020523806 -1810545772 1471861711 -1959006060 -1208999068 1980030175 -267163905 403616160 881680274 -681736659 547683808 -1114085644 -1162899992 -540601950 502275616 -1982481040 -1036999164 210976020 2041877932 1652378684 -815662932 -989400113 -1979860741 1073241680 958208343 1564063915 -2089372101 1131012222 -1089715906 339867214 -74278428 1405140793 1245902717
REM
CELL 1.54180   50.00000   50.00000   50.00000   90.00000   90.00000   90.00000
LATT -1
SFAC C  
C      1  0.4829070000000  0.4337180000000  0.5478160000000 1.0
C      1  0.4188260000000  0.4989990000000  0.4987520000000 1.0
C      1  0.4962570000000  0.5889610000000  0.5214940000000 1.0
C      1  0.4925900000000  0.4733700000000  0.5706000000000 1.0
C      1  0.5679520000000  0.4301750000000  0.5242180000000 1.0
C      1  0.4213240000000  0.5278440000000  0.4859460000000 1.0
C      1  0.4368130000000  0.5086900000000  0.5579640000000 1.0
C      1  0.4574100000000  0.5391880000000  0.4381420000000 1.0
C      1  0.4942190000000  0.4920530000000  0.4691180000000 1.0
C      1  0.4654510000000  0.4974990000000  0.5504890000000 1.0
C      1  0.5642930000000  0.5467510000000  0.5365370000000 1.0
C      1  0.4346900000000  0.4946790000000  0.4481700000000 1.0
C      1  0.4782180000000  0.5098270000000  0.4104420000000 1.0
C      1  0.4758940000000  0.5137510000000  0.4500800000000 1.0
C      1  0.5083800000000  0.4672910000000  0.4876820000000 1.0
C      1  0.5748340000000  0.5270520000000  0.5585200000000 1.0
C      1  0.5432000000000  0.5806380000000  0.4225330000000 1.0
C      1  0.5626800000000  0.4560610000000  0.4811470000000 1.0
C      1  0.4572850000000  0.4559640000000  0.4899230000000 1.0
C      1  0.4981840000000  0.5003300000000  0.5417200000000 1.0
C      1  0.5424220000000  0.3769640000000  0.4908250000000 1.0
C      1  0.5558360000000  0.5038160000000  0.5611820000000 1.0
C      1  0.4959300000000  0.5036130000000  0.5754890000000 1.0
C      1  0.4598720000000  0.5274580000000  0.4760230000000 1.0
C      1  0.4117180000000  0.4573930000000  0.4742870000000 1.0
C      1  0.4241010000000  0.4516110000000  0.5451480000000 1.0
C      1  0.5528930000000  0.4292450000000  0.4966020000000 1.0
C      1  0.4970610000000  0.5762070000000  0.4477590000000 1.0
C      1  0.4455700000000  0.5319870000000  0.5269830000000 1.0
C      1  0.4335350000000  0.5472460000000  0.5030440000000 1.0
C      1  0.4753620000000  0.5526850000000  0.4874350000000 1.0
C      1  0.5883960000000  0.5073480000000  0.4900760000000 1.0
C      1  0.5605040000000  0.5039840000000  0.4361000000000 1.0
C      1  0.5288710000000  0.4788820000000  0.5112730000000 1.0
C      1  0.5795390000000  0.4825280000000  0.4944120000000 1.0
C      1  0.5361420000000  0.5209240000000  0.4731440000000 1.0
C      1  0.4636390000000  0.4246570000000  0.4913660000000 1.0
C      1  0.5086670000000  0.5419010000000  0.5063900000000 1.0
C      1  0.5169240000000  0.4597250000000  0.5773180000000 1.0
C      1  0.4899590000000  0.5451790000000  0.5472170000000 1.0
C      1  0.4444660000000  0.5737520000000  0.5014070000000 1.0
C      1  0.4346730000000  0.4995130000000  0.5252900000000 1.0
C      1  0.5429540000000  0.4764470000000  0.5631530000000 1.0
C      1  0.4848360000000  0.4185610000000  0.5023140000000 1.0
C      1  0.5259610000000  0.5731820000000  0.5237810000000 1.0
C      1  0.5055720000000  0.5465020000000  0.4731020000000 1.0
C      1  0.4816720000000  0.4692860000000  0.5086780000000 1.0
C      1  0.4689260000000  0.4487720000000  0.4599350000000 1.0
C      1  0.4952380000000  0.5267920000000  0.4176410000000 1.0
C      1  0.4358720000000  0.5426910000000  0.5559280000000 1.0
C      1  0.5088570000000  0.4251120000000  0.5439360000000 1.0
C      1  0.5275840000000  0.5650590000000  0.4430530000000 1.0
C      1  0.5545250000000  0.4527570000000  0.5421410000000 1.0
C      1  0.4823000000000  0.5291650000000  0.5720190000000 1.0
C      1  0.5204730000000  0.5514830000000  0.5433790000000 1.0
C      1  0.4611920000000  0.4901390000000  0.4305240000000 1.0
C      1  0.4752820000000  0.4660050000000  0.5422390000000 1.0
C      1  0.5460070000000  0.5489590000000  0.4635240000000 1.0
C      1  0.5544990000000  0.5643950000000  0.5159250000000 1.0
C      1  0.5284190000000  0.4395900000000  0.5577390000000 1.0
C      1  0.5224090000000  0.4198570000000  0.4326090000000 1.0
C      1  0.5682500000000  0.5269780000000  0.4501560000000 1.0
C      1  0.3895700000000  0.4906950000000  0.5028000000000 1.0
C      1  0.4799630000000  0.4705710000000  0.4469490000000 1.0
C      1  0.5791340000000  0.5324070000000  0.4784240000000 1.0
C      1  0.5142480000000  0.5039470000000  0.4443480000000 1.0
C      1  0.5248080000000  0.5091320000000  0.5224810000000 1.0
C      1  0.4339330000000  0.4772690000000  0.4773760000000 1.0
C      1  0.5287490000000  0.4395350000000  0.4476010000000 1.0
C      1  0.5110730000000  0.5114940000000  0.4913670000000 1.0
C      1  0.5196300000000  0.4358340000000  0.4940790000000 1.0
C      1  0.5186120000000  0.4740800000000  0.5403180000000 1.0
C      1  0.5451630000000  0.4947730000000  0.4787870000000 1.0
C      1  0.4909830000000  0.5777650000000  0.5488980000000 1.0
C      1  0.4627290000000  0.4945890000000  0.4817300000000 1.0
C      1  0.4771610000000  0.5351180000000  0.5172800000000 1.0
C      1  0.5637920000000  0.5575460000000  0.4903400000000 1.0
C      1  0.5566960000000  0.4667160000000  0.5127800000000 1.0
C      1  0.5128670000000  0.5354970000000  0.4440340000000 1.0
C      1  0.4418150000000  0.4688580000000  0.5368790000000 1.0
C      1  0.5386870000000  0.5262860000000  0.5423020000000 1.0
C      1  0.5120820000000  0.4123180000000  0.5168590000000 1.0
C      1  0.4323080000000  0.5250800000000  0.4562590000000 1.0
C      1  0.5365940000000  0.4008030000000  0.4988000000000 1.0
C      1  0.4552090000000  0.5294360000000  0.5776430000000 1.0
C      1  0.4851230000000  0.5025770000000  0.5114510000000 1.0
C      1  0.5372760000000  0.4882820000000  0.4402530000000 1.0
C      1  0.4744820000000  0.5821960000000  0.5042970000000 1.0
C      1  0.4749140000000  0.5703580000000  0.4583870000000 1.0
C      1  0.5340860000000  0.4656480000000  0.4654350000000 1.0
END
