TITL C-2847950-6905-363 -0.000620877702676775 125000 -431.874062712994 0 0 84 (C1) n - 1
REM
REM in /home/bkarasulu/work/CARBON/AIRSS/Generating-Clusters/AIREBO/with-SteepDescent/Only-C1/SD-CG-opt/Try1-1.4A-POS3A/HFTN-CG
REM
REM
REM
REM
REM
REM ./C.cell (11c1c37f851c82e70ff6c80c92926a4b)
REM
REM compiler GCC version 9.2.1 20190827 (Red Hat 9.2.1-1)
REM options -cpp -mtune=generic -march=x86-64 -g -O0 -fpre-include=/usr/include/finclude/math-vector-fortran.h
REM seed -1142469309 1221338658 -1230161925 447519018 -2012125297 -823066427 -1544929931 935803238 -322429460 -1367591588 -1477649071 219044515 -949602761 1407337489 -903122489 266648936 -190390751 -1714487694 -861040812 -1675716826 -171994729 2015132326 2079984235 -933827714 635081719 603361503 -1368070661 -2079839169 56740956 1920183311 76418337 1883261791 1803137296
REM
CELL 1.54180   50.00000   50.00000   50.00000   90.00000   90.00000   90.00000
LATT -1
SFAC C  
C      1  0.5049910000000  0.4567450000000  0.5003550000000 1.0
C      1  0.5265140000000  0.4858530000000  0.5523570000000 1.0
C      1  0.5468340000000  0.4842410000000  0.4816750000000 1.0
C      1  0.4539230000000  0.4763690000000  0.5570980000000 1.0
C      1  0.5092430000000  0.4604970000000  0.4431220000000 1.0
C      1  0.5542600000000  0.5568980000000  0.4781370000000 1.0
C      1  0.5518450000000  0.4634380000000  0.4587880000000 1.0
C      1  0.4857880000000  0.4338530000000  0.5172340000000 1.0
C      1  0.4268760000000  0.5326400000000  0.5392780000000 1.0
C      1  0.4918440000000  0.4508270000000  0.5460690000000 1.0
C      1  0.5246610000000  0.4637480000000  0.5781320000000 1.0
C      1  0.4980050000000  0.5565610000000  0.5775520000000 1.0
C      1  0.4825650000000  0.5653940000000  0.5536890000000 1.0
C      1  0.5247990000000  0.5058990000000  0.4697910000000 1.0
C      1  0.5743510000000  0.4980200000000  0.4281820000000 1.0
C      1  0.5129160000000  0.4298760000000  0.4853530000000 1.0
C      1  0.4967410000000  0.4799140000000  0.4044460000000 1.0
C      1  0.5273110000000  0.4399060000000  0.4594260000000 1.0
C      1  0.4982100000000  0.4538510000000  0.5764050000000 1.0
C      1  0.5086420000000  0.5065850000000  0.5954650000000 1.0
C      1  0.5495180000000  0.4444480000000  0.4852710000000 1.0
C      1  0.4373380000000  0.4494870000000  0.4870560000000 1.0
C      1  0.5247790000000  0.4871430000000  0.4414100000000 1.0
C      1  0.5341360000000  0.5328080000000  0.5460290000000 1.0
C      1  0.5050210000000  0.5324590000000  0.5547680000000 1.0
C      1  0.4302530000000  0.4767860000000  0.5397370000000 1.0
C      1  0.5447180000000  0.5280160000000  0.4533450000000 1.0
C      1  0.4780890000000  0.4761400000000  0.5737690000000 1.0
C      1  0.4388840000000  0.4218690000000  0.5305320000000 1.0
C      1  0.5030480000000  0.4840550000000  0.4870000000000 1.0
C      1  0.5151400000000  0.4169700000000  0.5141090000000 1.0
C      1  0.4759590000000  0.4779750000000  0.5319730000000 1.0
C      1  0.5200480000000  0.4604970000000  0.5306180000000 1.0
C      1  0.4707490000000  0.5418140000000  0.4920480000000 1.0
C      1  0.4620310000000  0.4126550000000  0.5248810000000 1.0
C      1  0.6038110000000  0.4835440000000  0.5434930000000 1.0
C      1  0.4690790000000  0.5133540000000  0.5586630000000 1.0
C      1  0.5097960000000  0.5040940000000  0.4189740000000 1.0
C      1  0.5526260000000  0.5247940000000  0.5647460000000 1.0
C      1  0.4998440000000  0.5013250000000  0.5667800000000 1.0
C      1  0.4637860000000  0.4789030000000  0.4844230000000 1.0
C      1  0.5637880000000  0.5696640000000  0.5056450000000 1.0
C      1  0.5487180000000  0.4587470000000  0.5124130000000 1.0
C      1  0.4472600000000  0.4670540000000  0.4621550000000 1.0
C      1  0.4185250000000  0.5070660000000  0.4959980000000 1.0
C      1  0.5020840000000  0.5641120000000  0.5265270000000 1.0
C      1  0.4753450000000  0.4347820000000  0.4161200000000 1.0
C      1  0.5092780000000  0.5477760000000  0.4996060000000 1.0
C      1  0.5558360000000  0.4791620000000  0.4327420000000 1.0
C      1  0.5228500000000  0.5869130000000  0.5278190000000 1.0
C      1  0.5806840000000  0.4967850000000  0.5398610000000 1.0
C      1  0.4450820000000  0.5529970000000  0.4485740000000 1.0
C      1  0.5713610000000  0.5385330000000  0.5014170000000 1.0
C      1  0.5202360000000  0.5241560000000  0.4981190000000 1.0
C      1  0.5282820000000  0.5067760000000  0.5255910000000 1.0
C      1  0.4295460000000  0.5049400000000  0.5253300000000 1.0
C      1  0.4371510000000  0.5143370000000  0.4773330000000 1.0
C      1  0.5725630000000  0.5210620000000  0.4430460000000 1.0
C      1  0.4633540000000  0.5087480000000  0.5248060000000 1.0
C      1  0.4930200000000  0.5601500000000  0.4740530000000 1.0
C      1  0.5538810000000  0.4910490000000  0.5109630000000 1.0
C      1  0.4851500000000  0.5346030000000  0.5284280000000 1.0
C      1  0.4341860000000  0.4709790000000  0.4154320000000 1.0
C      1  0.4815430000000  0.4606900000000  0.4256880000000 1.0
C      1  0.5014720000000  0.5500670000000  0.4373130000000 1.0
C      1  0.4607500000000  0.5695960000000  0.4665840000000 1.0
C      1  0.5756030000000  0.5143180000000  0.5138640000000 1.0
C      1  0.5491210000000  0.5870770000000  0.5210990000000 1.0
C      1  0.4581560000000  0.5434220000000  0.5471300000000 1.0
C      1  0.4496180000000  0.5630590000000  0.4980480000000 1.0
C      1  0.4549580000000  0.4765240000000  0.4344130000000 1.0
C      1  0.4587830000000  0.5082670000000  0.4353710000000 1.0
C      1  0.4312220000000  0.4517640000000  0.5209890000000 1.0
C      1  0.4411060000000  0.5244320000000  0.4508130000000 1.0
C      1  0.4910310000000  0.5087290000000  0.4669270000000 1.0
C      1  0.5581990000000  0.4970140000000  0.5581760000000 1.0
C      1  0.4387230000000  0.5599820000000  0.5229000000000 1.0
C      1  0.5241820000000  0.5305280000000  0.4295960000000 1.0
C      1  0.5243080000000  0.5536820000000  0.4623450000000 1.0
C      1  0.4870830000000  0.5191000000000  0.4382020000000 1.0
C      1  0.5005850000000  0.4926080000000  0.5169510000000 1.0
C      1  0.4624940000000  0.4571250000000  0.5087400000000 1.0
C      1  0.5368050000000  0.4309190000000  0.5296560000000 1.0
C      1  0.4671100000000  0.5104550000000  0.4910390000000 1.0
END
