TITL C-2847951-7423-490 -0.000741671318160437 125000 -586.548443209715 0 0 104 (C1) n - 1
REM
REM in /home/bkarasulu/work/CARBON/AIRSS/Generating-Clusters/AIREBO/with-SteepDescent/Only-C1/SD-CG-opt/Try1-1.4A-POS3A/HFTN-CG
REM
REM
REM
REM
REM
REM ./C.cell (11c1c37f851c82e70ff6c80c92926a4b)
REM
REM compiler GCC version 9.2.1 20190827 (Red Hat 9.2.1-1)
REM options -cpp -mtune=generic -march=x86-64 -g -O0 -fpre-include=/usr/include/finclude/math-vector-fortran.h
REM seed 1964687662 300280401 -96309602 670305994 466611455 1594153301 1234432610 -1446567706 1047941635 -1223880176 1007872609 -1603292690 -1211730272 -1373053598 -1503832020 1070726919 808527436 -1533776802 1585489260 -1618740206 -1176591374 689417711 445196643 -1435271056 -914706049 477225919 -1935959035 1025011002 -1303338392 1404964006 723079773 -1136064818 152299784
REM
CELL 1.54180   50.00000   50.00000   50.00000   90.00000   90.00000   90.00000
LATT -1
SFAC C  
C      1  0.4994300000000  0.5905840000000  0.5069310000000 1.0
C      1  0.4310830000000  0.5335140000000  0.5136460000000 1.0
C      1  0.4704230000000  0.5000300000000  0.5115550000000 1.0
C      1  0.4265560000000  0.5353090000000  0.4675650000000 1.0
C      1  0.4854950000000  0.5868010000000  0.5311930000000 1.0
C      1  0.4901650000000  0.4560690000000  0.4800100000000 1.0
C      1  0.4555440000000  0.5088790000000  0.5567140000000 1.0
C      1  0.5445620000000  0.5848060000000  0.5211430000000 1.0
C      1  0.4341250000000  0.4805480000000  0.4398470000000 1.0
C      1  0.4936830000000  0.4351940000000  0.5271730000000 1.0
C      1  0.4896350000000  0.6028710000000  0.4561120000000 1.0
C      1  0.5899750000000  0.5223440000000  0.4734210000000 1.0
C      1  0.4724260000000  0.5303980000000  0.5763870000000 1.0
C      1  0.5081090000000  0.5097480000000  0.6405430000000 1.0
C      1  0.4366630000000  0.5658280000000  0.4637130000000 1.0
C      1  0.4611720000000  0.5211600000000  0.4192490000000 1.0
C      1  0.5462430000000  0.4455710000000  0.4882330000000 1.0
C      1  0.5274040000000  0.4932020000000  0.4354580000000 1.0
C      1  0.4989940000000  0.4880080000000  0.4793210000000 1.0
C      1  0.4798720000000  0.5047980000000  0.4578940000000 1.0
C      1  0.4735070000000  0.5536970000000  0.5125230000000 1.0
C      1  0.5197520000000  0.4548630000000  0.4720370000000 1.0
C      1  0.4951410000000  0.5636770000000  0.4879640000000 1.0
C      1  0.5129100000000  0.5041340000000  0.5389600000000 1.0
C      1  0.5645370000000  0.4664730000000  0.4496970000000 1.0
C      1  0.4895310000000  0.5088180000000  0.5562590000000 1.0
C      1  0.4400700000000  0.4850710000000  0.5579800000000 1.0
C      1  0.4537420000000  0.5218010000000  0.5278570000000 1.0
C      1  0.4618000000000  0.3856880000000  0.5204350000000 1.0
C      1  0.5417550000000  0.4477860000000  0.4485830000000 1.0
C      1  0.5832050000000  0.5018990000000  0.4970530000000 1.0
C      1  0.4858720000000  0.5724700000000  0.4590290000000 1.0
C      1  0.4779680000000  0.4718370000000  0.5261480000000 1.0
C      1  0.5704310000000  0.4592020000000  0.4768880000000 1.0
C      1  0.5770400000000  0.5471490000000  0.5304950000000 1.0
C      1  0.4349930000000  0.5575970000000  0.5025020000000 1.0
C      1  0.5317660000000  0.4629530000000  0.5123580000000 1.0
C      1  0.4038030000000  0.4832050000000  0.4422360000000 1.0
C      1  0.5081380000000  0.4496330000000  0.4275380000000 1.0
C      1  0.4862370000000  0.4312150000000  0.4965360000000 1.0
C      1  0.5255420000000  0.4558940000000  0.5608790000000 1.0
C      1  0.5710870000000  0.4579180000000  0.5572880000000 1.0
C      1  0.5068530000000  0.4835310000000  0.5121110000000 1.0
C      1  0.5474790000000  0.4730920000000  0.5627960000000 1.0
C      1  0.4816820000000  0.4949380000000  0.4276870000000 1.0
C      1  0.4946840000000  0.5207800000000  0.5051810000000 1.0
C      1  0.5642180000000  0.5618670000000  0.4491740000000 1.0
C      1  0.4114820000000  0.4674580000000  0.5001810000000 1.0
C      1  0.5576140000000  0.5140450000000  0.4690900000000 1.0
C      1  0.5226570000000  0.5292400000000  0.5698540000000 1.0
C      1  0.4521570000000  0.4333070000000  0.5517600000000 1.0
C      1  0.5063230000000  0.4787080000000  0.4248770000000 1.0
C      1  0.5554420000000  0.4931650000000  0.4457190000000 1.0
C      1  0.5283290000000  0.5566180000000  0.4848200000000 1.0
C      1  0.4590250000000  0.4622430000000  0.4808940000000 1.0
C      1  0.5659390000000  0.4380580000000  0.5337630000000 1.0
C      1  0.3886440000000  0.4875880000000  0.4643580000000 1.0
C      1  0.4813310000000  0.5387610000000  0.4589740000000 1.0
C      1  0.5242070000000  0.5068560000000  0.4664360000000 1.0
C      1  0.4699650000000  0.5326330000000  0.4886190000000 1.0
C      1  0.4510570000000  0.5412560000000  0.4447450000000 1.0
C      1  0.4391460000000  0.5855030000000  0.4879700000000 1.0
C      1  0.5240120000000  0.5104970000000  0.5005060000000 1.0
C      1  0.4437710000000  0.4598940000000  0.4143580000000 1.0
C      1  0.5816650000000  0.5459120000000  0.4967830000000 1.0
C      1  0.5014400000000  0.4548490000000  0.5733260000000 1.0
C      1  0.5305250000000  0.5299530000000  0.5263340000000 1.0
C      1  0.4789120000000  0.3842190000000  0.4982240000000 1.0
C      1  0.4519510000000  0.4863970000000  0.4641710000000 1.0
C      1  0.5950680000000  0.4603350000000  0.5691060000000 1.0
C      1  0.5214350000000  0.5546780000000  0.5561380000000 1.0
C      1  0.4180690000000  0.5142570000000  0.4919130000000 1.0
C      1  0.5047390000000  0.5151510000000  0.6153340000000 1.0
C      1  0.4515370000000  0.4910290000000  0.4144650000000 1.0
C      1  0.4467780000000  0.4633830000000  0.5368130000000 1.0
C      1  0.4745730000000  0.5418390000000  0.5444320000000 1.0
C      1  0.4803940000000  0.4500270000000  0.5522350000000 1.0
C      1  0.5270540000000  0.5842360000000  0.5003020000000 1.0
C      1  0.5644630000000  0.5139020000000  0.5131620000000 1.0
C      1  0.5649440000000  0.4640780000000  0.5183050000000 1.0
C      1  0.5194970000000  0.4241660000000  0.4469970000000 1.0
C      1  0.4548140000000  0.5808520000000  0.5177870000000 1.0
C      1  0.4540620000000  0.4100440000000  0.5322900000000 1.0
C      1  0.5820980000000  0.4745710000000  0.4976400000000 1.0
C      1  0.5012730000000  0.5236050000000  0.5890000000000 1.0
C      1  0.4017220000000  0.4900230000000  0.4889230000000 1.0
C      1  0.5415310000000  0.5041600000000  0.5567520000000 1.0
C      1  0.5446440000000  0.4194600000000  0.5218870000000 1.0
C      1  0.4599000000000  0.4337580000000  0.5128050000000 1.0
C      1  0.5470160000000  0.5578880000000  0.5365390000000 1.0
C      1  0.5381120000000  0.5551910000000  0.4460700000000 1.0
C      1  0.5400190000000  0.4151880000000  0.4918930000000 1.0
C      1  0.4936100000000  0.4047630000000  0.4853170000000 1.0
C      1  0.5649490000000  0.5177920000000  0.5426620000000 1.0
C      1  0.5191110000000  0.4081340000000  0.4725890000000 1.0
C      1  0.5846140000000  0.5540120000000  0.4645480000000 1.0
C      1  0.5492050000000  0.5411520000000  0.5003060000000 1.0
C      1  0.5233630000000  0.4413380000000  0.5334480000000 1.0
C      1  0.4866910000000  0.5633840000000  0.4279940000000 1.0
C      1  0.4961660000000  0.5646500000000  0.5464200000000 1.0
C      1  0.4398940000000  0.4576190000000  0.5058920000000 1.0
C      1  0.4736540000000  0.5490760000000  0.4126910000000 1.0
C      1  0.5149230000000  0.5377210000000  0.4606400000000 1.0
C      1  0.4491840000000  0.5085280000000  0.4866420000000 1.0
END
