TITL C-2847950-6905-54 94.5801448363557 125000 -969.630748921394 0 0 178 (C1) n - 1
REM
REM in /home/bkarasulu/work/CARBON/AIRSS/Generating-Clusters/AIREBO/with-SteepDescent/Only-C1/SD-CG-opt/Try1-1.4A-POS3A/HFTN-CG
REM
REM
REM
REM
REM
REM ./C.cell (11c1c37f851c82e70ff6c80c92926a4b)
REM
REM compiler GCC version 9.2.1 20190827 (Red Hat 9.2.1-1)
REM options -cpp -mtune=generic -march=x86-64 -g -O0 -fpre-include=/usr/include/finclude/math-vector-fortran.h
REM seed -977416114 -1431949062 -730857203 796609013 1019537635 -1936854413 1191514656 -1244041031 -743225985 538418237 832378878 -427440490 386298944 182619700 -1486316771 1017148038 -2049486274 -679973039 -1867374463 -144889391 -980200201 1393508889 -1856409631 1835193685 218743923 -551414206 -1869149154 1738868301 -559677011 1433339988 1484057300 -861251234 1521307906
REM
CELL 1.54180   50.00000   50.00000   50.00000   90.00000   90.00000   90.00000
LATT -1
SFAC C  
C      1  0.4320800000000  0.5006330000000  0.4239920000000 1.0
C      1  0.5322420000000  0.3964830000000  0.4497130000000 1.0
C      1  0.5266400000000  0.5392210000000  0.5581320000000 1.0
C      1  0.5096050000000  0.4103470000000  0.4345410000000 1.0
C      1  0.4497420000000  0.4311660000000  0.4196500000000 1.0
C      1  0.5504270000000  0.5968230000000  0.4921540000000 1.0
C      1  0.5209740000000  0.5918920000000  0.4555890000000 1.0
C      1  0.4220710000000  0.4429300000000  0.5041680000000 1.0
C      1  0.4811000000000  0.4779310000000  0.5022720000000 1.0
C      1  0.4746410000000  0.4441420000000  0.3796540000000 1.0
C      1  0.5893450000000  0.4383540000000  0.4606050000000 1.0
C      1  0.5390940000000  0.5297170000000  0.5277860000000 1.0
C      1  0.5348240000000  0.4652720000000  0.4040960000000 1.0
C      1  0.5771260000000  0.5198630000000  0.5098850000000 1.0
C      1  0.5446500000000  0.4401980000000  0.5047880000000 1.0
C      1  0.5359540000000  0.5434880000000  0.4966210000000 1.0
C      1  0.5011810000000  0.5350230000000  0.3986930000000 1.0
C      1  0.5473030000000  0.4464210000000  0.5482610000000 1.0
C      1  0.5534920000000  0.4912950000000  0.4721420000000 1.0
C      1  0.4591800000000  0.4316000000000  0.5775470000000 1.0
C      1  0.5116790000000  0.6130650000000  0.4964720000000 1.0
C      1  0.4810590000000  0.4403640000000  0.4732900000000 1.0
C      1  0.5652540000000  0.4720370000000  0.4928300000000 1.0
C      1  0.5626920000000  0.4974920000000  0.5286180000000 1.0
C      1  0.5104430000000  0.5687920000000  0.4420990000000 1.0
C      1  0.4542680000000  0.5365100000000  0.5177750000000 1.0
C      1  0.5077960000000  0.4856040000000  0.5947600000000 1.0
C      1  0.5002150000000  0.4865670000000  0.4454930000000 1.0
C      1  0.4856140000000  0.5442910000000  0.4613970000000 1.0
C      1  0.4741210000000  0.4482790000000  0.5036560000000 1.0
C      1  0.4546160000000  0.5661050000000  0.5653460000000 1.0
C      1  0.5949160000000  0.4476000000000  0.5172660000000 1.0
C      1  0.5881840000000  0.5345350000000  0.4585880000000 1.0
C      1  0.5797090000000  0.4368420000000  0.4347600000000 1.0
C      1  0.4843160000000  0.5351500000000  0.5914850000000 1.0
C      1  0.5442840000000  0.5283240000000  0.5850970000000 1.0
C      1  0.5822130000000  0.5160740000000  0.5590770000000 1.0
C      1  0.5306350000000  0.5951160000000  0.5197750000000 1.0
C      1  0.4906940000000  0.4596570000000  0.4269740000000 1.0
C      1  0.5452550000000  0.5821900000000  0.4687750000000 1.0
C      1  0.3797390000000  0.4802220000000  0.5136360000000 1.0
C      1  0.3865570000000  0.4563590000000  0.4508220000000 1.0
C      1  0.4432490000000  0.5280370000000  0.4414050000000 1.0
C      1  0.5611080000000  0.5169350000000  0.4173430000000 1.0
C      1  0.5376500000000  0.4284900000000  0.4564050000000 1.0
C      1  0.5039830000000  0.5170370000000  0.5704260000000 1.0
C      1  0.4883850000000  0.4874390000000  0.4074720000000 1.0
C      1  0.4230900000000  0.5778220000000  0.4712540000000 1.0
C      1  0.4250890000000  0.4346270000000  0.4785890000000 1.0
C      1  0.4742970000000  0.4746940000000  0.5748130000000 1.0
C      1  0.4671610000000  0.5557750000000  0.5368350000000 1.0
C      1  0.4758320000000  0.4938600000000  0.6028960000000 1.0
C      1  0.4055870000000  0.4362050000000  0.4543030000000 1.0
C      1  0.5225140000000  0.5383830000000  0.6033410000000 1.0
C      1  0.4236630000000  0.4835960000000  0.4490670000000 1.0
C      1  0.5182550000000  0.4727320000000  0.4705400000000 1.0
C      1  0.4730460000000  0.3949540000000  0.4933550000000 1.0
C      1  0.5020740000000  0.5147820000000  0.6103050000000 1.0
C      1  0.4980780000000  0.6050590000000  0.4703640000000 1.0
C      1  0.4280480000000  0.5663480000000  0.5355540000000 1.0
C      1  0.4089300000000  0.4977330000000  0.5163110000000 1.0
C      1  0.4713320000000  0.5940040000000  0.4733510000000 1.0
C      1  0.4657770000000  0.4601810000000  0.4501600000000 1.0
C      1  0.6046130000000  0.4896750000000  0.4702920000000 1.0
C      1  0.4945090000000  0.4478050000000  0.5694290000000 1.0
C      1  0.5750390000000  0.4972650000000  0.4318420000000 1.0
C      1  0.5390130000000  0.5467170000000  0.4031820000000 1.0
C      1  0.4598310000000  0.5575770000000  0.4443930000000 1.0
C      1  0.4930110000000  0.5338910000000  0.5265520000000 1.0
C      1  0.5733240000000  0.4322580000000  0.5315140000000 1.0
C      1  0.4415860000000  0.4971450000000  0.4934160000000 1.0
C      1  0.4793800000000  0.6027580000000  0.5413730000000 1.0
C      1  0.4841060000000  0.4155150000000  0.5666280000000 1.0
C      1  0.5648790000000  0.4422460000000  0.4817240000000 1.0
C      1  0.5672220000000  0.5132130000000  0.5834140000000 1.0
C      1  0.5268240000000  0.5651090000000  0.5885810000000 1.0
C      1  0.4818260000000  0.5638440000000  0.5801670000000 1.0
C      1  0.5854650000000  0.5764840000000  0.4974230000000 1.0
C      1  0.6034420000000  0.4387660000000  0.4902180000000 1.0
C      1  0.4958860000000  0.4561180000000  0.6023700000000 1.0
C      1  0.5140010000000  0.4423660000000  0.4710110000000 1.0
C      1  0.6070650000000  0.5113420000000  0.5135100000000 1.0
C      1  0.4683930000000  0.4445860000000  0.6004430000000 1.0
C      1  0.4866140000000  0.5615640000000  0.4247530000000 1.0
C      1  0.5377040000000  0.4176810000000  0.5636970000000 1.0
C      1  0.5147120000000  0.5569100000000  0.4736910000000 1.0
C      1  0.5475650000000  0.4467030000000  0.4295870000000 1.0
C      1  0.5617670000000  0.4070210000000  0.5212640000000 1.0
C      1  0.4424110000000  0.5417870000000  0.4103200000000 1.0
C      1  0.4408140000000  0.4966040000000  0.5757490000000 1.0
C      1  0.4694170000000  0.4441260000000  0.4064990000000 1.0
C      1  0.3905860000000  0.5101390000000  0.4670850000000 1.0
C      1  0.4467720000000  0.5929850000000  0.5460550000000 1.0
C      1  0.4874440000000  0.5716180000000  0.5164250000000 1.0
C      1  0.5555910000000  0.4856540000000  0.5567530000000 1.0
C      1  0.5060840000000  0.5598040000000  0.5422980000000 1.0
C      1  0.4281550000000  0.5463300000000  0.5582810000000 1.0
C      1  0.5095160000000  0.5927500000000  0.5467330000000 1.0
C      1  0.5192640000000  0.4250720000000  0.4979270000000 1.0
C      1  0.4716840000000  0.5074110000000  0.5658860000000 1.0
C      1  0.5446730000000  0.3849090000000  0.4761470000000 1.0
C      1  0.4595940000000  0.5724820000000  0.4969350000000 1.0
C      1  0.5470460000000  0.4680370000000  0.5219990000000 1.0
C      1  0.4760900000000  0.4103810000000  0.4699930000000 1.0
C      1  0.5151950000000  0.4373070000000  0.4248950000000 1.0
C      1  0.4418810000000  0.5750790000000  0.5955740000000 1.0
C      1  0.5656610000000  0.5599530000000  0.4950140000000 1.0
C      1  0.5085740000000  0.5249330000000  0.5024530000000 1.0
C      1  0.4570580000000  0.4764310000000  0.5455460000000 1.0
C      1  0.5181680000000  0.4765880000000  0.5378000000000 1.0
C      1  0.4812370000000  0.4045420000000  0.5183430000000 1.0
C      1  0.5840570000000  0.4716860000000  0.5692090000000 1.0
C      1  0.5111230000000  0.4810860000000  0.4988190000000 1.0
C      1  0.5373850000000  0.5132860000000  0.3971190000000 1.0
C      1  0.4771530000000  0.5097720000000  0.5366710000000 1.0
C      1  0.5153220000000  0.4128980000000  0.5734820000000 1.0
C      1  0.4876610000000  0.5139700000000  0.3896250000000 1.0
C      1  0.3803460000000  0.5416870000000  0.4919940000000 1.0
C      1  0.6049990000000  0.4793870000000  0.5239650000000 1.0
C      1  0.5296030000000  0.5319080000000  0.4565100000000 1.0
C      1  0.4627340000000  0.4876510000000  0.4303170000000 1.0
C      1  0.5199580000000  0.4911760000000  0.3952230000000 1.0
C      1  0.5945820000000  0.5070070000000  0.4499910000000 1.0
C      1  0.5952140000000  0.4922270000000  0.5511440000000 1.0
C      1  0.4265430000000  0.4733550000000  0.5602540000000 1.0
C      1  0.5412890000000  0.4007240000000  0.5019400000000 1.0
C      1  0.4692220000000  0.5412290000000  0.4875980000000 1.0
C      1  0.5200880000000  0.5331830000000  0.4269550000000 1.0
C      1  0.5631000000000  0.4104990000000  0.4699920000000 1.0
C      1  0.5652150000000  0.5222420000000  0.4802000000000 1.0
C      1  0.4035160000000  0.4763460000000  0.5418410000000 1.0
C      1  0.5702190000000  0.5352960000000  0.5384980000000 1.0
C      1  0.5271300000000  0.4803910000000  0.4324430000000 1.0
C      1  0.6287450000000  0.5251690000000  0.5102050000000 1.0
C      1  0.5605790000000  0.5814470000000  0.5283250000000 1.0
C      1  0.5047870000000  0.5786700000000  0.5773610000000 1.0
C      1  0.4447400000000  0.4801810000000  0.4678840000000 1.0
C      1  0.3963390000000  0.4821050000000  0.4546710000000 1.0
C      1  0.5943530000000  0.4796610000000  0.4934070000000 1.0
C      1  0.4841960000000  0.4019460000000  0.4442640000000 1.0
C      1  0.3836910000000  0.5099070000000  0.4974800000000 1.0
C      1  0.4358000000000  0.4777300000000  0.5183180000000 1.0
C      1  0.5134470000000  0.4441980000000  0.5430310000000 1.0
C      1  0.4976840000000  0.4305740000000  0.5177220000000 1.0
C      1  0.5095630000000  0.5791740000000  0.4983680000000 1.0
C      1  0.4917770000000  0.5086420000000  0.4777530000000 1.0
C      1  0.4873510000000  0.4806550000000  0.5319190000000 1.0
C      1  0.4623380000000  0.5558490000000  0.4039900000000 1.0
C      1  0.4581490000000  0.6004030000000  0.5162850000000 1.0
C      1  0.4051860000000  0.5168640000000  0.4369750000000 1.0
C      1  0.5603600000000  0.5452280000000  0.4300240000000 1.0
C      1  0.5666390000000  0.5642320000000  0.5484010000000 1.0
C      1  0.4483060000000  0.5805910000000  0.4593600000000 1.0
C      1  0.4286930000000  0.5265600000000  0.5818070000000 1.0
C      1  0.4684530000000  0.5091240000000  0.4541740000000 1.0
C      1  0.4523260000000  0.5443610000000  0.5987830000000 1.0
C      1  0.4010790000000  0.4553220000000  0.5162290000000 1.0
C      1  0.5486900000000  0.4608980000000  0.5790140000000 1.0
C      1  0.4756070000000  0.3969750000000  0.5436630000000 1.0
C      1  0.5116270000000  0.5660110000000  0.4024590000000 1.0
C      1  0.5559080000000  0.4771060000000  0.4443070000000 1.0
C      1  0.4704520000000  0.5103250000000  0.5033350000000 1.0
C      1  0.4494960000000  0.5110490000000  0.6049780000000 1.0
C      1  0.5240270000000  0.5062460000000  0.4707050000000 1.0
C      1  0.4195060000000  0.5279680000000  0.4657460000000 1.0
C      1  0.3981360000000  0.5607000000000  0.4867600000000 1.0
C      1  0.5674710000000  0.4846800000000  0.5944420000000 1.0
C      1  0.4620790000000  0.3702730000000  0.4915370000000 1.0
C      1  0.5476560000000  0.5641510000000  0.5678100000000 1.0
C      1  0.4386090000000  0.4398740000000  0.4476300000000 1.0
C      1  0.5233090000000  0.4892670000000  0.5669880000000 1.0
C      1  0.4277710000000  0.5623390000000  0.5033510000000 1.0
C      1  0.4953710000000  0.5197760000000  0.4398790000000 1.0
C      1  0.5570760000000  0.5507120000000  0.4634340000000 1.0
C      1  0.4314960000000  0.5298300000000  0.4940060000000 1.0
C      1  0.4458310000000  0.4455890000000  0.5544480000000 1.0
C      1  0.5266040000000  0.5020210000000  0.5168700000000 1.0
C      1  0.4484650000000  0.4464560000000  0.5205590000000 1.0
END
