TITL C-2848509-3138-622 0.00149932109400535 125000 -488.602191986855 0 0 90 (C1) n - 1
REM
REM in /home/bkarasulu/work/CARBON/AIRSS/Generating-Clusters/AIREBO/with-SteepDescent/Only-C1/SD-CG-opt/Try1-1.4A-POS3A/HFTN-CG
REM
REM
REM
REM
REM
REM ./C.cell (11c1c37f851c82e70ff6c80c92926a4b)
REM
REM compiler GCC version 9.2.1 20190827 (Red Hat 9.2.1-1)
REM options -cpp -mtune=generic -march=x86-64 -g -O0 -fpre-include=/usr/include/finclude/math-vector-fortran.h
REM seed 1248280061 2068730170 -373898538 -1149525053 -1582420631 1269235421 289875042 607283731 -93059177 -1526191522 1461656105 1762917203 -1951889863 -691084073 453432858 -1704232924 -608982780 -1696805383 -202093647 986026036 -834150549 1650312862 1027438223 -1734547144 1684778187 1545204745 1809614146 -72712340 -1017033520 1951923706 -1148526021 -1942423834 335712239
REM
CELL 1.54180   50.00000   50.00000   50.00000   90.00000   90.00000   90.00000
LATT -1
SFAC C  
C      1  0.5362270000000  0.5137290000000  0.4383090000000 1.0
C      1  0.4513540000000  0.4810670000000  0.4813710000000 1.0
C      1  0.4854390000000  0.4991180000000  0.5824470000000 1.0
C      1  0.4620820000000  0.5666780000000  0.5491940000000 1.0
C      1  0.5378870000000  0.4977830000000  0.3838730000000 1.0
C      1  0.5643630000000  0.4785650000000  0.4824070000000 1.0
C      1  0.4977370000000  0.5454970000000  0.4822910000000 1.0
C      1  0.4845000000000  0.5179050000000  0.4971150000000 1.0
C      1  0.5819630000000  0.5288690000000  0.4591970000000 1.0
C      1  0.4898910000000  0.4277100000000  0.5127400000000 1.0
C      1  0.4253780000000  0.4641910000000  0.5380240000000 1.0
C      1  0.4921520000000  0.4471320000000  0.4591510000000 1.0
C      1  0.5088100000000  0.5587810000000  0.5337120000000 1.0
C      1  0.5255310000000  0.4853630000000  0.4540630000000 1.0
C      1  0.4820800000000  0.4843550000000  0.4919960000000 1.0
C      1  0.5173690000000  0.4470600000000  0.4775680000000 1.0
C      1  0.5459170000000  0.5420960000000  0.4222480000000 1.0
C      1  0.4655900000000  0.5101870000000  0.5663430000000 1.0
C      1  0.4882590000000  0.5737960000000  0.5556860000000 1.0
C      1  0.4826770000000  0.4301760000000  0.5511910000000 1.0
C      1  0.4807890000000  0.5669420000000  0.4461060000000 1.0
C      1  0.4330550000000  0.4793600000000  0.5085640000000 1.0
C      1  0.5026360000000  0.4972450000000  0.4236420000000 1.0
C      1  0.5449330000000  0.4933000000000  0.5414980000000 1.0
C      1  0.4667170000000  0.4722690000000  0.4523240000000 1.0
C      1  0.5491240000000  0.5042960000000  0.4902120000000 1.0
C      1  0.5374710000000  0.4935850000000  0.5806560000000 1.0
C      1  0.4950450000000  0.5796070000000  0.4811820000000 1.0
C      1  0.4404210000000  0.4401850000000  0.5099870000000 1.0
C      1  0.4719710000000  0.4498950000000  0.5704610000000 1.0
C      1  0.4706160000000  0.4547170000000  0.5041810000000 1.0
C      1  0.4613070000000  0.4233890000000  0.5270620000000 1.0
C      1  0.4387320000000  0.5349530000000  0.4534580000000 1.0
C      1  0.5620990000000  0.5341250000000  0.5134360000000 1.0
C      1  0.5664320000000  0.5007430000000  0.5183420000000 1.0
C      1  0.4879260000000  0.5353670000000  0.5452150000000 1.0
C      1  0.5102800000000  0.5130510000000  0.5467560000000 1.0
C      1  0.5429930000000  0.4414430000000  0.4631710000000 1.0
C      1  0.5102160000000  0.5217870000000  0.5151610000000 1.0
C      1  0.5148820000000  0.5329090000000  0.4565830000000 1.0
C      1  0.4360020000000  0.4758960000000  0.4095460000000 1.0
C      1  0.4569250000000  0.5543190000000  0.4672230000000 1.0
C      1  0.4510110000000  0.4850070000000  0.4283540000000 1.0
C      1  0.4127660000000  0.5272240000000  0.4714920000000 1.0
C      1  0.5346010000000  0.4474200000000  0.5541290000000 1.0
C      1  0.4605770000000  0.5153090000000  0.4370450000000 1.0
C      1  0.5305110000000  0.5469230000000  0.5118360000000 1.0
C      1  0.5274280000000  0.5627060000000  0.4211230000000 1.0
C      1  0.4434370000000  0.5031930000000  0.4627170000000 1.0
C      1  0.5552750000000  0.5370100000000  0.5466290000000 1.0
C      1  0.5227340000000  0.4496120000000  0.5100300000000 1.0
C      1  0.4902020000000  0.5644400000000  0.5086360000000 1.0
C      1  0.5546210000000  0.4529550000000  0.4996060000000 1.0
C      1  0.4602510000000  0.5642580000000  0.5192470000000 1.0
C      1  0.5135150000000  0.4798770000000  0.4856090000000 1.0
C      1  0.5341700000000  0.5236710000000  0.5651640000000 1.0
C      1  0.4374650000000  0.5309560000000  0.5160020000000 1.0
C      1  0.4141150000000  0.4535080000000  0.4972030000000 1.0
C      1  0.4143790000000  0.5152430000000  0.4963410000000 1.0
C      1  0.5484450000000  0.4644440000000  0.4486040000000 1.0
C      1  0.5699220000000  0.5381630000000  0.4813060000000 1.0
C      1  0.5136440000000  0.4308080000000  0.5368790000000 1.0
C      1  0.4687460000000  0.4390630000000  0.4743660000000 1.0
C      1  0.4603190000000  0.5414790000000  0.4952640000000 1.0
C      1  0.5275930000000  0.4952190000000  0.5122360000000 1.0
C      1  0.5028650000000  0.4678090000000  0.5272680000000 1.0
C      1  0.4422950000000  0.5024740000000  0.5252290000000 1.0
C      1  0.4017230000000  0.4857410000000  0.4985520000000 1.0
C      1  0.4902200000000  0.5186610000000  0.4379990000000 1.0
C      1  0.4734470000000  0.4673220000000  0.5346950000000 1.0
C      1  0.5690110000000  0.5078610000000  0.4452570000000 1.0
C      1  0.5155790000000  0.6016050000000  0.4811650000000 1.0
C      1  0.5374450000000  0.5324310000000  0.4820520000000 1.0
C      1  0.5100990000000  0.5125320000000  0.5866770000000 1.0
C      1  0.5654040000000  0.4841910000000  0.5675570000000 1.0
C      1  0.5691020000000  0.4675480000000  0.5229770000000 1.0
C      1  0.4609110000000  0.4946640000000  0.5428590000000 1.0
C      1  0.5164450000000  0.4825850000000  0.5484950000000 1.0
C      1  0.4475270000000  0.4584580000000  0.5529220000000 1.0
C      1  0.4545920000000  0.5346540000000  0.5454200000000 1.0
C      1  0.4888680000000  0.4705070000000  0.5803720000000 1.0
C      1  0.5057920000000  0.5595550000000  0.4390960000000 1.0
C      1  0.5612010000000  0.4578530000000  0.5492760000000 1.0
C      1  0.4978130000000  0.4724660000000  0.4411130000000 1.0
C      1  0.5624680000000  0.4272070000000  0.4797900000000 1.0
C      1  0.5269110000000  0.5014070000000  0.4080180000000 1.0
C      1  0.5193620000000  0.4654450000000  0.5764020000000 1.0
C      1  0.5903720000000  0.4911910000000  0.5820660000000 1.0
C      1  0.4666000000000  0.5869130000000  0.4670470000000 1.0
C      1  0.5724430000000  0.4809870000000  0.4541830000000 1.0
END
