TITL C-2848506-1665-427 -0.0022161653732449 125000 -212.609833203196 0 0 39 (C1) n - 1
REM
REM in /home/bkarasulu/work/CARBON/AIRSS/Generating-Clusters/AIREBO/with-SteepDescent/Only-C1/SD-CG-opt/Try1-1.4A-POS3A/HFTN-CG
REM
REM
REM
REM
REM
REM ./C.cell (11c1c37f851c82e70ff6c80c92926a4b)
REM
REM compiler GCC version 9.2.1 20190827 (Red Hat 9.2.1-1)
REM options -cpp -mtune=generic -march=x86-64 -g -O0 -fpre-include=/usr/include/finclude/math-vector-fortran.h
REM seed -2048531207 345638468 1856225410 -362062129 2059485833 -746951629 558365585 407455330 -563717712 -1852401203 -967698554 -1654770842 -1352586521 1614147614 -180630860 1609978684 1484180814 1908606217 47627073 -1449459880 1157792059 513955021 -391930754 702590814 -1559792357 -1993030106 -2134554769 2082955876 -276471210 -567141646 -429107397 1069913774 -130202407
REM
CELL 1.54180   50.00000   50.00000   50.00000   90.00000   90.00000   90.00000
LATT -1
SFAC C  
C      1  0.4601230000000  0.4581270000000  0.4967180000000 1.0
C      1  0.4889570000000  0.5352830000000  0.5333390000000 1.0
C      1  0.4616200000000  0.5032680000000  0.4572270000000 1.0
C      1  0.4602870000000  0.5189990000000  0.4873620000000 1.0
C      1  0.5396280000000  0.4938350000000  0.4990510000000 1.0
C      1  0.4658470000000  0.5483830000000  0.4711770000000 1.0
C      1  0.5246220000000  0.5061260000000  0.5483440000000 1.0
C      1  0.4809310000000  0.4543220000000  0.4718420000000 1.0
C      1  0.4993360000000  0.4623860000000  0.5028600000000 1.0
C      1  0.4801200000000  0.4856300000000  0.4963980000000 1.0
C      1  0.4605330000000  0.4365140000000  0.5184830000000 1.0
C      1  0.5309890000000  0.4848140000000  0.5306760000000 1.0
C      1  0.4522900000000  0.4978680000000  0.5514650000000 1.0
C      1  0.4878000000000  0.5417030000000  0.4541970000000 1.0
C      1  0.5221870000000  0.4941700000000  0.4451350000000 1.0
C      1  0.5272770000000  0.4647690000000  0.4946620000000 1.0
C      1  0.4795120000000  0.4925590000000  0.5575140000000 1.0
C      1  0.4471310000000  0.4893550000000  0.5012290000000 1.0
C      1  0.4949180000000  0.4933450000000  0.4377090000000 1.0
C      1  0.4972410000000  0.5138080000000  0.5505700000000 1.0
C      1  0.5381570000000  0.5441330000000  0.5112040000000 1.0
C      1  0.5363100000000  0.5458650000000  0.4817100000000 1.0
C      1  0.5506260000000  0.5174080000000  0.5184010000000 1.0
C      1  0.5720610000000  0.5144530000000  0.5330090000000 1.0
C      1  0.4649130000000  0.5313050000000  0.5187330000000 1.0
C      1  0.4753000000000  0.4753280000000  0.4527480000000 1.0
C      1  0.5056780000000  0.4368950000000  0.4651200000000 1.0
C      1  0.4792780000000  0.5204290000000  0.4362270000000 1.0
C      1  0.4885500000000  0.4480250000000  0.5280780000000 1.0
C      1  0.4935690000000  0.5122860000000  0.4892600000000 1.0
C      1  0.4476620000000  0.5085500000000  0.5257860000000 1.0
C      1  0.5304950000000  0.4460800000000  0.4746880000000 1.0
C      1  0.4904850000000  0.4667800000000  0.5551310000000 1.0
C      1  0.5354910000000  0.5076000000000  0.4710230000000 1.0
C      1  0.5580400000000  0.5323950000000  0.4652760000000 1.0
C      1  0.5178110000000  0.4615690000000  0.5382730000000 1.0
C      1  0.5095680000000  0.5526380000000  0.5275250000000 1.0
C      1  0.5340270000000  0.5719350000000  0.5304410000000 1.0
C      1  0.5106270000000  0.5310620000000  0.4714090000000 1.0
END
