TITL C-2848506-1665-603 0.000187637940708831 125000 -476.902295271542 0 0 86 (C1) n - 1
REM
REM in /home/bkarasulu/work/CARBON/AIRSS/Generating-Clusters/AIREBO/with-SteepDescent/Only-C1/SD-CG-opt/Try1-1.4A-POS3A/HFTN-CG
REM
REM
REM
REM
REM
REM ./C.cell (11c1c37f851c82e70ff6c80c92926a4b)
REM
REM compiler GCC version 9.2.1 20190827 (Red Hat 9.2.1-1)
REM options -cpp -mtune=generic -march=x86-64 -g -O0 -fpre-include=/usr/include/finclude/math-vector-fortran.h
REM seed -1374043733 -1982530048 -1764959496 -2096957457 880848251 976675072 1171877671 -206749033 1685542895 1413801996 1126289873 973889179 1582108274 297383478 392178356 -1907696362 866165792 -1908705990 -1665579228 -1823312289 -1022062765 198565926 1735558509 -741645038 400319885 -818112868 816177586 -1783532801 1684947487 -1865635764 2070767532 -777648862 1520001972
REM
CELL 1.54180   50.00000   50.00000   50.00000   90.00000   90.00000   90.00000
LATT -1
SFAC C  
C      1  0.5359180000000  0.4506440000000  0.5358730000000 1.0
C      1  0.5654830000000  0.4357470000000  0.5042420000000 1.0
C      1  0.4096440000000  0.5282960000000  0.5067150000000 1.0
C      1  0.4284650000000  0.4976070000000  0.5414600000000 1.0
C      1  0.5752790000000  0.4843520000000  0.5040880000000 1.0
C      1  0.4795180000000  0.4978090000000  0.5230700000000 1.0
C      1  0.5748450000000  0.5355530000000  0.5504860000000 1.0
C      1  0.4235380000000  0.5196450000000  0.4835240000000 1.0
C      1  0.5148940000000  0.5266420000000  0.5570920000000 1.0
C      1  0.4469380000000  0.4688940000000  0.4116180000000 1.0
C      1  0.5275090000000  0.5074830000000  0.4743670000000 1.0
C      1  0.4725630000000  0.5550020000000  0.5484310000000 1.0
C      1  0.4488620000000  0.4811540000000  0.4605490000000 1.0
C      1  0.4706440000000  0.5787180000000  0.4940360000000 1.0
C      1  0.4871000000000  0.5580790000000  0.4741730000000 1.0
C      1  0.5525180000000  0.5218830000000  0.4660480000000 1.0
C      1  0.5414560000000  0.4874520000000  0.5057400000000 1.0
C      1  0.5222170000000  0.4828110000000  0.4321130000000 1.0
C      1  0.5851150000000  0.5196120000000  0.4287580000000 1.0
C      1  0.4991600000000  0.5866240000000  0.4992040000000 1.0
C      1  0.4939430000000  0.4222120000000  0.4991230000000 1.0
C      1  0.5205740000000  0.5126070000000  0.5051300000000 1.0
C      1  0.4755360000000  0.4989030000000  0.4719630000000 1.0
C      1  0.4836050000000  0.4571620000000  0.4384940000000 1.0
C      1  0.4523750000000  0.5284040000000  0.5700640000000 1.0
C      1  0.5382680000000  0.5141310000000  0.3693100000000 1.0
C      1  0.5280450000000  0.5579500000000  0.5512440000000 1.0
C      1  0.5374490000000  0.4859950000000  0.5771140000000 1.0
C      1  0.5132790000000  0.4722650000000  0.5803000000000 1.0
C      1  0.5599310000000  0.5138160000000  0.4379960000000 1.0
C      1  0.4196260000000  0.5248060000000  0.5330020000000 1.0
C      1  0.5381210000000  0.4217110000000  0.4643870000000 1.0
C      1  0.5129280000000  0.4321980000000  0.4493010000000 1.0
C      1  0.4684450000000  0.4540560000000  0.4668950000000 1.0
C      1  0.5442670000000  0.4351500000000  0.4870800000000 1.0
C      1  0.5717840000000  0.5231370000000  0.5216030000000 1.0
C      1  0.5384480000000  0.5143050000000  0.5782850000000 1.0
C      1  0.4344180000000  0.4798240000000  0.4335560000000 1.0
C      1  0.4914670000000  0.5493330000000  0.5289400000000 1.0
C      1  0.5317530000000  0.4743680000000  0.4775510000000 1.0
C      1  0.4427910000000  0.5350480000000  0.4694180000000 1.0
C      1  0.4546200000000  0.4438260000000  0.5306600000000 1.0
C      1  0.4723880000000  0.5292380000000  0.4851150000000 1.0
C      1  0.5187210000000  0.4535700000000  0.4999170000000 1.0
C      1  0.4883530000000  0.5734320000000  0.4254180000000 1.0
C      1  0.5520430000000  0.5384460000000  0.5651090000000 1.0
C      1  0.5523820000000  0.4739070000000  0.5541490000000 1.0
C      1  0.5744460000000  0.5132430000000  0.4890000000000 1.0
C      1  0.4881140000000  0.4285010000000  0.4724010000000 1.0
C      1  0.5213290000000  0.4553680000000  0.4258490000000 1.0
C      1  0.4505640000000  0.5357170000000  0.5103900000000 1.0
C      1  0.5221570000000  0.4970420000000  0.5418600000000 1.0
C      1  0.4945050000000  0.4463590000000  0.5309110000000 1.0
C      1  0.4354290000000  0.4768060000000  0.5585060000000 1.0
C      1  0.4564980000000  0.4581500000000  0.5550210000000 1.0
C      1  0.4460140000000  0.4589860000000  0.5084630000000 1.0
C      1  0.4839850000000  0.4666650000000  0.5637010000000 1.0
C      1  0.4841250000000  0.5216470000000  0.5690890000000 1.0
C      1  0.5112620000000  0.4469200000000  0.5589910000000 1.0
C      1  0.5073120000000  0.4616640000000  0.4624520000000 1.0
C      1  0.5218160000000  0.4251430000000  0.5183180000000 1.0
C      1  0.5384170000000  0.5091880000000  0.3950480000000 1.0
C      1  0.4479970000000  0.5029760000000  0.5151990000000 1.0
C      1  0.5655910000000  0.4603460000000  0.5223650000000 1.0
C      1  0.5278370000000  0.5333710000000  0.5263610000000 1.0
C      1  0.4815910000000  0.5547880000000  0.5762700000000 1.0
C      1  0.4753840000000  0.5611100000000  0.4459410000000 1.0
C      1  0.4693230000000  0.4729770000000  0.4934340000000 1.0
C      1  0.5541680000000  0.4992930000000  0.5341180000000 1.0
C      1  0.4489660000000  0.5502800000000  0.4462710000000 1.0
C      1  0.4191780000000  0.4638060000000  0.4984760000000 1.0
C      1  0.4480290000000  0.5681000000000  0.5043430000000 1.0
C      1  0.4941340000000  0.4707260000000  0.5114630000000 1.0
C      1  0.5468830000000  0.5534080000000  0.4701000000000 1.0
C      1  0.5138340000000  0.5705670000000  0.5230390000000 1.0
C      1  0.4737510000000  0.4222280000000  0.5228730000000 1.0
C      1  0.5192360000000  0.5642590000000  0.4834550000000 1.0
C      1  0.5404490000000  0.5564360000000  0.5088730000000 1.0
C      1  0.4919790000000  0.5242890000000  0.5112000000000 1.0
C      1  0.5675090000000  0.5454040000000  0.4962630000000 1.0
C      1  0.4428700000000  0.5444370000000  0.5423460000000 1.0
C      1  0.4906980000000  0.4952070000000  0.5526320000000 1.0
C      1  0.5403220000000  0.5019170000000  0.4217640000000 1.0
C      1  0.5028450000000  0.4936870000000  0.4579110000000 1.0
C      1  0.4338370000000  0.4903980000000  0.4869620000000 1.0
C      1  0.4703900000000  0.4547910000000  0.4156270000000 1.0
END
