TITL C-2848497-6229-689 -0.000364992035046953 125000 -587.975564241287 0 0 106 (C1) n - 1
REM
REM in /home/bkarasulu/work/CARBON/AIRSS/Generating-Clusters/AIREBO/with-SteepDescent/Only-C1/SD-CG-opt/Try1-1.4A-POS3A/HFTN-CG
REM
REM
REM
REM
REM
REM ./C.cell (11c1c37f851c82e70ff6c80c92926a4b)
REM
REM compiler GCC version 9.2.1 20190827 (Red Hat 9.2.1-1)
REM options -cpp -mtune=generic -march=x86-64 -g -O0 -fpre-include=/usr/include/finclude/math-vector-fortran.h
REM seed 227683216 585057852 -687249018 1877951611 2108621607 -401316409 1946624026 -548022622 -719766505 902259910 1902619964 544259382 1480941466 -1578440054 1727985796 -193925712 1996421015 -1828499727 1499854491 2073997218 -1996305948 -320725085 787789904 -1631901442 935677260 -1529435181 284314364 -158886822 -674843274 -445118661 1091403663 343232157 294198632
REM
CELL 1.54180   50.00000   50.00000   50.00000   90.00000   90.00000   90.00000
LATT -1
SFAC C  
C      1  0.4644530000000  0.4045680000000  0.5108900000000 1.0
C      1  0.5143660000000  0.5642340000000  0.4376240000000 1.0
C      1  0.4958390000000  0.4855630000000  0.4151920000000 1.0
C      1  0.4240130000000  0.5074680000000  0.5473860000000 1.0
C      1  0.5012000000000  0.4187600000000  0.5411410000000 1.0
C      1  0.4692000000000  0.4817090000000  0.5365510000000 1.0
C      1  0.5790840000000  0.5485730000000  0.5086360000000 1.0
C      1  0.5112310000000  0.5578160000000  0.5681810000000 1.0
C      1  0.5631070000000  0.5044180000000  0.4611800000000 1.0
C      1  0.5083980000000  0.4473490000000  0.4466730000000 1.0
C      1  0.5519280000000  0.4360280000000  0.5171370000000 1.0
C      1  0.5574470000000  0.4761580000000  0.5594420000000 1.0
C      1  0.5400970000000  0.4063630000000  0.5078590000000 1.0
C      1  0.4748960000000  0.4951610000000  0.4317470000000 1.0
C      1  0.5067540000000  0.4920490000000  0.5143280000000 1.0
C      1  0.5625000000000  0.4588680000000  0.4705160000000 1.0
C      1  0.4648400000000  0.4837290000000  0.5767790000000 1.0
C      1  0.5753400000000  0.4838670000000  0.4768540000000 1.0
C      1  0.5791350000000  0.5534400000000  0.4814020000000 1.0
C      1  0.5505390000000  0.4901200000000  0.5291970000000 1.0
C      1  0.5289380000000  0.4832090000000  0.4966340000000 1.0
C      1  0.4865240000000  0.5524520000000  0.4531900000000 1.0
C      1  0.4718860000000  0.5225030000000  0.4304100000000 1.0
C      1  0.4560860000000  0.5408990000000  0.4508830000000 1.0
C      1  0.4189630000000  0.5386340000000  0.4773160000000 1.0
C      1  0.5415200000000  0.4523500000000  0.4925330000000 1.0
C      1  0.5267820000000  0.5073940000000  0.5797710000000 1.0
C      1  0.4171350000000  0.4905160000000  0.4595190000000 1.0
C      1  0.5401350000000  0.5290160000000  0.4822070000000 1.0
C      1  0.4982770000000  0.4888420000000  0.5806710000000 1.0
C      1  0.5367510000000  0.5155110000000  0.4195140000000 1.0
C      1  0.5003080000000  0.4872990000000  0.5467600000000 1.0
C      1  0.4926860000000  0.4059110000000  0.5168460000000 1.0
C      1  0.4655310000000  0.4781700000000  0.4559680000000 1.0
C      1  0.4849220000000  0.4538830000000  0.5311660000000 1.0
C      1  0.4540510000000  0.4516430000000  0.4452280000000 1.0
C      1  0.4446300000000  0.5470380000000  0.5227820000000 1.0
C      1  0.4323650000000  0.5136390000000  0.4960770000000 1.0
C      1  0.4244400000000  0.4824540000000  0.5035990000000 1.0
C      1  0.4466580000000  0.5011650000000  0.4678560000000 1.0
C      1  0.5368880000000  0.5395920000000  0.3963550000000 1.0
C      1  0.4195130000000  0.5261220000000  0.5249740000000 1.0
C      1  0.4716400000000  0.5165030000000  0.5700920000000 1.0
C      1  0.4838280000000  0.4367650000000  0.5583260000000 1.0
C      1  0.5134570000000  0.5196920000000  0.4439360000000 1.0
C      1  0.5045820000000  0.5238260000000  0.5093290000000 1.0
C      1  0.5573470000000  0.4523530000000  0.4431090000000 1.0
C      1  0.5331620000000  0.4601980000000  0.4293960000000 1.0
C      1  0.5503980000000  0.5058750000000  0.4990560000000 1.0
C      1  0.5696210000000  0.4620080000000  0.5244440000000 1.0
C      1  0.4836510000000  0.5787240000000  0.5289320000000 1.0
C      1  0.5295240000000  0.4286440000000  0.5392340000000 1.0
C      1  0.4587450000000  0.4525280000000  0.5117060000000 1.0
C      1  0.4474610000000  0.4248480000000  0.5036890000000 1.0
C      1  0.4628010000000  0.5218140000000  0.5088370000000 1.0
C      1  0.5243280000000  0.4849760000000  0.4185140000000 1.0
C      1  0.5314990000000  0.5182210000000  0.5315800000000 1.0
C      1  0.4797540000000  0.4937120000000  0.4998970000000 1.0
C      1  0.5239210000000  0.5677120000000  0.5021770000000 1.0
C      1  0.4962290000000  0.5335740000000  0.4196120000000 1.0
C      1  0.4211000000000  0.4674020000000  0.4790600000000 1.0
C      1  0.5078720000000  0.4512830000000  0.4861730000000 1.0
C      1  0.4863290000000  0.5714000000000  0.5614240000000 1.0
C      1  0.5151690000000  0.4567210000000  0.5435520000000 1.0
C      1  0.5138450000000  0.5529770000000  0.4060500000000 1.0
C      1  0.4764040000000  0.4641280000000  0.4850650000000 1.0
C      1  0.5345000000000  0.4595600000000  0.5681000000000 1.0
C      1  0.5511180000000  0.5055420000000  0.5659790000000 1.0
C      1  0.4868560000000  0.4143690000000  0.4529420000000 1.0
C      1  0.4706010000000  0.5414930000000  0.4816270000000 1.0
C      1  0.5855460000000  0.4595100000000  0.5541150000000 1.0
C      1  0.5141150000000  0.4054930000000  0.4976020000000 1.0
C      1  0.4804240000000  0.5852660000000  0.4745920000000 1.0
C      1  0.5345450000000  0.4989010000000  0.4557380000000 1.0
C      1  0.4541940000000  0.5767750000000  0.5139130000000 1.0
C      1  0.5601710000000  0.5382720000000  0.4599420000000 1.0
C      1  0.5205230000000  0.4680280000000  0.5907260000000 1.0
C      1  0.5302940000000  0.5641890000000  0.5479940000000 1.0
C      1  0.4751930000000  0.4519000000000  0.5790010000000 1.0
C      1  0.4995320000000  0.5901030000000  0.4524900000000 1.0
C      1  0.4382130000000  0.4721450000000  0.5283380000000 1.0
C      1  0.4725660000000  0.4321390000000  0.4741660000000 1.0
C      1  0.4777980000000  0.4380870000000  0.4350670000000 1.0
C      1  0.5395970000000  0.5429020000000  0.5096290000000 1.0
C      1  0.5766880000000  0.5171580000000  0.5174520000000 1.0
C      1  0.5052490000000  0.5208680000000  0.5489610000000 1.0
C      1  0.5839320000000  0.4862280000000  0.5052670000000 1.0
C      1  0.5580740000000  0.5489530000000  0.5354190000000 1.0
C      1  0.4547770000000  0.5788620000000  0.4841870000000 1.0
C      1  0.5046600000000  0.5619200000000  0.4803480000000 1.0
C      1  0.5017640000000  0.5286630000000  0.5801620000000 1.0
C      1  0.5162520000000  0.5783150000000  0.5268040000000 1.0
C      1  0.5424320000000  0.5451500000000  0.4353150000000 1.0
C      1  0.4566760000000  0.5101820000000  0.5402130000000 1.0
C      1  0.5213680000000  0.4728680000000  0.4651380000000 1.0
C      1  0.4656050000000  0.5480350000000  0.5495150000000 1.0
C      1  0.5668210000000  0.5221960000000  0.5498590000000 1.0
C      1  0.4485630000000  0.5774050000000  0.5476960000000 1.0
C      1  0.4039890000000  0.5170200000000  0.4618570000000 1.0
C      1  0.4375110000000  0.4818840000000  0.5607860000000 1.0
C      1  0.4397500000000  0.4410620000000  0.4745210000000 1.0
C      1  0.4785630000000  0.5114260000000  0.4736120000000 1.0
C      1  0.4929520000000  0.5460680000000  0.5302870000000 1.0
C      1  0.4375880000000  0.5601040000000  0.4696550000000 1.0
C      1  0.5079650000000  0.5283020000000  0.4763710000000 1.0
C      1  0.5110090000000  0.4222820000000  0.4724530000000 1.0
END
