TITL C-2848507-1641-6 0.00286936949889794 125000 -496.227783909015 0 0 92 (C1) n - 1
REM
REM in /home/bkarasulu/work/CARBON/AIRSS/Generating-Clusters/AIREBO/with-SteepDescent/Only-C1/SD-CG-opt/Try1-1.4A-POS3A/HFTN-CG
REM
REM
REM
REM
REM
REM ./C.cell (11c1c37f851c82e70ff6c80c92926a4b)
REM
REM compiler GCC version 9.2.1 20190827 (Red Hat 9.2.1-1)
REM options -cpp -mtune=generic -march=x86-64 -g -O0 -fpre-include=/usr/include/finclude/math-vector-fortran.h
REM seed 320732260 -290709924 991067236 1828257518 576467245 -168877041 916641026 -911310865 163969759 -384758362 961428959 557940447 13649147 -740706728 1705974909 523119125 1319044319 1535450091 1741874806 -1219585387 -1295298401 -1506254109 1092286435 1553789519 1810340218 -113657228 1157313581 -1717500053 1090308433 2101278182 -732697310 72531399 -2099301799
REM
CELL 1.54180   50.00000   50.00000   50.00000   90.00000   90.00000   90.00000
LATT -1
SFAC C  
C      1  0.5285250000000  0.5361080000000  0.5659660000000 1.0
C      1  0.5180410000000  0.5001900000000  0.4072980000000 1.0
C      1  0.5054590000000  0.4342920000000  0.4682250000000 1.0
C      1  0.5372420000000  0.4741050000000  0.5759430000000 1.0
C      1  0.4727150000000  0.5209330000000  0.4393290000000 1.0
C      1  0.4752940000000  0.5666430000000  0.4463250000000 1.0
C      1  0.4495060000000  0.5260880000000  0.5938180000000 1.0
C      1  0.5064410000000  0.4233800000000  0.5531730000000 1.0
C      1  0.4228120000000  0.5422820000000  0.5523950000000 1.0
C      1  0.4914260000000  0.5316240000000  0.5344430000000 1.0
C      1  0.4842780000000  0.4828910000000  0.4374750000000 1.0
C      1  0.4605020000000  0.4562120000000  0.4670850000000 1.0
C      1  0.5748040000000  0.4336920000000  0.5174480000000 1.0
C      1  0.5191860000000  0.5083540000000  0.4833910000000 1.0
C      1  0.4901680000000  0.4715910000000  0.5571980000000 1.0
C      1  0.4690760000000  0.5068810000000  0.3895320000000 1.0
C      1  0.4418150000000  0.4577530000000  0.5168710000000 1.0
C      1  0.4160610000000  0.4723540000000  0.4788820000000 1.0
C      1  0.4199080000000  0.4757920000000  0.5069900000000 1.0
C      1  0.5656180000000  0.4950770000000  0.5414000000000 1.0
C      1  0.4399190000000  0.4794840000000  0.4648160000000 1.0
C      1  0.5338840000000  0.5623430000000  0.5460430000000 1.0
C      1  0.5120350000000  0.4869790000000  0.5756930000000 1.0
C      1  0.5377630000000  0.5325110000000  0.5334460000000 1.0
C      1  0.5454070000000  0.5511240000000  0.4721220000000 1.0
C      1  0.5487550000000  0.4466180000000  0.5335810000000 1.0
C      1  0.4690990000000  0.4585660000000  0.4970640000000 1.0
C      1  0.4560880000000  0.5679710000000  0.4959650000000 1.0
C      1  0.5498380000000  0.4826680000000  0.4900940000000 1.0
C      1  0.4958860000000  0.4673970000000  0.4129610000000 1.0
C      1  0.4668820000000  0.4893180000000  0.5676470000000 1.0
C      1  0.5384700000000  0.5252260000000  0.4173890000000 1.0
C      1  0.5496010000000  0.5317210000000  0.4488550000000 1.0
C      1  0.5443660000000  0.5750160000000  0.4955430000000 1.0
C      1  0.5140470000000  0.5171500000000  0.4396260000000 1.0
C      1  0.4882160000000  0.5617820000000  0.5413800000000 1.0
C      1  0.4208190000000  0.5603320000000  0.5317880000000 1.0
C      1  0.5749450000000  0.4628570000000  0.4507970000000 1.0
C      1  0.5069340000000  0.5646660000000  0.4545550000000 1.0
C      1  0.4960120000000  0.5903270000000  0.4706810000000 1.0
C      1  0.5530280000000  0.4651250000000  0.5960490000000 1.0
C      1  0.5436650000000  0.4737590000000  0.5455910000000 1.0
C      1  0.5103730000000  0.4524160000000  0.4957700000000 1.0
C      1  0.5757780000000  0.4877310000000  0.4605210000000 1.0
C      1  0.4512780000000  0.5378170000000  0.4809420000000 1.0
C      1  0.5302740000000  0.4255780000000  0.5464440000000 1.0
C      1  0.4651490000000  0.5029800000000  0.5964190000000 1.0
C      1  0.5129750000000  0.5790390000000  0.5050630000000 1.0
C      1  0.4816570000000  0.4433630000000  0.5473110000000 1.0
C      1  0.5269820000000  0.4703430000000  0.4131620000000 1.0
C      1  0.5097470000000  0.5126570000000  0.5539620000000 1.0
C      1  0.5439020000000  0.4527300000000  0.5014040000000 1.0
C      1  0.5186640000000  0.4643490000000  0.4455810000000 1.0
C      1  0.4932750000000  0.5054400000000  0.4615460000000 1.0
C      1  0.4655620000000  0.5155850000000  0.5496660000000 1.0
C      1  0.5551310000000  0.4383710000000  0.4608240000000 1.0
C      1  0.4194610000000  0.5034410000000  0.5138690000000 1.0
C      1  0.4850660000000  0.5056360000000  0.4122080000000 1.0
C      1  0.4493760000000  0.5046330000000  0.4725040000000 1.0
C      1  0.4274480000000  0.5273420000000  0.5028280000000 1.0
C      1  0.4440250000000  0.5310870000000  0.5663140000000 1.0
C      1  0.5117130000000  0.5752050000000  0.5348400000000 1.0
C      1  0.5349550000000  0.4151060000000  0.4274360000000 1.0
C      1  0.5671770000000  0.4315010000000  0.4885250000000 1.0
C      1  0.5681230000000  0.5506220000000  0.4953060000000 1.0
C      1  0.4511160000000  0.4503800000000  0.5459980000000 1.0
C      1  0.5274140000000  0.4229120000000  0.4559430000000 1.0
C      1  0.4936830000000  0.4793860000000  0.5080230000000 1.0
C      1  0.5774450000000  0.5025190000000  0.4891840000000 1.0
C      1  0.5126080000000  0.4838740000000  0.5359880000000 1.0
C      1  0.5443030000000  0.4479330000000  0.4300400000000 1.0
C      1  0.5470220000000  0.5054880000000  0.4640780000000 1.0
C      1  0.5216520000000  0.4759730000000  0.4733160000000 1.0
C      1  0.4439400000000  0.4693960000000  0.5654510000000 1.0
C      1  0.5157950000000  0.5288120000000  0.5104220000000 1.0
C      1  0.5281170000000  0.5417940000000  0.5951410000000 1.0
C      1  0.4868050000000  0.4538380000000  0.4512680000000 1.0
C      1  0.4937110000000  0.4340470000000  0.5168980000000 1.0
C      1  0.4612150000000  0.4298410000000  0.5134580000000 1.0
C      1  0.4445140000000  0.5710020000000  0.5212050000000 1.0
C      1  0.4606660000000  0.5439440000000  0.4497280000000 1.0
C      1  0.4199730000000  0.4720540000000  0.5781070000000 1.0
C      1  0.4772220000000  0.5041160000000  0.4915020000000 1.0
C      1  0.4642900000000  0.5759740000000  0.5407970000000 1.0
C      1  0.4605280000000  0.5116670000000  0.5189020000000 1.0
C      1  0.5138450000000  0.5514960000000  0.4851440000000 1.0
C      1  0.5631700000000  0.5188650000000  0.5293960000000 1.0
C      1  0.4450110000000  0.4298600000000  0.4616830000000 1.0
C      1  0.4847600000000  0.5369030000000  0.4866800000000 1.0
C      1  0.5751610000000  0.5252300000000  0.5052450000000 1.0
C      1  0.5225830000000  0.5491980000000  0.4357350000000 1.0
C      1  0.4808230000000  0.5813450000000  0.4933490000000 1.0
END
