TITL C-2848496-4490-440 -0.000385003032764594 125000 -451.278803898495 0 0 80 (C1) n - 1
REM
REM in /home/bkarasulu/work/CARBON/AIRSS/Generating-Clusters/AIREBO/with-SteepDescent/Only-C1/SD-CG-opt/Try1-1.4A-POS3A/HFTN-CG
REM
REM
REM
REM
REM
REM ./C.cell (11c1c37f851c82e70ff6c80c92926a4b)
REM
REM compiler GCC version 9.2.1 20190827 (Red Hat 9.2.1-1)
REM options -cpp -mtune=generic -march=x86-64 -g -O0 -fpre-include=/usr/include/finclude/math-vector-fortran.h
REM seed -369062677 -217653605 748411676 -1993224028 -395262266 -2039438520 2130029128 -1861458525 -1980666165 759104089 408800185 -143174099 1179497133 1562925614 556698003 -591225102 -1589434417 309824841 553160861 -634638536 -507945658 1281594872 316654520 328071315 1803254630 -1156721814 -825335217 -1592963905 -1218506829 294234947 -294583873 1249661354 -303210071
REM
CELL 1.54180   50.00000   50.00000   50.00000   90.00000   90.00000   90.00000
LATT -1
SFAC C  
C      1  0.4250740000000  0.4979930000000  0.5220200000000 1.0
C      1  0.4925050000000  0.4397240000000  0.5225280000000 1.0
C      1  0.5036350000000  0.5201370000000  0.5121220000000 1.0
C      1  0.4482560000000  0.5650050000000  0.5033040000000 1.0
C      1  0.5061380000000  0.4401260000000  0.5718690000000 1.0
C      1  0.4490670000000  0.4575640000000  0.5264580000000 1.0
C      1  0.5566760000000  0.5510770000000  0.5305690000000 1.0
C      1  0.4188750000000  0.4589630000000  0.4902420000000 1.0
C      1  0.5427130000000  0.4670400000000  0.4280060000000 1.0
C      1  0.5576190000000  0.4722960000000  0.5042120000000 1.0
C      1  0.4993760000000  0.4720010000000  0.5778170000000 1.0
C      1  0.4712940000000  0.5870350000000  0.4994000000000 1.0
C      1  0.4804230000000  0.5057110000000  0.4296630000000 1.0
C      1  0.4674530000000  0.5239980000000  0.5279530000000 1.0
C      1  0.4896730000000  0.4398430000000  0.4701160000000 1.0
C      1  0.5339980000000  0.5577030000000  0.4607650000000 1.0
C      1  0.4811900000000  0.5638850000000  0.4425520000000 1.0
C      1  0.5238800000000  0.4867480000000  0.4193110000000 1.0
C      1  0.5202610000000  0.5205650000000  0.5681590000000 1.0
C      1  0.5296240000000  0.5013740000000  0.4560840000000 1.0
C      1  0.5096160000000  0.4114210000000  0.5184210000000 1.0
C      1  0.4658280000000  0.5635780000000  0.5312020000000 1.0
C      1  0.5440990000000  0.4324830000000  0.4782380000000 1.0
C      1  0.4484850000000  0.4810440000000  0.4557070000000 1.0
C      1  0.4724270000000  0.4767650000000  0.5108640000000 1.0
C      1  0.4614850000000  0.5182040000000  0.5606270000000 1.0
C      1  0.4356770000000  0.5089330000000  0.5467840000000 1.0
C      1  0.5027090000000  0.4886280000000  0.4993670000000 1.0
C      1  0.5138120000000  0.4641540000000  0.5328600000000 1.0
C      1  0.5005460000000  0.5447330000000  0.4905780000000 1.0
C      1  0.4226590000000  0.5561040000000  0.4871200000000 1.0
C      1  0.5483610000000  0.4729680000000  0.4559280000000 1.0
C      1  0.4600190000000  0.5337150000000  0.4965510000000 1.0
C      1  0.5467590000000  0.4153600000000  0.5039080000000 1.0
C      1  0.4930870000000  0.5346690000000  0.4372560000000 1.0
C      1  0.4263130000000  0.5309660000000  0.4753660000000 1.0
C      1  0.5312870000000  0.5814990000000  0.5020910000000 1.0
C      1  0.5281280000000  0.5426160000000  0.5458620000000 1.0
C      1  0.4238800000000  0.4699790000000  0.5164450000000 1.0
C      1  0.4556250000000  0.4894530000000  0.4866020000000 1.0
C      1  0.4930050000000  0.4615760000000  0.4498680000000 1.0
C      1  0.4846720000000  0.4814180000000  0.4731570000000 1.0
C      1  0.5627570000000  0.5482310000000  0.5040860000000 1.0
C      1  0.5122850000000  0.4291400000000  0.4894650000000 1.0
C      1  0.5312960000000  0.4438760000000  0.5141170000000 1.0
C      1  0.5170310000000  0.5687950000000  0.5299960000000 1.0
C      1  0.4413300000000  0.4553300000000  0.4718610000000 1.0
C      1  0.4546390000000  0.5035400000000  0.4402960000000 1.0
C      1  0.5467520000000  0.5634670000000  0.4864260000000 1.0
C      1  0.5813000000000  0.5107010000000  0.4659160000000 1.0
C      1  0.4656510000000  0.4376510000000  0.5101070000000 1.0
C      1  0.4540200000000  0.4597780000000  0.5566460000000 1.0
C      1  0.4360590000000  0.5104200000000  0.4971540000000 1.0
C      1  0.5282590000000  0.4720710000000  0.5626240000000 1.0
C      1  0.5506030000000  0.5061230000000  0.4779880000000 1.0
C      1  0.5644390000000  0.5039860000000  0.5467030000000 1.0
C      1  0.5548330000000  0.4578950000000  0.4774210000000 1.0
C      1  0.5116790000000  0.4978940000000  0.5365750000000 1.0
C      1  0.5724970000000  0.4984880000000  0.5170670000000 1.0
C      1  0.4999110000000  0.5070290000000  0.4645570000000 1.0
C      1  0.5076300000000  0.4271410000000  0.5485490000000 1.0
C      1  0.5234180000000  0.5372520000000  0.4395840000000 1.0
C      1  0.4782840000000  0.5330740000000  0.4678500000000 1.0
C      1  0.5034210000000  0.5637070000000  0.4625630000000 1.0
C      1  0.4805590000000  0.4957640000000  0.5339550000000 1.0
C      1  0.4473860000000  0.5309740000000  0.4537670000000 1.0
C      1  0.5347240000000  0.4960320000000  0.5041790000000 1.0
C      1  0.5387530000000  0.5153330000000  0.5299960000000 1.0
C      1  0.4540490000000  0.5606770000000  0.4430800000000 1.0
C      1  0.4729240000000  0.4802310000000  0.5614450000000 1.0
C      1  0.5587050000000  0.4520170000000  0.5291670000000 1.0
C      1  0.5408250000000  0.4997930000000  0.5666080000000 1.0
C      1  0.4641390000000  0.4404310000000  0.4823360000000 1.0
C      1  0.4920870000000  0.5473520000000  0.5294580000000 1.0
C      1  0.5353990000000  0.5143620000000  0.4256550000000 1.0
C      1  0.5551310000000  0.4556520000000  0.5562460000000 1.0
C      1  0.4917590000000  0.5067110000000  0.5714540000000 1.0
C      1  0.5731250000000  0.5220640000000  0.4963760000000 1.0
C      1  0.4970810000000  0.4825930000000  0.4289010000000 1.0
C      1  0.4990510000000  0.5753680000000  0.5018710000000 1.0
END
