TITL C-2847957-7266-743 -0.00012842105500668 125000 -419.565956268206 0 0 75 (C1) n - 1
REM
REM in /home/bkarasulu/work/CARBON/AIRSS/Generating-Clusters/AIREBO/with-SteepDescent/Only-C1/SD-CG-opt/Try1-1.4A-POS3A/HFTN-CG
REM
REM
REM
REM
REM
REM ./C.cell (11c1c37f851c82e70ff6c80c92926a4b)
REM
REM compiler GCC version 9.2.1 20190827 (Red Hat 9.2.1-1)
REM options -cpp -mtune=generic -march=x86-64 -g -O0 -fpre-include=/usr/include/finclude/math-vector-fortran.h
REM seed 115922467 -462365701 -1203974594 616783019 -1354878256 1093943499 -1520395175 47758855 1234420610 345239748 -531891783 62278687 -956031011 -1558876485 -2068986909 622632650 -1858886800 702740303 707031683 -1405738110 -1016782907 -31837782 97199510 -1851564947 742963028 1437648545 1652220917 1805341657 1985318636 779226572 -758083284 1665539974 2029874420
REM
CELL 1.54180   50.00000   50.00000   50.00000   90.00000   90.00000   90.00000
LATT -1
SFAC C  
C      1  0.4406950000000  0.5407710000000  0.5507860000000 1.0
C      1  0.5682740000000  0.4679460000000  0.5441340000000 1.0
C      1  0.5897110000000  0.4896760000000  0.5073820000000 1.0
C      1  0.5203930000000  0.4400490000000  0.5336030000000 1.0
C      1  0.4974950000000  0.5085430000000  0.4303930000000 1.0
C      1  0.5681030000000  0.5491800000000  0.5104460000000 1.0
C      1  0.4577820000000  0.4732240000000  0.5364310000000 1.0
C      1  0.4598720000000  0.5924500000000  0.5242740000000 1.0
C      1  0.5332560000000  0.5241620000000  0.5549780000000 1.0
C      1  0.4812340000000  0.4358120000000  0.5040710000000 1.0
C      1  0.4241710000000  0.4684460000000  0.5734890000000 1.0
C      1  0.5048470000000  0.5423990000000  0.4922580000000 1.0
C      1  0.4947530000000  0.5470650000000  0.4601170000000 1.0
C      1  0.4701040000000  0.4212710000000  0.4795290000000 1.0
C      1  0.4405970000000  0.5348240000000  0.4838190000000 1.0
C      1  0.5192990000000  0.4526470000000  0.4680080000000 1.0
C      1  0.4485460000000  0.4769850000000  0.5648210000000 1.0
C      1  0.4626590000000  0.5141280000000  0.4989080000000 1.0
C      1  0.6131780000000  0.4558270000000  0.5318770000000 1.0
C      1  0.5360400000000  0.4619530000000  0.4472320000000 1.0
C      1  0.5066430000000  0.5236310000000  0.5634040000000 1.0
C      1  0.5071560000000  0.4980630000000  0.4749710000000 1.0
C      1  0.5544910000000  0.5640410000000  0.5323620000000 1.0
C      1  0.4319400000000  0.4958800000000  0.4490890000000 1.0
C      1  0.5457920000000  0.4885090000000  0.4462830000000 1.0
C      1  0.5362440000000  0.5173600000000  0.5290300000000 1.0
C      1  0.4955460000000  0.4860650000000  0.5288210000000 1.0
C      1  0.4312940000000  0.5030770000000  0.4918260000000 1.0
C      1  0.5362240000000  0.5386810000000  0.5049620000000 1.0
C      1  0.4165230000000  0.5189690000000  0.4656440000000 1.0
C      1  0.5291370000000  0.4368420000000  0.4885560000000 1.0
C      1  0.4732570000000  0.4332190000000  0.4553060000000 1.0
C      1  0.4307280000000  0.4718200000000  0.4607890000000 1.0
C      1  0.4771450000000  0.4488450000000  0.4253490000000 1.0
C      1  0.5682520000000  0.4709370000000  0.5713200000000 1.0
C      1  0.4579720000000  0.5079980000000  0.4344640000000 1.0
C      1  0.5910910000000  0.4707280000000  0.5276750000000 1.0
C      1  0.5824030000000  0.5077320000000  0.4839070000000 1.0
C      1  0.4068180000000  0.4482550000000  0.4972700000000 1.0
C      1  0.4731610000000  0.4657520000000  0.4543290000000 1.0
C      1  0.5313110000000  0.4980790000000  0.4927860000000 1.0
C      1  0.5226700000000  0.5085100000000  0.4486390000000 1.0
C      1  0.5209150000000  0.5679090000000  0.4662310000000 1.0
C      1  0.4997340000000  0.5657180000000  0.5363570000000 1.0
C      1  0.4693200000000  0.4870830000000  0.5792640000000 1.0
C      1  0.4936390000000  0.5862750000000  0.4672850000000 1.0
C      1  0.4895320000000  0.5705880000000  0.4918920000000 1.0
C      1  0.4812750000000  0.5317930000000  0.4418400000000 1.0
C      1  0.4651950000000  0.5304390000000  0.5442220000000 1.0
C      1  0.5329180000000  0.5393780000000  0.4521290000000 1.0
C      1  0.4900730000000  0.5425570000000  0.5508200000000 1.0
C      1  0.4605300000000  0.3957780000000  0.4828580000000 1.0
C      1  0.4812110000000  0.5776430000000  0.5177050000000 1.0
C      1  0.5112460000000  0.4295200000000  0.5088830000000 1.0
C      1  0.5856060000000  0.5386720000000  0.4930420000000 1.0
C      1  0.4821290000000  0.6053060000000  0.4523310000000 1.0
C      1  0.4952120000000  0.4958900000000  0.5614420000000 1.0
C      1  0.5519890000000  0.4467780000000  0.5023040000000 1.0
C      1  0.5016320000000  0.4652740000000  0.5708910000000 1.0
C      1  0.4949020000000  0.4707530000000  0.4747390000000 1.0
C      1  0.5428810000000  0.4632540000000  0.5290530000000 1.0
C      1  0.4431180000000  0.5339320000000  0.4499190000000 1.0
C      1  0.5519080000000  0.5190680000000  0.4823490000000 1.0
C      1  0.4886140000000  0.5175110000000  0.4861270000000 1.0
C      1  0.4987390000000  0.4462950000000  0.5503600000000 1.0
C      1  0.4474550000000  0.4778330000000  0.5057090000000 1.0
C      1  0.4790220000000  0.4829410000000  0.4270370000000 1.0
C      1  0.4673280000000  0.5049830000000  0.5272670000000 1.0
C      1  0.5264220000000  0.5706980000000  0.5267650000000 1.0
C      1  0.5324870000000  0.5709970000000  0.4950320000000 1.0
C      1  0.4746160000000  0.4468550000000  0.5353420000000 1.0
C      1  0.4799140000000  0.4697310000000  0.5033920000000 1.0
C      1  0.5702550000000  0.4962430000000  0.4552680000000 1.0
C      1  0.5264230000000  0.4883120000000  0.5216370000000 1.0
C      1  0.4269510000000  0.4636420000000  0.4871700000000 1.0
END
