TITL C-2847955-7945-61 -175.23975239947 125000 -219.595836208649 0 0 40 (C1) n - 1
REM
REM in /home/bkarasulu/work/CARBON/AIRSS/Generating-Clusters/AIREBO/with-SteepDescent/Only-C1/SD-CG-opt/Try1-1.4A-POS3A/HFTN-CG
REM
REM
REM
REM
REM
REM ./C.cell (11c1c37f851c82e70ff6c80c92926a4b)
REM
REM compiler GCC version 9.2.1 20190827 (Red Hat 9.2.1-1)
REM options -cpp -mtune=generic -march=x86-64 -g -O0 -fpre-include=/usr/include/finclude/math-vector-fortran.h
REM seed 733417205 -1062387292 -1031041433 -142301786 -1960749673 -664147879 -1746513622 127906701 -293661122 -638791379 -266317886 1176924041 470428731 202799820 -809210466 1016782994 -1226504803 -919050891 -1677945477 569975873 -450992000 -272839325 -768311218 -1106607331 -2022987946 -241889568 271071047 881387082 222062812 1284145608 -755075794 259529616 -915509384
REM
CELL 1.54180   50.00000   50.00000   50.00000   90.00000   90.00000   90.00000
LATT -1
SFAC C  
C      1  0.5303300000000  0.5305260000000  0.5548640000000 1.0
C      1  0.5071160000000  0.5170140000000  0.5151070000000 1.0
C      1  0.5366050000000  0.5356840000000  0.4780310000000 1.0
C      1  0.5074730000000  0.4405790000000  0.5065410000000 1.0
C      1  0.4673960000000  0.4825990000000  0.4030560000000 1.0
C      1  0.5264140000000  0.4842510000000  0.4516520000000 1.0
C      1  0.4734080000000  0.4852290000000  0.4320350000000 1.0
C      1  0.4437670000000  0.5235200000000  0.4517950000000 1.0
C      1  0.4802950000000  0.5008850000000  0.5105210000000 1.0
C      1  0.5718800000000  0.5289390000000  0.6131530000000 1.0
C      1  0.4864020000000  0.4434420000000  0.4880930000000 1.0
C      1  0.4283310000000  0.5254780000000  0.5113580000000 1.0
C      1  0.5090520000000  0.5337050000000  0.5373750000000 1.0
C      1  0.5460920000000  0.4136560000000  0.4946820000000 1.0
C      1  0.5741680000000  0.5251730000000  0.5864800000000 1.0
C      1  0.5477610000000  0.4618860000000  0.4920780000000 1.0
C      1  0.4534070000000  0.5907470000000  0.5483310000000 1.0
C      1  0.5168160000000  0.5454520000000  0.4609610000000 1.0
C      1  0.4715670000000  0.4637270000000  0.4767270000000 1.0
C      1  0.4321170000000  0.5004330000000  0.4928550000000 1.0
C      1  0.4627810000000  0.4778850000000  0.3784010000000 1.0
C      1  0.4788060000000  0.4931080000000  0.4814330000000 1.0
C      1  0.4535610000000  0.4761170000000  0.4557520000000 1.0
C      1  0.5415830000000  0.4882710000000  0.4783230000000 1.0
C      1  0.5977360000000  0.5179330000000  0.5753860000000 1.0
C      1  0.5520840000000  0.5292110000000  0.5701690000000 1.0
C      1  0.4722640000000  0.5727380000000  0.5456800000000 1.0
C      1  0.4977670000000  0.4807120000000  0.5287610000000 1.0
C      1  0.4517930000000  0.5025090000000  0.5205050000000 1.0
C      1  0.5275060000000  0.5127910000000  0.4972310000000 1.0
C      1  0.5051860000000  0.4408010000000  0.5552530000000 1.0
C      1  0.5036690000000  0.4860010000000  0.4429890000000 1.0
C      1  0.4895500000000  0.5527530000000  0.5423400000000 1.0
C      1  0.5031620000000  0.4534910000000  0.5316450000000 1.0
C      1  0.5345630000000  0.4378060000000  0.4977670000000 1.0
C      1  0.4473610000000  0.4905390000000  0.5452420000000 1.0
C      1  0.4969170000000  0.5306360000000  0.4500970000000 1.0
C      1  0.5608820000000  0.5160060000000  0.4761450000000 1.0
C      1  0.4743620000000  0.5102250000000  0.4550820000000 1.0
C      1  0.4380710000000  0.4975420000000  0.4661020000000 1.0
END
