TITL C-2848502-4955-424 0.00213128088810711 125000 -1098.29280427016 0 0 200 (C1) n - 1
REM
REM in /home/bkarasulu/work/CARBON/AIRSS/Generating-Clusters/AIREBO/with-SteepDescent/Only-C1/SD-CG-opt/Try1-1.4A-POS3A/HFTN-CG
REM
REM
REM
REM
REM
REM ./C.cell (11c1c37f851c82e70ff6c80c92926a4b)
REM
REM compiler GCC version 9.2.1 20190827 (Red Hat 9.2.1-1)
REM options -cpp -mtune=generic -march=x86-64 -g -O0 -fpre-include=/usr/include/finclude/math-vector-fortran.h
REM seed 1374528786 1152656350 -689625011 -1322361998 -1032009963 -304669009 186374795 476383696 -374497447 1439729545 754075739 -1724483959 -1244378837 352930798 1096739394 -731862730 2088562365 -1529773100 203102492 -1801355171 -2028551374 740734711 1376471966 76951804 -2132547253 652859425 1755984884 -1788860937 446605494 1861190585 699933811 -1683986281 2090431548
REM
CELL 1.54180   50.00000   50.00000   50.00000   90.00000   90.00000   90.00000
LATT -1
SFAC C  
C      1  0.5631420000000  0.4142190000000  0.5040610000000 1.0
C      1  0.5827780000000  0.5383130000000  0.5713240000000 1.0
C      1  0.4508420000000  0.5454930000000  0.4029570000000 1.0
C      1  0.4324140000000  0.6227030000000  0.5379670000000 1.0
C      1  0.6124330000000  0.4712950000000  0.4969000000000 1.0
C      1  0.4858250000000  0.3965640000000  0.5355900000000 1.0
C      1  0.4400690000000  0.4755380000000  0.4368000000000 1.0
C      1  0.4357290000000  0.4600630000000  0.5515480000000 1.0
C      1  0.5271810000000  0.4415130000000  0.5402330000000 1.0
C      1  0.4649770000000  0.4653350000000  0.5979670000000 1.0
C      1  0.5233170000000  0.5926370000000  0.5595370000000 1.0
C      1  0.4247580000000  0.5142100000000  0.5379810000000 1.0
C      1  0.5750360000000  0.4236680000000  0.5345570000000 1.0
C      1  0.5556670000000  0.5572300000000  0.5793720000000 1.0
C      1  0.4309180000000  0.5353710000000  0.4198600000000 1.0
C      1  0.3975550000000  0.5353490000000  0.4527480000000 1.0
C      1  0.5459710000000  0.3883660000000  0.5099930000000 1.0
C      1  0.5904440000000  0.5709420000000  0.4802030000000 1.0
C      1  0.5788030000000  0.5134520000000  0.4142030000000 1.0
C      1  0.4941520000000  0.5062920000000  0.4393630000000 1.0
C      1  0.3971280000000  0.4987790000000  0.5791410000000 1.0
C      1  0.5149970000000  0.4688960000000  0.5527830000000 1.0
C      1  0.5550580000000  0.3832840000000  0.4800770000000 1.0
C      1  0.4310270000000  0.4182960000000  0.5166460000000 1.0
C      1  0.4566630000000  0.4424260000000  0.4079960000000 1.0
C      1  0.5944620000000  0.5059430000000  0.4352830000000 1.0
C      1  0.4646000000000  0.5396650000000  0.4404250000000 1.0
C      1  0.4996180000000  0.4080110000000  0.5066500000000 1.0
C      1  0.5498470000000  0.5251850000000  0.5898050000000 1.0
C      1  0.3891080000000  0.4489650000000  0.5238960000000 1.0
C      1  0.4961490000000  0.4410850000000  0.4134470000000 1.0
C      1  0.4233630000000  0.4943800000000  0.5878740000000 1.0
C      1  0.4793130000000  0.5736940000000  0.5311480000000 1.0
C      1  0.4678350000000  0.4931770000000  0.4466790000000 1.0
C      1  0.4756250000000  0.4178220000000  0.4064260000000 1.0
C      1  0.4721240000000  0.4184780000000  0.5825290000000 1.0
C      1  0.5443590000000  0.4418370000000  0.4120860000000 1.0
C      1  0.5346400000000  0.5286820000000  0.5612910000000 1.0
C      1  0.5279320000000  0.4822480000000  0.5174510000000 1.0
C      1  0.4338470000000  0.5144910000000  0.5051650000000 1.0
C      1  0.5907710000000  0.5079720000000  0.4681050000000 1.0
C      1  0.4246590000000  0.4897610000000  0.4623300000000 1.0
C      1  0.4648250000000  0.6009350000000  0.5057440000000 1.0
C      1  0.5014040000000  0.5224400000000  0.3900200000000 1.0
C      1  0.5837080000000  0.4500920000000  0.4238440000000 1.0
C      1  0.4853140000000  0.4887850000000  0.6056630000000 1.0
C      1  0.5018060000000  0.5655600000000  0.4643350000000 1.0
C      1  0.6197060000000  0.5233410000000  0.4910460000000 1.0
C      1  0.5994300000000  0.4638850000000  0.4485090000000 1.0
C      1  0.5487840000000  0.4313040000000  0.4804270000000 1.0
C      1  0.5072700000000  0.5122220000000  0.6168300000000 1.0
C      1  0.5797460000000  0.4717260000000  0.5883660000000 1.0
C      1  0.5597960000000  0.4960270000000  0.5753950000000 1.0
C      1  0.4832760000000  0.5288570000000  0.4873870000000 1.0
C      1  0.5285640000000  0.4179790000000  0.4169710000000 1.0
C      1  0.5836760000000  0.5364050000000  0.4805990000000 1.0
C      1  0.4965890000000  0.6102500000000  0.5083170000000 1.0
C      1  0.6183240000000  0.4881860000000  0.4475920000000 1.0
C      1  0.5904650000000  0.4340150000000  0.5060790000000 1.0
C      1  0.4734460000000  0.4209460000000  0.5511560000000 1.0
C      1  0.4836450000000  0.5034580000000  0.4089260000000 1.0
C      1  0.4544830000000  0.5693750000000  0.4422320000000 1.0
C      1  0.5545650000000  0.4499780000000  0.5813640000000 1.0
C      1  0.4726060000000  0.5157320000000  0.5956850000000 1.0
C      1  0.4448760000000  0.5157080000000  0.4532650000000 1.0
C      1  0.4366540000000  0.5343790000000  0.4776870000000 1.0
C      1  0.5223670000000  0.5881220000000  0.5066610000000 1.0
C      1  0.5146910000000  0.4765610000000  0.6011040000000 1.0
C      1  0.5122090000000  0.4184790000000  0.4432270000000 1.0
C      1  0.5627680000000  0.5353780000000  0.5467780000000 1.0
C      1  0.4645840000000  0.4198820000000  0.4559400000000 1.0
C      1  0.5156100000000  0.3923400000000  0.4849750000000 1.0
C      1  0.5099120000000  0.4450550000000  0.5988180000000 1.0
C      1  0.4494250000000  0.5502140000000  0.5806190000000 1.0
C      1  0.5270770000000  0.4868110000000  0.5738530000000 1.0
C      1  0.4537090000000  0.5533340000000  0.5249120000000 1.0
C      1  0.4918320000000  0.5707410000000  0.5945410000000 1.0
C      1  0.4418800000000  0.4855320000000  0.5342520000000 1.0
C      1  0.5203740000000  0.3963190000000  0.5309240000000 1.0
C      1  0.4733310000000  0.4050690000000  0.4852860000000 1.0
C      1  0.4143880000000  0.4387800000000  0.5356120000000 1.0
C      1  0.5267320000000  0.4680140000000  0.4118840000000 1.0
C      1  0.5138310000000  0.4383430000000  0.5125350000000 1.0
C      1  0.5304260000000  0.5809440000000  0.4743990000000 1.0
C      1  0.4105910000000  0.4899490000000  0.5099570000000 1.0
C      1  0.3974590000000  0.5592100000000  0.5282980000000 1.0
C      1  0.5563660000000  0.6007270000000  0.4823720000000 1.0
C      1  0.4494190000000  0.5152660000000  0.5613670000000 1.0
C      1  0.3975150000000  0.4749800000000  0.5351330000000 1.0
C      1  0.6019230000000  0.4773830000000  0.5236990000000 1.0
C      1  0.5564320000000  0.4744060000000  0.5031090000000 1.0
C      1  0.4802690000000  0.5843150000000  0.4804160000000 1.0
C      1  0.5006960000000  0.5412030000000  0.6088680000000 1.0
C      1  0.3907540000000  0.5323430000000  0.4826430000000 1.0
C      1  0.5143210000000  0.5567460000000  0.4008270000000 1.0
C      1  0.5758350000000  0.5872010000000  0.4960020000000 1.0
C      1  0.5071490000000  0.4735440000000  0.4919810000000 1.0
C      1  0.3801020000000  0.4747600000000  0.4839540000000 1.0
C      1  0.5252820000000  0.4157760000000  0.5584180000000 1.0
C      1  0.4881660000000  0.4479240000000  0.5497070000000 1.0
C      1  0.5054470000000  0.5189760000000  0.5312860000000 1.0
C      1  0.5659980000000  0.4241470000000  0.4315340000000 1.0
C      1  0.3977020000000  0.5302120000000  0.5422200000000 1.0
C      1  0.4419940000000  0.5469000000000  0.5513780000000 1.0
C      1  0.5058740000000  0.5105670000000  0.5619200000000 1.0
C      1  0.4413010000000  0.5851460000000  0.4877460000000 1.0
C      1  0.4815660000000  0.5463500000000  0.4038990000000 1.0
C      1  0.5594700000000  0.5333790000000  0.4157680000000 1.0
C      1  0.5219840000000  0.5588420000000  0.5559930000000 1.0
C      1  0.5135520000000  0.5385180000000  0.4974500000000 1.0
C      1  0.5714680000000  0.5232670000000  0.5162170000000 1.0
C      1  0.4664560000000  0.5732330000000  0.5818400000000 1.0
C      1  0.5463710000000  0.5046050000000  0.5271890000000 1.0
C      1  0.4900470000000  0.5346520000000  0.5777520000000 1.0
C      1  0.5320180000000  0.5314140000000  0.5218210000000 1.0
C      1  0.5430140000000  0.4963560000000  0.4025140000000 1.0
C      1  0.4854840000000  0.4545910000000  0.4790990000000 1.0
C      1  0.4374040000000  0.4702680000000  0.5813980000000 1.0
C      1  0.5037920000000  0.5318940000000  0.4595740000000 1.0
C      1  0.4918950000000  0.5586180000000  0.4332280000000 1.0
C      1  0.5378180000000  0.5310780000000  0.4570840000000 1.0
C      1  0.4721960000000  0.5886640000000  0.4506840000000 1.0
C      1  0.4518690000000  0.6037100000000  0.5339960000000 1.0
C      1  0.3855550000000  0.5019250000000  0.4959470000000 1.0
C      1  0.5595980000000  0.5515890000000  0.4406390000000 1.0
C      1  0.5007770000000  0.5990420000000  0.5384360000000 1.0
C      1  0.5168880000000  0.5786710000000  0.4237670000000 1.0
C      1  0.5010310000000  0.4936050000000  0.3776590000000 1.0
C      1  0.4607250000000  0.4031870000000  0.5149070000000 1.0
C      1  0.5671710000000  0.5008960000000  0.4909600000000 1.0
C      1  0.5336360000000  0.4521900000000  0.4922080000000 1.0
C      1  0.5401050000000  0.5767470000000  0.4421800000000 1.0
C      1  0.4931000000000  0.4463830000000  0.4469020000000 1.0
C      1  0.5765430000000  0.4608440000000  0.5207140000000 1.0
C      1  0.4086830000000  0.4378910000000  0.4648380000000 1.0
C      1  0.5402120000000  0.6015320000000  0.5323190000000 1.0
C      1  0.5536600000000  0.4728030000000  0.6073070000000 1.0
C      1  0.4603010000000  0.4505670000000  0.5016140000000 1.0
C      1  0.6051480000000  0.5243200000000  0.5156440000000 1.0
C      1  0.4968850000000  0.5675140000000  0.5038960000000 1.0
C      1  0.4746750000000  0.4702300000000  0.5675490000000 1.0
C      1  0.5680080000000  0.4424980000000  0.4600860000000 1.0
C      1  0.5943550000000  0.4500620000000  0.4784530000000 1.0
C      1  0.4011420000000  0.4688550000000  0.4657820000000 1.0
C      1  0.6137090000000  0.5431960000000  0.4661760000000 1.0
C      1  0.5552880000000  0.5807120000000  0.5545920000000 1.0
C      1  0.4276780000000  0.5018860000000  0.4192130000000 1.0
C      1  0.3784060000000  0.5278400000000  0.5143210000000 1.0
C      1  0.4972380000000  0.4674440000000  0.3948710000000 1.0
C      1  0.5604060000000  0.4020930000000  0.4565590000000 1.0
C      1  0.4651740000000  0.4653380000000  0.3946940000000 1.0
C      1  0.5556720000000  0.4834990000000  0.5461950000000 1.0
C      1  0.5669440000000  0.4749720000000  0.4497910000000 1.0
C      1  0.4736430000000  0.4902130000000  0.5249270000000 1.0
C      1  0.4160290000000  0.4514830000000  0.4367670000000 1.0
C      1  0.4513460000000  0.4280690000000  0.4837910000000 1.0
C      1  0.4411250000000  0.5200800000000  0.5940000000000 1.0
C      1  0.4636650000000  0.5887020000000  0.5573440000000 1.0
C      1  0.5157740000000  0.5061130000000  0.4873430000000 1.0
C      1  0.5198190000000  0.4954980000000  0.4572070000000 1.0
C      1  0.4916090000000  0.5984750000000  0.4336900000000 1.0
C      1  0.6196750000000  0.4945570000000  0.4792960000000 1.0
C      1  0.5621910000000  0.5497940000000  0.4990240000000 1.0
C      1  0.4268020000000  0.5511080000000  0.4497520000000 1.0
C      1  0.5232650000000  0.5582250000000  0.5899650000000 1.0
C      1  0.4824520000000  0.4389650000000  0.5974130000000 1.0
C      1  0.5518360000000  0.5005080000000  0.4622290000000 1.0
C      1  0.5665090000000  0.5732360000000  0.5232740000000 1.0
C      1  0.4543220000000  0.4854050000000  0.4768960000000 1.0
C      1  0.5350240000000  0.5626160000000  0.5252720000000 1.0
C      1  0.4560860000000  0.4912520000000  0.4038420000000 1.0
C      1  0.5305910000000  0.5270810000000  0.4043640000000 1.0
C      1  0.4372520000000  0.5573440000000  0.5003240000000 1.0
C      1  0.4748030000000  0.4981190000000  0.5559160000000 1.0
C      1  0.5303930000000  0.4308820000000  0.5847210000000 1.0
C      1  0.4812640000000  0.5351440000000  0.5208040000000 1.0
C      1  0.5582710000000  0.4504190000000  0.5474290000000 1.0
C      1  0.5295410000000  0.4102740000000  0.4653240000000 1.0
C      1  0.3985560000000  0.5151400000000  0.4313210000000 1.0
C      1  0.5747880000000  0.4940420000000  0.3902070000000 1.0
C      1  0.5380410000000  0.5507160000000  0.4822230000000 1.0
C      1  0.4228270000000  0.5809010000000  0.4656690000000 1.0
C      1  0.5654980000000  0.4758620000000  0.4173380000000 1.0
C      1  0.3868870000000  0.4802320000000  0.5606000000000 1.0
C      1  0.4062560000000  0.5543350000000  0.5021070000000 1.0
C      1  0.5891970000000  0.5602070000000  0.4498490000000 1.0
C      1  0.4919820000000  0.5510720000000  0.5503690000000 1.0
C      1  0.4212790000000  0.4242800000000  0.4845460000000 1.0
C      1  0.4834520000000  0.4095870000000  0.4345610000000 1.0
C      1  0.5372210000000  0.5006910000000  0.6097440000000 1.0
C      1  0.5881910000000  0.5089240000000  0.5618110000000 1.0
C      1  0.3729050000000  0.4541410000000  0.5010820000000 1.0
C      1  0.4649100000000  0.5058860000000  0.4993050000000 1.0
C      1  0.5142890000000  0.4707180000000  0.4402480000000 1.0
C      1  0.6008330000000  0.5025250000000  0.5367220000000 1.0
C      1  0.4404000000000  0.4747670000000  0.5038770000000 1.0
C      1  0.4601310000000  0.4481420000000  0.4387370000000 1.0
C      1  0.4535670000000  0.4381670000000  0.5325710000000 1.0
C      1  0.3896680000000  0.5251140000000  0.5714740000000 1.0
C      1  0.4968800000000  0.4684060000000  0.5240020000000 1.0
END
