TITL C-2848503-6230-690 -0.000441001126440995 125000 -742.029353810892 0 0 132 (C1) n - 1
REM
REM in /home/bkarasulu/work/CARBON/AIRSS/Generating-Clusters/AIREBO/with-SteepDescent/Only-C1/SD-CG-opt/Try1-1.4A-POS3A/HFTN-CG
REM
REM
REM
REM
REM
REM ./C.cell (11c1c37f851c82e70ff6c80c92926a4b)
REM
REM compiler GCC version 9.2.1 20190827 (Red Hat 9.2.1-1)
REM options -cpp -mtune=generic -march=x86-64 -g -O0 -fpre-include=/usr/include/finclude/math-vector-fortran.h
REM seed 30227241 -96124264 1511273240 1752342464 -1988274535 -830533715 1974334465 287714068 -808554078 -942348628 -571967565 -1266213520 610544693 -250129314 -1813707784 -196123249 1354173307 -1963028560 -1074819325 750700196 60339385 1703817227 2044396467 -251621859 348350316 1537168934 344574255 -1583412368 -1444050525 -404233713 -555859905 -361442220 271086703
REM
CELL 1.54180   50.00000   50.00000   50.00000   90.00000   90.00000   90.00000
LATT -1
SFAC C  
C      1  0.4494570000000  0.5315880000000  0.5582140000000 1.0
C      1  0.5683720000000  0.4748500000000  0.4597150000000 1.0
C      1  0.5302390000000  0.5535900000000  0.4626060000000 1.0
C      1  0.4961490000000  0.4543640000000  0.3879190000000 1.0
C      1  0.5409020000000  0.4083140000000  0.4794050000000 1.0
C      1  0.4529610000000  0.5192290000000  0.4221140000000 1.0
C      1  0.4177640000000  0.5220140000000  0.5617410000000 1.0
C      1  0.5990600000000  0.5157800000000  0.4877780000000 1.0
C      1  0.6013000000000  0.5459240000000  0.4992480000000 1.0
C      1  0.5015670000000  0.5117900000000  0.4833790000000 1.0
C      1  0.5146970000000  0.5442330000000  0.4338370000000 1.0
C      1  0.4973490000000  0.4790280000000  0.4841760000000 1.0
C      1  0.4853610000000  0.4994100000000  0.5787260000000 1.0
C      1  0.4643360000000  0.5513830000000  0.4259650000000 1.0
C      1  0.5321890000000  0.5488470000000  0.5781440000000 1.0
C      1  0.4250100000000  0.5534760000000  0.5235870000000 1.0
C      1  0.5381310000000  0.4920750000000  0.6217250000000 1.0
C      1  0.5252790000000  0.4384970000000  0.4402260000000 1.0
C      1  0.4893140000000  0.4989410000000  0.4310790000000 1.0
C      1  0.4570170000000  0.4794470000000  0.5323410000000 1.0
C      1  0.4833550000000  0.5688660000000  0.4355810000000 1.0
C      1  0.4649870000000  0.4370210000000  0.4428310000000 1.0
C      1  0.5859420000000  0.4726920000000  0.5176340000000 1.0
C      1  0.5424410000000  0.4348990000000  0.4660840000000 1.0
C      1  0.4620700000000  0.4283580000000  0.5357180000000 1.0
C      1  0.5328880000000  0.5895190000000  0.5351750000000 1.0
C      1  0.4896640000000  0.4435790000000  0.5760660000000 1.0
C      1  0.4595860000000  0.4886530000000  0.5900150000000 1.0
C      1  0.4228120000000  0.5423110000000  0.4539370000000 1.0
C      1  0.4202420000000  0.4453190000000  0.5094480000000 1.0
C      1  0.4429880000000  0.4609920000000  0.4365710000000 1.0
C      1  0.5141450000000  0.5119040000000  0.5112590000000 1.0
C      1  0.4536290000000  0.4862530000000  0.4183470000000 1.0
C      1  0.5526320000000  0.5651300000000  0.5347510000000 1.0
C      1  0.4344260000000  0.4772080000000  0.5748480000000 1.0
C      1  0.5000860000000  0.5448920000000  0.4757290000000 1.0
C      1  0.4966560000000  0.4785430000000  0.5594000000000 1.0
C      1  0.4776750000000  0.4122700000000  0.4623870000000 1.0
C      1  0.5144170000000  0.5517660000000  0.3945680000000 1.0
C      1  0.5507540000000  0.4200340000000  0.5512810000000 1.0
C      1  0.4507490000000  0.5911830000000  0.5559650000000 1.0
C      1  0.5117320000000  0.5933270000000  0.4841040000000 1.0
C      1  0.5372170000000  0.4620000000000  0.4192270000000 1.0
C      1  0.5831720000000  0.5226160000000  0.5633160000000 1.0
C      1  0.4827680000000  0.4424440000000  0.4782120000000 1.0
C      1  0.4177200000000  0.4419380000000  0.5401460000000 1.0
C      1  0.5118580000000  0.5692240000000  0.5781010000000 1.0
C      1  0.5865120000000  0.4152430000000  0.5029020000000 1.0
C      1  0.4257230000000  0.4902400000000  0.5245370000000 1.0
C      1  0.3968700000000  0.4752130000000  0.5220120000000 1.0
C      1  0.5142590000000  0.5960900000000  0.5124240000000 1.0
C      1  0.5909020000000  0.5287570000000  0.5246400000000 1.0
C      1  0.4576240000000  0.5618900000000  0.5702550000000 1.0
C      1  0.5611640000000  0.4050390000000  0.5019690000000 1.0
C      1  0.5187880000000  0.4719890000000  0.3980020000000 1.0
C      1  0.5704120000000  0.5105430000000  0.4402530000000 1.0
C      1  0.4294780000000  0.5070980000000  0.5000480000000 1.0
C      1  0.3972280000000  0.4735810000000  0.4750620000000 1.0
C      1  0.4475630000000  0.4628500000000  0.5052930000000 1.0
C      1  0.5375410000000  0.5393420000000  0.5493660000000 1.0
C      1  0.5718850000000  0.4682960000000  0.5453320000000 1.0
C      1  0.5110950000000  0.5323880000000  0.5346900000000 1.0
C      1  0.4377080000000  0.4232450000000  0.5476620000000 1.0
C      1  0.4069520000000  0.5191480000000  0.4572890000000 1.0
C      1  0.4512190000000  0.5005090000000  0.5583030000000 1.0
C      1  0.5033200000000  0.4771210000000  0.5276080000000 1.0
C      1  0.4381170000000  0.4283310000000  0.4878920000000 1.0
C      1  0.5439240000000  0.5293660000000  0.4430430000000 1.0
C      1  0.5834960000000  0.4468320000000  0.4995860000000 1.0
C      1  0.5168710000000  0.4621130000000  0.5811330000000 1.0
C      1  0.5276890000000  0.5848570000000  0.4608780000000 1.0
C      1  0.5433840000000  0.4288540000000  0.4147740000000 1.0
C      1  0.5415820000000  0.5451450000000  0.5101420000000 1.0
C      1  0.4403050000000  0.4423870000000  0.4649800000000 1.0
C      1  0.4690350000000  0.5317070000000  0.4713890000000 1.0
C      1  0.4648590000000  0.5075500000000  0.4501510000000 1.0
C      1  0.4900040000000  0.4017040000000  0.4904510000000 1.0
C      1  0.4099330000000  0.4981040000000  0.5514530000000 1.0
C      1  0.4141400000000  0.4648180000000  0.5565180000000 1.0
C      1  0.4877080000000  0.5754440000000  0.4673730000000 1.0
C      1  0.4872390000000  0.5625480000000  0.5250430000000 1.0
C      1  0.5347120000000  0.4832590000000  0.5980520000000 1.0
C      1  0.4801900000000  0.4792860000000  0.4041470000000 1.0
C      1  0.5678240000000  0.4510400000000  0.4731780000000 1.0
C      1  0.5319140000000  0.4614300000000  0.5516700000000 1.0
C      1  0.5517490000000  0.4827960000000  0.4334780000000 1.0
C      1  0.4607380000000  0.5134780000000  0.4972030000000 1.0
C      1  0.4692000000000  0.6044040000000  0.5399670000000 1.0
C      1  0.5163780000000  0.4061810000000  0.4977400000000 1.0
C      1  0.5836230000000  0.5633310000000  0.4869020000000 1.0
C      1  0.5544000000000  0.5497810000000  0.4829490000000 1.0
C      1  0.4885530000000  0.5903820000000  0.5256630000000 1.0
C      1  0.5911610000000  0.4969720000000  0.5128410000000 1.0
C      1  0.4649660000000  0.4690810000000  0.4811950000000 1.0
C      1  0.5513310000000  0.4933670000000  0.5355130000000 1.0
C      1  0.5455440000000  0.4865710000000  0.5683280000000 1.0
C      1  0.5363620000000  0.4996730000000  0.4577810000000 1.0
C      1  0.5257580000000  0.5930620000000  0.4347410000000 1.0
C      1  0.5312830000000  0.4871290000000  0.5155870000000 1.0
C      1  0.4864420000000  0.5572900000000  0.5804350000000 1.0
C      1  0.4298980000000  0.5386480000000  0.5008530000000 1.0
C      1  0.4338950000000  0.5450340000000  0.4285170000000 1.0
C      1  0.4633150000000  0.4180500000000  0.5037440000000 1.0
C      1  0.5746630000000  0.5290510000000  0.4684650000000 1.0
C      1  0.5407770000000  0.4856710000000  0.4865530000000 1.0
C      1  0.4480540000000  0.4840260000000  0.4603170000000 1.0
C      1  0.4796350000000  0.4919060000000  0.5102110000000 1.0
C      1  0.4622780000000  0.5845910000000  0.4768280000000 1.0
C      1  0.5671440000000  0.4391650000000  0.5284470000000 1.0
C      1  0.5578990000000  0.5218750000000  0.5292300000000 1.0
C      1  0.4407000000000  0.5460660000000  0.4758430000000 1.0
C      1  0.5075030000000  0.5152120000000  0.4500280000000 1.0
C      1  0.5093970000000  0.5281210000000  0.3901440000000 1.0
C      1  0.5384830000000  0.4272960000000  0.5140760000000 1.0
C      1  0.4875470000000  0.5263120000000  0.5753840000000 1.0
C      1  0.4749460000000  0.4548800000000  0.5475700000000 1.0
C      1  0.5250910000000  0.4220890000000  0.5513610000000 1.0
C      1  0.5207600000000  0.5917170000000  0.5618890000000 1.0
C      1  0.5094130000000  0.5510510000000  0.5061650000000 1.0
C      1  0.3951680000000  0.4596050000000  0.4980140000000 1.0
C      1  0.4906170000000  0.4365570000000  0.5094990000000 1.0
C      1  0.5131910000000  0.4446000000000  0.5288120000000 1.0
C      1  0.5713760000000  0.4982020000000  0.4782510000000 1.0
C      1  0.4348100000000  0.5663730000000  0.5452550000000 1.0
C      1  0.5780440000000  0.4959060000000  0.5647350000000 1.0
C      1  0.4203050000000  0.4948230000000  0.4723930000000 1.0
C      1  0.4980170000000  0.4361240000000  0.4484850000000 1.0
C      1  0.4796580000000  0.5399120000000  0.5452370000000 1.0
C      1  0.5093790000000  0.5722970000000  0.4182050000000 1.0
C      1  0.5233510000000  0.4623450000000  0.4722800000000 1.0
C      1  0.5789600000000  0.5489590000000  0.5489620000000 1.0
C      1  0.5059990000000  0.5009610000000  0.4017970000000 1.0
END
