TITL C-2848499-1157-482 0.00220531260273199 125000 -779.689729044275 0 0 137 (C1) n - 1
REM
REM in /home/bkarasulu/work/CARBON/AIRSS/Generating-Clusters/AIREBO/with-SteepDescent/Only-C1/SD-CG-opt/Try1-1.4A-POS3A/HFTN-CG
REM
REM
REM
REM
REM
REM ./C.cell (11c1c37f851c82e70ff6c80c92926a4b)
REM
REM compiler GCC version 9.2.1 20190827 (Red Hat 9.2.1-1)
REM options -cpp -mtune=generic -march=x86-64 -g -O0 -fpre-include=/usr/include/finclude/math-vector-fortran.h
REM seed 900763963 -109769055 1054969096 1880505660 145936797 -828063236 1305194857 -1315790206 -1093972373 421749140 683505010 -354274079 -1428211038 -956367964 791033596 -2012643666 343517766 333804466 587174861 -637014524 64781962 -698247023 -956019413 -58415414 -1002786763 1552908996 2104095860 1339987390 -1313331872 1727182300 1481545055 -415538696 1351849801
REM
CELL 1.54180   50.00000   50.00000   50.00000   90.00000   90.00000   90.00000
LATT -1
SFAC C  
C      1  0.5304760000000  0.5237510000000  0.4795030000000 1.0
C      1  0.4714460000000  0.5152320000000  0.4510990000000 1.0
C      1  0.5258040000000  0.6036770000000  0.4967930000000 1.0
C      1  0.5685630000000  0.4371180000000  0.5661710000000 1.0
C      1  0.4909640000000  0.5803160000000  0.4677450000000 1.0
C      1  0.4895700000000  0.4816390000000  0.5327060000000 1.0
C      1  0.4658670000000  0.4494030000000  0.4411190000000 1.0
C      1  0.5224260000000  0.4659970000000  0.4226950000000 1.0
C      1  0.5382800000000  0.5291540000000  0.5925110000000 1.0
C      1  0.5211650000000  0.5460330000000  0.5297810000000 1.0
C      1  0.5797710000000  0.4416770000000  0.4668740000000 1.0
C      1  0.4983430000000  0.4542910000000  0.4521650000000 1.0
C      1  0.4775700000000  0.4514360000000  0.5295810000000 1.0
C      1  0.4377580000000  0.4710260000000  0.5441280000000 1.0
C      1  0.5290910000000  0.5107080000000  0.4503530000000 1.0
C      1  0.4696590000000  0.4705650000000  0.5564150000000 1.0
C      1  0.3951260000000  0.4915120000000  0.5150350000000 1.0
C      1  0.5057710000000  0.5240320000000  0.5919660000000 1.0
C      1  0.4351080000000  0.4840010000000  0.5128110000000 1.0
C      1  0.5524570000000  0.5350390000000  0.4481320000000 1.0
C      1  0.4898070000000  0.5389100000000  0.5031570000000 1.0
C      1  0.5414180000000  0.4053740000000  0.4630030000000 1.0
C      1  0.4614310000000  0.5257010000000  0.4789360000000 1.0
C      1  0.4934600000000  0.4234780000000  0.4540190000000 1.0
C      1  0.4775800000000  0.4982960000000  0.4107090000000 1.0
C      1  0.5534300000000  0.4989920000000  0.4314300000000 1.0
C      1  0.5209900000000  0.5767150000000  0.4521840000000 1.0
C      1  0.5394030000000  0.5551420000000  0.4333990000000 1.0
C      1  0.4676550000000  0.5789320000000  0.4469230000000 1.0
C      1  0.5885790000000  0.4366580000000  0.5460290000000 1.0
C      1  0.5323340000000  0.5554090000000  0.4846100000000 1.0
C      1  0.5004220000000  0.4561660000000  0.4087400000000 1.0
C      1  0.4498180000000  0.4232080000000  0.5264270000000 1.0
C      1  0.4904600000000  0.4761720000000  0.6011280000000 1.0
C      1  0.4021430000000  0.4921970000000  0.4888130000000 1.0
C      1  0.4320980000000  0.5731330000000  0.5014730000000 1.0
C      1  0.5697170000000  0.4931310000000  0.5452640000000 1.0
C      1  0.6005670000000  0.4511940000000  0.4817440000000 1.0
C      1  0.5962800000000  0.4707200000000  0.5069700000000 1.0
C      1  0.5355890000000  0.4697770000000  0.4864550000000 1.0
C      1  0.5181310000000  0.4189520000000  0.5716770000000 1.0
C      1  0.5223850000000  0.4483270000000  0.5825310000000 1.0
C      1  0.5388270000000  0.5932580000000  0.4740610000000 1.0
C      1  0.5005460000000  0.5058000000000  0.5444520000000 1.0
C      1  0.4386640000000  0.5588870000000  0.5533270000000 1.0
C      1  0.5574660000000  0.4849110000000  0.5858770000000 1.0
C      1  0.4403180000000  0.5096890000000  0.5344990000000 1.0
C      1  0.4219710000000  0.5545100000000  0.5269250000000 1.0
C      1  0.4335510000000  0.4481170000000  0.4292390000000 1.0
C      1  0.5385760000000  0.4998480000000  0.5023080000000 1.0
C      1  0.5688730000000  0.4132790000000  0.4754810000000 1.0
C      1  0.4665530000000  0.4037280000000  0.4870460000000 1.0
C      1  0.5299800000000  0.4918450000000  0.4153810000000 1.0
C      1  0.4660280000000  0.5253040000000  0.5186410000000 1.0
C      1  0.5338450000000  0.5914080000000  0.5522900000000 1.0
C      1  0.4994810000000  0.5045920000000  0.4632550000000 1.0
C      1  0.5109430000000  0.5630650000000  0.5045640000000 1.0
C      1  0.4500090000000  0.5460480000000  0.4114700000000 1.0
C      1  0.5928540000000  0.4878210000000  0.5338840000000 1.0
C      1  0.4993310000000  0.5584720000000  0.5472370000000 1.0
C      1  0.5643060000000  0.5190500000000  0.5135330000000 1.0
C      1  0.4124260000000  0.4943290000000  0.5433710000000 1.0
C      1  0.5253480000000  0.4692860000000  0.5455300000000 1.0
C      1  0.4740640000000  0.5938670000000  0.5155070000000 1.0
C      1  0.5167620000000  0.5167040000000  0.5222200000000 1.0
C      1  0.5635000000000  0.5791710000000  0.5163850000000 1.0
C      1  0.5406830000000  0.5998240000000  0.5214140000000 1.0
C      1  0.5742270000000  0.5408650000000  0.4908420000000 1.0
C      1  0.4405710000000  0.5591980000000  0.4413780000000 1.0
C      1  0.5425050000000  0.4267490000000  0.5556960000000 1.0
C      1  0.4465350000000  0.4704720000000  0.4595160000000 1.0
C      1  0.4363640000000  0.4171620000000  0.4790310000000 1.0
C      1  0.5019620000000  0.5665560000000  0.4096050000000 1.0
C      1  0.4981760000000  0.4729610000000  0.5029500000000 1.0
C      1  0.5172030000000  0.5015910000000  0.5701390000000 1.0
C      1  0.4470110000000  0.5953380000000  0.5078630000000 1.0
C      1  0.4973690000000  0.5912670000000  0.4975180000000 1.0
C      1  0.5425760000000  0.4883840000000  0.5340710000000 1.0
C      1  0.5868910000000  0.4419930000000  0.5181460000000 1.0
C      1  0.5329930000000  0.4444090000000  0.5360490000000 1.0
C      1  0.4735790000000  0.5561500000000  0.4802140000000 1.0
C      1  0.5604630000000  0.5653040000000  0.4925070000000 1.0
C      1  0.5721610000000  0.4855380000000  0.4475570000000 1.0
C      1  0.4235980000000  0.5129920000000  0.4817400000000 1.0
C      1  0.4933690000000  0.5016230000000  0.6100840000000 1.0
C      1  0.4987730000000  0.4083030000000  0.5544400000000 1.0
C      1  0.4564880000000  0.4503970000000  0.5068580000000 1.0
C      1  0.5119540000000  0.5900850000000  0.4222560000000 1.0
C      1  0.4563510000000  0.5801400000000  0.5596860000000 1.0
C      1  0.4786450000000  0.5822650000000  0.5395580000000 1.0
C      1  0.5504140000000  0.4569880000000  0.5817980000000 1.0
C      1  0.5830940000000  0.5024070000000  0.4677560000000 1.0
C      1  0.5748260000000  0.5296760000000  0.4648890000000 1.0
C      1  0.5524310000000  0.5677210000000  0.5419820000000 1.0
C      1  0.5087000000000  0.4446460000000  0.5045100000000 1.0
C      1  0.5210950000000  0.5453850000000  0.4122530000000 1.0
C      1  0.5149910000000  0.4083290000000  0.4588770000000 1.0
C      1  0.5316230000000  0.4584900000000  0.4545680000000 1.0
C      1  0.5012650000000  0.4715480000000  0.5694500000000 1.0
C      1  0.4161140000000  0.4620520000000  0.4503330000000 1.0
C      1  0.4922970000000  0.5341990000000  0.4375430000000 1.0
C      1  0.4580020000000  0.5001070000000  0.4974430000000 1.0
C      1  0.4620620000000  0.4197090000000  0.4572640000000 1.0
C      1  0.5847690000000  0.4981250000000  0.4961470000000 1.0
C      1  0.4640600000000  0.4007080000000  0.5192270000000 1.0
C      1  0.5497920000000  0.5113670000000  0.5659160000000 1.0
C      1  0.4944940000000  0.4257890000000  0.5289490000000 1.0
C      1  0.5075060000000  0.5141530000000  0.4146560000000 1.0
C      1  0.4553890000000  0.5144200000000  0.4100000000000 1.0
C      1  0.4895230000000  0.5428700000000  0.5757180000000 1.0
C      1  0.4756420000000  0.4695200000000  0.4154830000000 1.0
C      1  0.4911140000000  0.4758270000000  0.4722440000000 1.0
C      1  0.4790300000000  0.4549370000000  0.6140470000000 1.0
C      1  0.5405930000000  0.4439000000000  0.5059020000000 1.0
C      1  0.4484520000000  0.5345800000000  0.5623710000000 1.0
C      1  0.3972510000000  0.4740320000000  0.4673890000000 1.0
C      1  0.4260450000000  0.4434480000000  0.5311060000000 1.0
C      1  0.4761510000000  0.5581590000000  0.4235530000000 1.0
C      1  0.4814180000000  0.5751750000000  0.5785230000000 1.0
C      1  0.4804710000000  0.3898470000000  0.5393440000000 1.0
C      1  0.4251980000000  0.5364750000000  0.4605320000000 1.0
C      1  0.4320520000000  0.5203610000000  0.4313880000000 1.0
C      1  0.4419940000000  0.5604510000000  0.4758330000000 1.0
C      1  0.5634250000000  0.4596610000000  0.4545140000000 1.0
C      1  0.5873500000000  0.3921990000000  0.4754800000000 1.0
C      1  0.4621240000000  0.4717650000000  0.4859910000000 1.0
C      1  0.4416750000000  0.5005450000000  0.4557210000000 1.0
C      1  0.5662520000000  0.4299950000000  0.5025510000000 1.0
C      1  0.4773670000000  0.5252610000000  0.5506720000000 1.0
C      1  0.5511960000000  0.5346300000000  0.5409740000000 1.0
C      1  0.5098440000000  0.5842320000000  0.5644890000000 1.0
C      1  0.4268720000000  0.4372120000000  0.4976870000000 1.0
C      1  0.4986210000000  0.5067150000000  0.4962850000000 1.0
C      1  0.4042580000000  0.5264690000000  0.5344810000000 1.0
C      1  0.5114160000000  0.5450030000000  0.4599050000000 1.0
C      1  0.4942020000000  0.4150490000000  0.4973760000000 1.0
C      1  0.4339570000000  0.5301180000000  0.5080710000000 1.0
END
