TITL C-2847956-8218-22 0.00197019393826271 125000 -398.511134306286 0 0 74 (C1) n - 1
REM
REM in /home/bkarasulu/work/CARBON/AIRSS/Generating-Clusters/AIREBO/with-SteepDescent/Only-C1/SD-CG-opt/Try1-1.4A-POS3A/HFTN-CG
REM
REM
REM
REM
REM
REM ./C.cell (11c1c37f851c82e70ff6c80c92926a4b)
REM
REM compiler GCC version 9.2.1 20190827 (Red Hat 9.2.1-1)
REM options -cpp -mtune=generic -march=x86-64 -g -O0 -fpre-include=/usr/include/finclude/math-vector-fortran.h
REM seed -794755925 -1755959449 1453940063 149229215 1208218492 977693353 -922981359 1233688209 1672049127 892672284 -743846479 1141347108 442172375 -467333743 -152168987 798807869 607352278 763372367 -2014169300 1303956181 300003055 -946996842 615250500 -479296883 172827161 -1598000878 1296989109 -765677713 -333309657 1554378192 -1754568035 -1450224356 -129148063
REM
CELL 1.54180   50.00000   50.00000   50.00000   90.00000   90.00000   90.00000
LATT -1
SFAC C  
C      1  0.4236910000000  0.4920990000000  0.5419250000000 1.0
C      1  0.4947650000000  0.4462360000000  0.4399610000000 1.0
C      1  0.5526110000000  0.4519690000000  0.4889390000000 1.0
C      1  0.5480430000000  0.5598930000000  0.4919860000000 1.0
C      1  0.5626250000000  0.5170690000000  0.4813180000000 1.0
C      1  0.5049680000000  0.5219630000000  0.5183090000000 1.0
C      1  0.5522050000000  0.5160520000000  0.4544830000000 1.0
C      1  0.4924510000000  0.4321970000000  0.5507640000000 1.0
C      1  0.4358430000000  0.4903250000000  0.4700240000000 1.0
C      1  0.4896640000000  0.4474390000000  0.5762330000000 1.0
C      1  0.4744820000000  0.4651460000000  0.4836650000000 1.0
C      1  0.4793430000000  0.4934290000000  0.4716070000000 1.0
C      1  0.5503750000000  0.5577710000000  0.5438230000000 1.0
C      1  0.4947020000000  0.5927510000000  0.4849490000000 1.0
C      1  0.4587570000000  0.4807090000000  0.4186790000000 1.0
C      1  0.5082260000000  0.5194360000000  0.4626350000000 1.0
C      1  0.5318350000000  0.5407100000000  0.5558820000000 1.0
C      1  0.5004490000000  0.5040890000000  0.5804820000000 1.0
C      1  0.5377020000000  0.4658360000000  0.4613940000000 1.0
C      1  0.5265510000000  0.4706190000000  0.4991270000000 1.0
C      1  0.4646600000000  0.5328440000000  0.4740380000000 1.0
C      1  0.5095920000000  0.4810030000000  0.4730990000000 1.0
C      1  0.5018450000000  0.4478140000000  0.4940120000000 1.0
C      1  0.4748570000000  0.5087620000000  0.4435630000000 1.0
C      1  0.5130690000000  0.5106000000000  0.4893000000000 1.0
C      1  0.4386680000000  0.5468300000000  0.5187750000000 1.0
C      1  0.5216260000000  0.4331940000000  0.5411710000000 1.0
C      1  0.4671650000000  0.5432810000000  0.5659940000000 1.0
C      1  0.4727180000000  0.5099190000000  0.4979930000000 1.0
C      1  0.4670320000000  0.5411290000000  0.5053570000000 1.0
C      1  0.5804070000000  0.4773110000000  0.5025380000000 1.0
C      1  0.4364130000000  0.5158750000000  0.4825000000000 1.0
C      1  0.5595170000000  0.4742430000000  0.5213280000000 1.0
C      1  0.4795020000000  0.5416110000000  0.3956020000000 1.0
C      1  0.4926730000000  0.4621510000000  0.5234640000000 1.0
C      1  0.5415260000000  0.5206070000000  0.5022030000000 1.0
C      1  0.4762860000000  0.4256880000000  0.4889530000000 1.0
C      1  0.4870530000000  0.5238140000000  0.4155990000000 1.0
C      1  0.5224850000000  0.4259900000000  0.5091140000000 1.0
C      1  0.4994210000000  0.4711460000000  0.5555450000000 1.0
C      1  0.5266730000000  0.4855910000000  0.5698680000000 1.0
C      1  0.4493800000000  0.4900710000000  0.4453310000000 1.0
C      1  0.5147470000000  0.4426610000000  0.4629740000000 1.0
C      1  0.4097710000000  0.5084940000000  0.5235300000000 1.0
C      1  0.5445460000000  0.5612850000000  0.4644250000000 1.0
C      1  0.5075020000000  0.4966420000000  0.5368620000000 1.0
C      1  0.4771930000000  0.4923550000000  0.5220060000000 1.0
C      1  0.5273580000000  0.4145900000000  0.4616630000000 1.0
C      1  0.5852130000000  0.4529000000000  0.4851220000000 1.0
C      1  0.4481520000000  0.4835260000000  0.5328620000000 1.0
C      1  0.4700720000000  0.4376770000000  0.5300920000000 1.0
C      1  0.4236100000000  0.5257860000000  0.5060700000000 1.0
C      1  0.5101330000000  0.5721130000000  0.5267250000000 1.0
C      1  0.5339900000000  0.4935910000000  0.5186900000000 1.0
C      1  0.5240900000000  0.5481490000000  0.5118900000000 1.0
C      1  0.4524780000000  0.4399330000000  0.4776350000000 1.0
C      1  0.4901110000000  0.5264180000000  0.5708970000000 1.0
C      1  0.4848710000000  0.5761480000000  0.4657870000000 1.0
C      1  0.5501010000000  0.4893700000000  0.4447430000000 1.0
C      1  0.5847820000000  0.5028460000000  0.4910960000000 1.0
C      1  0.4547120000000  0.4609350000000  0.5113560000000 1.0
C      1  0.5608380000000  0.5622090000000  0.5188900000000 1.0
C      1  0.5054480000000  0.5375240000000  0.4374430000000 1.0
C      1  0.4347010000000  0.4658570000000  0.4843060000000 1.0
C      1  0.5006950000000  0.5919760000000  0.5116380000000 1.0
C      1  0.4133210000000  0.4852980000000  0.5658050000000 1.0
C      1  0.5471990000000  0.4451350000000  0.5218320000000 1.0
C      1  0.4679820000000  0.5520820000000  0.5355150000000 1.0
C      1  0.5381400000000  0.5399590000000  0.4465900000000 1.0
C      1  0.5350880000000  0.4546270000000  0.5626400000000 1.0
C      1  0.5002750000000  0.5441060000000  0.5436870000000 1.0
C      1  0.4834000000000  0.5503620000000  0.4581570000000 1.0
C      1  0.4813370000000  0.4924580000000  0.4077970000000 1.0
C      1  0.5362810000000  0.5177730000000  0.5697420000000 1.0
END
