TITL C-2848500-1637-689 -369.515777258068 125000 -1014.25960243249 0 0 192 (C1) n - 1
REM
REM in /home/bkarasulu/work/CARBON/AIRSS/Generating-Clusters/AIREBO/with-SteepDescent/Only-C1/SD-CG-opt/Try1-1.4A-POS3A/HFTN-CG
REM
REM
REM
REM
REM
REM ./C.cell (11c1c37f851c82e70ff6c80c92926a4b)
REM
REM compiler GCC version 9.2.1 20190827 (Red Hat 9.2.1-1)
REM options -cpp -mtune=generic -march=x86-64 -g -O0 -fpre-include=/usr/include/finclude/math-vector-fortran.h
REM seed 1458173020 1899178382 708984896 -683472088 1721235393 859941847 -247459835 -1554433115 -1137889705 415889421 1263921331 -2033028673 1149294739 1229834677 884351740 1104554405 -2140857127 264335820 -568839897 1186458351 -97460506 -1756395578 773985266 -1605045923 -1798622660 -1128387715 1276762794 -1316427924 -602218017 126147890 1164452342 36413814 -518482143
REM
CELL 1.54180   50.00000   50.00000   50.00000   90.00000   90.00000   90.00000
LATT -1
SFAC C  
C      1  0.4471970000000  0.5340190000000  0.5165690000000 1.0
C      1  0.5414830000000  0.4574320000000  0.5861630000000 1.0
C      1  0.4482280000000  0.4486390000000  0.6030060000000 1.0
C      1  0.5554970000000  0.5413680000000  0.4230870000000 1.0
C      1  0.4884630000000  0.4387870000000  0.4670070000000 1.0
C      1  0.5525230000000  0.4490780000000  0.5547940000000 1.0
C      1  0.5113170000000  0.5560020000000  0.6132520000000 1.0
C      1  0.5687520000000  0.4838440000000  0.4831480000000 1.0
C      1  0.4886400000000  0.5546940000000  0.5515550000000 1.0
C      1  0.4814560000000  0.5957050000000  0.5554160000000 1.0
C      1  0.3967800000000  0.5658330000000  0.5041360000000 1.0
C      1  0.5725980000000  0.4971100000000  0.4102080000000 1.0
C      1  0.4090420000000  0.4353760000000  0.4534320000000 1.0
C      1  0.4477360000000  0.4588090000000  0.5450040000000 1.0
C      1  0.4557380000000  0.5567840000000  0.4355320000000 1.0
C      1  0.4915160000000  0.4167030000000  0.4915040000000 1.0
C      1  0.5270520000000  0.5465640000000  0.5588710000000 1.0
C      1  0.4993450000000  0.3908100000000  0.5355880000000 1.0
C      1  0.5676770000000  0.4545340000000  0.4659460000000 1.0
C      1  0.4152480000000  0.5360270000000  0.5227090000000 1.0
C      1  0.5424890000000  0.5682910000000  0.4265730000000 1.0
C      1  0.3971870000000  0.4913180000000  0.4696370000000 1.0
C      1  0.5009470000000  0.4912790000000  0.5250360000000 1.0
C      1  0.4838850000000  0.4316640000000  0.5542680000000 1.0
C      1  0.4439270000000  0.5215650000000  0.4854070000000 1.0
C      1  0.6094060000000  0.5187440000000  0.4830700000000 1.0
C      1  0.5243870000000  0.5496700000000  0.5250690000000 1.0
C      1  0.5883650000000  0.4740940000000  0.5613930000000 1.0
C      1  0.5527110000000  0.5345590000000  0.5138500000000 1.0
C      1  0.5165670000000  0.5409480000000  0.4394840000000 1.0
C      1  0.4261770000000  0.5723220000000  0.5100970000000 1.0
C      1  0.5712550000000  0.5882600000000  0.4973690000000 1.0
C      1  0.4257150000000  0.4809540000000  0.5082100000000 1.0
C      1  0.4329990000000  0.4978390000000  0.4206030000000 1.0
C      1  0.3928120000000  0.5250030000000  0.4645100000000 1.0
C      1  0.5508320000000  0.5606180000000  0.5787170000000 1.0
C      1  0.4981390000000  0.3795190000000  0.5035330000000 1.0
C      1  0.5741570000000  0.5049960000000  0.5332450000000 1.0
C      1  0.4800670000000  0.5758120000000  0.5087380000000 1.0
C      1  0.5122370000000  0.5738640000000  0.5069800000000 1.0
C      1  0.5158320000000  0.4753610000000  0.3874260000000 1.0
C      1  0.5564160000000  0.4359940000000  0.5062460000000 1.0
C      1  0.4266000000000  0.4688420000000  0.5665890000000 1.0
C      1  0.4811440000000  0.5794860000000  0.4351580000000 1.0
C      1  0.4581440000000  0.4803220000000  0.5130370000000 1.0
C      1  0.5105520000000  0.4761390000000  0.4268240000000 1.0
C      1  0.5730680000000  0.5238290000000  0.5741570000000 1.0
C      1  0.5777150000000  0.4262340000000  0.5309010000000 1.0
C      1  0.4686390000000  0.6003870000000  0.5261170000000 1.0
C      1  0.4344560000000  0.4196510000000  0.4796600000000 1.0
C      1  0.4871170000000  0.5204820000000  0.5133780000000 1.0
C      1  0.4386120000000  0.4669470000000  0.4244340000000 1.0
C      1  0.4702080000000  0.4015430000000  0.5217040000000 1.0
C      1  0.5169130000000  0.4964120000000  0.4954360000000 1.0
C      1  0.4575920000000  0.5792490000000  0.4834350000000 1.0
C      1  0.4726070000000  0.4810890000000  0.5408940000000 1.0
C      1  0.5976180000000  0.5485260000000  0.4868250000000 1.0
C      1  0.5258580000000  0.5743170000000  0.4783600000000 1.0
C      1  0.5597770000000  0.4218050000000  0.4611870000000 1.0
C      1  0.5821030000000  0.5704470000000  0.4744820000000 1.0
C      1  0.4851730000000  0.5632860000000  0.4714190000000 1.0
C      1  0.4054470000000  0.4549460000000  0.5126440000000 1.0
C      1  0.4335110000000  0.4757360000000  0.4755220000000 1.0
C      1  0.4805840000000  0.4855200000000  0.4511210000000 1.0
C      1  0.4768910000000  0.4358290000000  0.4199530000000 1.0
C      1  0.5911140000000  0.5337050000000  0.5399170000000 1.0
C      1  0.4760780000000  0.5331830000000  0.4605080000000 1.0
C      1  0.4697680000000  0.5106010000000  0.4405870000000 1.0
C      1  0.5324300000000  0.5080360000000  0.6127970000000 1.0
C      1  0.5751000000000  0.4642940000000  0.5089120000000 1.0
C      1  0.4129310000000  0.5437990000000  0.4491240000000 1.0
C      1  0.4683750000000  0.4624820000000  0.5929520000000 1.0
C      1  0.6077150000000  0.4697300000000  0.5108480000000 1.0
C      1  0.4374810000000  0.4097920000000  0.5258270000000 1.0
C      1  0.5033950000000  0.4094380000000  0.5632500000000 1.0
C      1  0.3953210000000  0.4621390000000  0.4693010000000 1.0
C      1  0.4616840000000  0.5508770000000  0.5912870000000 1.0
C      1  0.5520140000000  0.4657910000000  0.4213350000000 1.0
C      1  0.4729440000000  0.6088690000000  0.4495560000000 1.0
C      1  0.5287840000000  0.4269350000000  0.5781090000000 1.0
C      1  0.5153420000000  0.6124490000000  0.4727220000000 1.0
C      1  0.5241690000000  0.3959570000000  0.5047000000000 1.0
C      1  0.4698430000000  0.5297600000000  0.5413370000000 1.0
C      1  0.4883010000000  0.4564230000000  0.4415440000000 1.0
C      1  0.4903890000000  0.4872390000000  0.4786960000000 1.0
C      1  0.5056550000000  0.4491970000000  0.4066500000000 1.0
C      1  0.4936860000000  0.4913290000000  0.6037780000000 1.0
C      1  0.4590860000000  0.5150240000000  0.5696970000000 1.0
C      1  0.4211670000000  0.5196410000000  0.5584750000000 1.0
C      1  0.4300250000000  0.5608670000000  0.5406160000000 1.0
C      1  0.5088620000000  0.5654910000000  0.4213060000000 1.0
C      1  0.5187070000000  0.4683260000000  0.5427550000000 1.0
C      1  0.6039060000000  0.4889640000000  0.5370410000000 1.0
C      1  0.5260570000000  0.5998520000000  0.5197940000000 1.0
C      1  0.4615500000000  0.5110120000000  0.4076620000000 1.0
C      1  0.5243430000000  0.4767870000000  0.6085110000000 1.0
C      1  0.4775610000000  0.5095600000000  0.6209320000000 1.0
C      1  0.6169490000000  0.5019510000000  0.5084710000000 1.0
C      1  0.5109580000000  0.4942020000000  0.5635140000000 1.0
C      1  0.5156760000000  0.5333230000000  0.3947130000000 1.0
C      1  0.5369290000000  0.4397770000000  0.4161650000000 1.0
C      1  0.4604690000000  0.5720070000000  0.5433640000000 1.0
C      1  0.5356350000000  0.4575380000000  0.4769190000000 1.0
C      1  0.5052570000000  0.4593620000000  0.4863790000000 1.0
C      1  0.5004210000000  0.4608190000000  0.5915310000000 1.0
C      1  0.5173350000000  0.4184620000000  0.4289530000000 1.0
C      1  0.5376530000000  0.5953790000000  0.5503000000000 1.0
C      1  0.4871860000000  0.5296980000000  0.5952750000000 1.0
C      1  0.4879060000000  0.4908120000000  0.4110800000000 1.0
C      1  0.4869490000000  0.5553750000000  0.3973410000000 1.0
C      1  0.5050050000000  0.4396100000000  0.5108960000000 1.0
C      1  0.5562860000000  0.4174160000000  0.4329960000000 1.0
C      1  0.4599260000000  0.5629810000000  0.4057930000000 1.0
C      1  0.4571750000000  0.4504180000000  0.5071160000000 1.0
C      1  0.5797810000000  0.5188470000000  0.4673500000000 1.0
C      1  0.4249330000000  0.4480510000000  0.5885580000000 1.0
C      1  0.5078170000000  0.4489090000000  0.5658040000000 1.0
C      1  0.5410600000000  0.5015550000000  0.5669350000000 1.0
C      1  0.4134130000000  0.5695710000000  0.4579950000000 1.0
C      1  0.5160970000000  0.5301570000000  0.4984580000000 1.0
C      1  0.4801370000000  0.6156510000000  0.5012700000000 1.0
C      1  0.5296980000000  0.4060430000000  0.5335640000000 1.0
C      1  0.4470360000000  0.3960010000000  0.4966120000000 1.0
C      1  0.5504620000000  0.5945620000000  0.4784770000000 1.0
C      1  0.5094050000000  0.5822600000000  0.5554600000000 1.0
C      1  0.5403710000000  0.4901800000000  0.4018510000000 1.0
C      1  0.4238990000000  0.5828270000000  0.4805970000000 1.0
C      1  0.4398210000000  0.5267720000000  0.4371240000000 1.0
C      1  0.4756880000000  0.3908720000000  0.4835680000000 1.0
C      1  0.4776470000000  0.3925890000000  0.4517500000000 1.0
C      1  0.5318110000000  0.4399010000000  0.5294270000000 1.0
C      1  0.4612570000000  0.4105420000000  0.4364690000000 1.0
C      1  0.5128860000000  0.5269480000000  0.6173890000000 1.0
C      1  0.5078220000000  0.6157760000000  0.4991010000000 1.0
C      1  0.5936760000000  0.5060920000000  0.5715380000000 1.0
C      1  0.4560790000000  0.4544490000000  0.4056720000000 1.0
C      1  0.4571350000000  0.4436140000000  0.4771370000000 1.0
C      1  0.4860770000000  0.5228010000000  0.3876020000000 1.0
C      1  0.5274780000000  0.5104390000000  0.5312450000000 1.0
C      1  0.5568660000000  0.4755780000000  0.5339120000000 1.0
C      1  0.5515270000000  0.5158380000000  0.5944100000000 1.0
C      1  0.5490020000000  0.4152920000000  0.5564240000000 1.0
C      1  0.5825940000000  0.4302800000000  0.4849350000000 1.0
C      1  0.4062060000000  0.5055040000000  0.4400820000000 1.0
C      1  0.5670980000000  0.5576470000000  0.5423840000000 1.0
C      1  0.4732930000000  0.5460160000000  0.4983680000000 1.0
C      1  0.4842220000000  0.5689490000000  0.6008420000000 1.0
C      1  0.4341710000000  0.5024370000000  0.4601950000000 1.0
C      1  0.5820900000000  0.5511150000000  0.5123540000000 1.0
C      1  0.5634530000000  0.5670900000000  0.4525990000000 1.0
C      1  0.5167740000000  0.5014020000000  0.4452540000000 1.0
C      1  0.5113530000000  0.5658160000000  0.5821130000000 1.0
C      1  0.6038100000000  0.4541360000000  0.4830080000000 1.0
C      1  0.4137150000000  0.5084760000000  0.4939500000000 1.0
C      1  0.6016690000000  0.4864930000000  0.4750590000000 1.0
C      1  0.5540970000000  0.5857060000000  0.5746070000000 1.0
C      1  0.5618590000000  0.4809700000000  0.5768980000000 1.0
C      1  0.5860610000000  0.4436280000000  0.5535120000000 1.0
C      1  0.5174150000000  0.4217570000000  0.4616600000000 1.0
C      1  0.4322670000000  0.4397230000000  0.5242580000000 1.0
C      1  0.4771150000000  0.4331520000000  0.5246250000000 1.0
C      1  0.5064170000000  0.5249890000000  0.4674510000000 1.0
C      1  0.4427310000000  0.5446810000000  0.5664790000000 1.0
C      1  0.4478270000000  0.5505430000000  0.4680360000000 1.0
C      1  0.4355500000000  0.4147310000000  0.4471430000000 1.0
C      1  0.5731540000000  0.5129300000000  0.5001950000000 1.0
C      1  0.3980440000000  0.5095050000000  0.5352260000000 1.0
C      1  0.4672480000000  0.6084340000000  0.4765270000000 1.0
C      1  0.5747660000000  0.5200870000000  0.4351790000000 1.0
C      1  0.5044670000000  0.3952580000000  0.4450550000000 1.0
C      1  0.4054230000000  0.4349420000000  0.4872380000000 1.0
C      1  0.5483170000000  0.5249740000000  0.4719520000000 1.0
C      1  0.5761740000000  0.4600790000000  0.4381960000000 1.0
C      1  0.4354620000000  0.4540430000000  0.4530830000000 1.0
C      1  0.5563550000000  0.5843140000000  0.5241490000000 1.0
C      1  0.4788140000000  0.4889690000000  0.5732850000000 1.0
C      1  0.5369270000000  0.5500630000000  0.4617090000000 1.0
C      1  0.5043230000000  0.5855610000000  0.4579020000000 1.0
C      1  0.5524290000000  0.5270650000000  0.5473150000000 1.0
C      1  0.5555460000000  0.4939920000000  0.4400420000000 1.0
C      1  0.4909940000000  0.4931570000000  0.3741650000000 1.0
C      1  0.4325410000000  0.4970530000000  0.5791530000000 1.0
C      1  0.5379430000000  0.4159220000000  0.4859190000000 1.0
C      1  0.5388890000000  0.4929960000000  0.4696810000000 1.0
C      1  0.3898170000000  0.4793130000000  0.5257770000000 1.0
C      1  0.4689730000000  0.5007510000000  0.4947870000000 1.0
C      1  0.4248340000000  0.4908490000000  0.5407310000000 1.0
C      1  0.5006380000000  0.5265240000000  0.5664300000000 1.0
C      1  0.3934420000000  0.5344930000000  0.4966000000000 1.0
C      1  0.4715830000000  0.4719980000000  0.3909990000000 1.0
C      1  0.5310820000000  0.5180690000000  0.4189410000000 1.0
C      1  0.5365200000000  0.4728140000000  0.5073020000000 1.0
END
