TITL C-2847947-6848-329 -0.000866083387976281 125000 -875.742775358054 0 0 163 (C1) n - 1
REM
REM in /home/bkarasulu/work/CARBON/AIRSS/Generating-Clusters/AIREBO/with-SteepDescent/Only-C1/SD-CG-opt/Try1-1.4A-POS3A/HFTN-CG
REM
REM
REM
REM
REM
REM ./C.cell (11c1c37f851c82e70ff6c80c92926a4b)
REM
REM compiler GCC version 9.2.1 20190827 (Red Hat 9.2.1-1)
REM options -cpp -mtune=generic -march=x86-64 -g -O0 -fpre-include=/usr/include/finclude/math-vector-fortran.h
REM seed 523228596 416461961 -686136223 -797642610 1811081393 -1225522659 -65666547 1000665518 -1294707753 -600629767 222060400 -594237315 1275789170 1474269499 138647751 -720331368 1180205066 377072381 -2102933440 1965977006 -211985786 -1839895309 1857685309 -576144441 -10100595 -637130593 -57492496 -52567490 -660881676 1871790285 1370231455 -1338881425 276327097
REM
CELL 1.54180   50.00000   50.00000   50.00000   90.00000   90.00000   90.00000
LATT -1
SFAC C  
C      1  0.4734620000000  0.6003140000000  0.5184960000000 1.0
C      1  0.5158430000000  0.4995710000000  0.3927190000000 1.0
C      1  0.4337670000000  0.5031530000000  0.4616990000000 1.0
C      1  0.4667100000000  0.5539820000000  0.4390750000000 1.0
C      1  0.4419250000000  0.4231100000000  0.5542240000000 1.0
C      1  0.5782920000000  0.4753810000000  0.4420820000000 1.0
C      1  0.5684850000000  0.4978320000000  0.5167070000000 1.0
C      1  0.5542430000000  0.5586360000000  0.4268580000000 1.0
C      1  0.5560620000000  0.5299490000000  0.5716960000000 1.0
C      1  0.5677760000000  0.4982010000000  0.4856980000000 1.0
C      1  0.5081710000000  0.4888540000000  0.4302840000000 1.0
C      1  0.4632100000000  0.5118660000000  0.4764800000000 1.0
C      1  0.5295790000000  0.4253050000000  0.5263340000000 1.0
C      1  0.5579820000000  0.5535800000000  0.4528120000000 1.0
C      1  0.5316410000000  0.5175000000000  0.5426570000000 1.0
C      1  0.5184020000000  0.5970730000000  0.5593200000000 1.0
C      1  0.4784020000000  0.5144050000000  0.5220750000000 1.0
C      1  0.4958140000000  0.5174440000000  0.4242590000000 1.0
C      1  0.4875070000000  0.4020030000000  0.4650740000000 1.0
C      1  0.5294620000000  0.5007400000000  0.5810610000000 1.0
C      1  0.4693130000000  0.4554800000000  0.5445320000000 1.0
C      1  0.5119030000000  0.4294890000000  0.5917630000000 1.0
C      1  0.4211900000000  0.5133400000000  0.5273470000000 1.0
C      1  0.5286630000000  0.4696870000000  0.5885020000000 1.0
C      1  0.4786970000000  0.4385270000000  0.4790520000000 1.0
C      1  0.4147480000000  0.4796940000000  0.4160710000000 1.0
C      1  0.5009400000000  0.5980750000000  0.4858670000000 1.0
C      1  0.5025430000000  0.4762510000000  0.5573380000000 1.0
C      1  0.5225010000000  0.4162430000000  0.5698090000000 1.0
C      1  0.5257850000000  0.5342940000000  0.5852830000000 1.0
C      1  0.5194630000000  0.5237190000000  0.4458140000000 1.0
C      1  0.4210070000000  0.5666940000000  0.4708100000000 1.0
C      1  0.6249940000000  0.5104400000000  0.4892620000000 1.0
C      1  0.5418490000000  0.5206590000000  0.4254030000000 1.0
C      1  0.4558900000000  0.4126420000000  0.4583140000000 1.0
C      1  0.4477180000000  0.4885450000000  0.4957790000000 1.0
C      1  0.5469280000000  0.4340500000000  0.5545910000000 1.0
C      1  0.4493050000000  0.5315630000000  0.5247680000000 1.0
C      1  0.5682670000000  0.5015160000000  0.4295060000000 1.0
C      1  0.5476960000000  0.5958520000000  0.5202840000000 1.0
C      1  0.4193880000000  0.4527250000000  0.4661300000000 1.0
C      1  0.4959180000000  0.5020570000000  0.5756480000000 1.0
C      1  0.6071910000000  0.5224680000000  0.5076390000000 1.0
C      1  0.5903790000000  0.4548760000000  0.5405080000000 1.0
C      1  0.5215730000000  0.5674940000000  0.5697450000000 1.0
C      1  0.4094210000000  0.5409040000000  0.4728630000000 1.0
C      1  0.5947050000000  0.5392050000000  0.5571290000000 1.0
C      1  0.4374490000000  0.4519590000000  0.5683100000000 1.0
C      1  0.4744180000000  0.4182090000000  0.5059820000000 1.0
C      1  0.4232780000000  0.5307690000000  0.5632730000000 1.0
C      1  0.4954060000000  0.5612620000000  0.5819330000000 1.0
C      1  0.4059460000000  0.4615140000000  0.5195550000000 1.0
C      1  0.5170590000000  0.4515430000000  0.4016150000000 1.0
C      1  0.4960740000000  0.5701410000000  0.4448190000000 1.0
C      1  0.4388210000000  0.5713280000000  0.4479290000000 1.0
C      1  0.5179490000000  0.5511440000000  0.4557360000000 1.0
C      1  0.5480890000000  0.4503960000000  0.5843850000000 1.0
C      1  0.4354200000000  0.4599590000000  0.5026620000000 1.0
C      1  0.4439350000000  0.5883250000000  0.5215860000000 1.0
C      1  0.5131430000000  0.4514960000000  0.5148550000000 1.0
C      1  0.5724930000000  0.4671020000000  0.5166720000000 1.0
C      1  0.5452570000000  0.4416780000000  0.4180730000000 1.0
C      1  0.5898590000000  0.5405930000000  0.4946380000000 1.0
C      1  0.4775530000000  0.5740760000000  0.4800300000000 1.0
C      1  0.5167940000000  0.4847270000000  0.5084360000000 1.0
C      1  0.4298020000000  0.5288200000000  0.4260970000000 1.0
C      1  0.5894260000000  0.4812290000000  0.4697040000000 1.0
C      1  0.4838300000000  0.4702250000000  0.4447910000000 1.0
C      1  0.4054300000000  0.4877150000000  0.4991850000000 1.0
C      1  0.5867500000000  0.4844960000000  0.5496450000000 1.0
C      1  0.5025510000000  0.4060810000000  0.5500200000000 1.0
C      1  0.4293020000000  0.5830760000000  0.4951050000000 1.0
C      1  0.4974270000000  0.5403570000000  0.5112360000000 1.0
C      1  0.5520750000000  0.4658950000000  0.5438400000000 1.0
C      1  0.4675330000000  0.5011020000000  0.5886830000000 1.0
C      1  0.5593030000000  0.4145070000000  0.4916240000000 1.0
C      1  0.5015120000000  0.4739220000000  0.3939980000000 1.0
C      1  0.5653720000000  0.5171170000000  0.5415140000000 1.0
C      1  0.5671010000000  0.5787660000000  0.5300130000000 1.0
C      1  0.5263860000000  0.5829150000000  0.4983520000000 1.0
C      1  0.4698020000000  0.4553370000000  0.5759810000000 1.0
C      1  0.4761440000000  0.4737130000000  0.4117590000000 1.0
C      1  0.5370640000000  0.5315820000000  0.4850020000000 1.0
C      1  0.5988500000000  0.5135500000000  0.5367470000000 1.0
C      1  0.4458550000000  0.5624400000000  0.5389510000000 1.0
C      1  0.4694250000000  0.4152070000000  0.5521620000000 1.0
C      1  0.5034530000000  0.6159690000000  0.5141520000000 1.0
C      1  0.5388640000000  0.4644730000000  0.4617320000000 1.0
C      1  0.5132720000000  0.4107410000000  0.4522480000000 1.0
C      1  0.5150780000000  0.5084830000000  0.4731010000000 1.0
C      1  0.4760900000000  0.5668290000000  0.5132170000000 1.0
C      1  0.4596160000000  0.4967780000000  0.4053910000000 1.0
C      1  0.4705100000000  0.5603770000000  0.5594240000000 1.0
C      1  0.4990400000000  0.5958650000000  0.4541960000000 1.0
C      1  0.5612040000000  0.4399280000000  0.4691240000000 1.0
C      1  0.4498470000000  0.3948130000000  0.5082950000000 1.0
C      1  0.4965730000000  0.5402930000000  0.6016250000000 1.0
C      1  0.4247900000000  0.4702940000000  0.5439140000000 1.0
C      1  0.4153290000000  0.4795570000000  0.4741770000000 1.0
C      1  0.4849380000000  0.5532600000000  0.4103530000000 1.0
C      1  0.4448130000000  0.4358510000000  0.4805780000000 1.0
C      1  0.4400730000000  0.4843190000000  0.5777070000000 1.0
C      1  0.5692570000000  0.5280870000000  0.4722870000000 1.0
C      1  0.4319170000000  0.5035660000000  0.4103220000000 1.0
C      1  0.5781000000000  0.4287090000000  0.5426060000000 1.0
C      1  0.4634950000000  0.5232090000000  0.4249600000000 1.0
C      1  0.5358630000000  0.4719450000000  0.4304140000000 1.0
C      1  0.4536930000000  0.5360190000000  0.5750750000000 1.0
C      1  0.4961860000000  0.5505560000000  0.5436520000000 1.0
C      1  0.5679120000000  0.4495550000000  0.4386350000000 1.0
C      1  0.4163660000000  0.4999550000000  0.5582580000000 1.0
C      1  0.5145470000000  0.4382440000000  0.4322570000000 1.0
C      1  0.4797740000000  0.4678020000000  0.4935870000000 1.0
C      1  0.4677320000000  0.4440190000000  0.4192210000000 1.0
C      1  0.4586720000000  0.4731740000000  0.4674730000000 1.0
C      1  0.5014180000000  0.5510160000000  0.4815130000000 1.0
C      1  0.4220870000000  0.4324200000000  0.5281920000000 1.0
C      1  0.4376090000000  0.4777960000000  0.4411700000000 1.0
C      1  0.4941360000000  0.3949640000000  0.4944360000000 1.0
C      1  0.4473200000000  0.5546170000000  0.4998300000000 1.0
C      1  0.4926790000000  0.5898400000000  0.5419650000000 1.0
C      1  0.5387350000000  0.5460810000000  0.4060000000000 1.0
C      1  0.4298880000000  0.4149380000000  0.5021000000000 1.0
C      1  0.4992790000000  0.5198550000000  0.5501310000000 1.0
C      1  0.4553340000000  0.5076740000000  0.5579690000000 1.0
C      1  0.5757750000000  0.5587950000000  0.5094130000000 1.0
C      1  0.4159840000000  0.5495070000000  0.5120250000000 1.0
C      1  0.4986340000000  0.4580570000000  0.5859340000000 1.0
C      1  0.4599100000000  0.5889850000000  0.4571780000000 1.0
C      1  0.4897010000000  0.4992490000000  0.4937960000000 1.0
C      1  0.5904880000000  0.5153250000000  0.4489950000000 1.0
C      1  0.5420030000000  0.4826580000000  0.4874120000000 1.0
C      1  0.5365370000000  0.5511300000000  0.5439640000000 1.0
C      1  0.5254500000000  0.6103980000000  0.5323950000000 1.0
C      1  0.6135060000000  0.5006090000000  0.4653950000000 1.0
C      1  0.4471850000000  0.4283070000000  0.4337280000000 1.0
C      1  0.4163670000000  0.5498840000000  0.5427970000000 1.0
C      1  0.4848420000000  0.4367700000000  0.4455920000000 1.0
C      1  0.5084360000000  0.4755630000000  0.4676530000000 1.0
C      1  0.5115410000000  0.4457990000000  0.4840580000000 1.0
C      1  0.5312920000000  0.4243770000000  0.4735800000000 1.0
C      1  0.4027070000000  0.5216150000000  0.5001180000000 1.0
C      1  0.5220670000000  0.5184110000000  0.5118900000000 1.0
C      1  0.5446220000000  0.4941360000000  0.4061860000000 1.0
C      1  0.4635100000000  0.5442670000000  0.4715160000000 1.0
C      1  0.5488830000000  0.5478280000000  0.5124560000000 1.0
C      1  0.4189490000000  0.5258800000000  0.4516460000000 1.0
C      1  0.4461680000000  0.4919510000000  0.5292490000000 1.0
C      1  0.5596640000000  0.4199900000000  0.5194160000000 1.0
C      1  0.5681340000000  0.5098190000000  0.5930700000000 1.0
C      1  0.5385250000000  0.5647880000000  0.4777910000000 1.0
C      1  0.5114340000000  0.3989770000000  0.5187360000000 1.0
C      1  0.4251460000000  0.4463870000000  0.4375760000000 1.0
C      1  0.5270740000000  0.4838570000000  0.5408360000000 1.0
C      1  0.4907990000000  0.4325020000000  0.5321240000000 1.0
C      1  0.5586390000000  0.4885690000000  0.5683520000000 1.0
C      1  0.5677900000000  0.5575800000000  0.5557080000000 1.0
C      1  0.5095110000000  0.5324760000000  0.3988440000000 1.0
C      1  0.4783650000000  0.4834330000000  0.5361090000000 1.0
C      1  0.4536510000000  0.4410280000000  0.5206520000000 1.0
C      1  0.5794420000000  0.4583580000000  0.4887200000000 1.0
C      1  0.4709050000000  0.5292560000000  0.6030550000000 1.0
C      1  0.5162820000000  0.5719470000000  0.5264850000000 1.0
END
