TITL C-2848501-3133-141 -0.00160845410958102 125000 -906.508816576548 0 0 165 (C1) n - 1
REM
REM in /home/bkarasulu/work/CARBON/AIRSS/Generating-Clusters/AIREBO/with-SteepDescent/Only-C1/SD-CG-opt/Try1-1.4A-POS3A/HFTN-CG
REM
REM
REM
REM
REM
REM ./C.cell (11c1c37f851c82e70ff6c80c92926a4b)
REM
REM compiler GCC version 9.2.1 20190827 (Red Hat 9.2.1-1)
REM options -cpp -mtune=generic -march=x86-64 -g -O0 -fpre-include=/usr/include/finclude/math-vector-fortran.h
REM seed -1966911119 1494465613 -90893299 -1834027485 1429985557 1091942261 17018439 -745987965 -1084222710 56249580 -1124475107 -2133685453 1006032500 1349503091 1851951660 1903126269 -1269649823 -1868250331 516427465 -1106195979 -1252463770 714760104 1932449062 759562497 -713239543 927189573 378200329 1987229862 762590191 -1498253932 1881306264 1285359537 1915470689
REM
CELL 1.54180   50.00000   50.00000   50.00000   90.00000   90.00000   90.00000
LATT -1
SFAC C  
C      1  0.5332320000000  0.5661920000000  0.4122440000000 1.0
C      1  0.4595770000000  0.4605780000000  0.5855510000000 1.0
C      1  0.4371680000000  0.5226670000000  0.4522120000000 1.0
C      1  0.5091450000000  0.4802840000000  0.5727050000000 1.0
C      1  0.4430180000000  0.4112440000000  0.5686340000000 1.0
C      1  0.5095600000000  0.5979320000000  0.4708760000000 1.0
C      1  0.5182210000000  0.5250580000000  0.3837760000000 1.0
C      1  0.5211510000000  0.6056330000000  0.5257970000000 1.0
C      1  0.5858300000000  0.5745110000000  0.5131380000000 1.0
C      1  0.4019540000000  0.4803130000000  0.5179490000000 1.0
C      1  0.4014280000000  0.4433190000000  0.4477000000000 1.0
C      1  0.4685970000000  0.5698120000000  0.5301150000000 1.0
C      1  0.4703250000000  0.5707130000000  0.3954840000000 1.0
C      1  0.4334410000000  0.4776490000000  0.5204760000000 1.0
C      1  0.4898160000000  0.4731900000000  0.5244400000000 1.0
C      1  0.4974690000000  0.5192360000000  0.4301860000000 1.0
C      1  0.5315720000000  0.5118070000000  0.5818210000000 1.0
C      1  0.4332180000000  0.5038320000000  0.5646880000000 1.0
C      1  0.4888010000000  0.4109770000000  0.5437730000000 1.0
C      1  0.4425110000000  0.5541390000000  0.4439020000000 1.0
C      1  0.5042080000000  0.5072010000000  0.4000880000000 1.0
C      1  0.4787290000000  0.4589370000000  0.6079190000000 1.0
C      1  0.5637090000000  0.5017840000000  0.4027340000000 1.0
C      1  0.4065230000000  0.4391710000000  0.5326960000000 1.0
C      1  0.4624430000000  0.4903230000000  0.5723750000000 1.0
C      1  0.4401820000000  0.4923750000000  0.4266190000000 1.0
C      1  0.5740640000000  0.4571630000000  0.5260520000000 1.0
C      1  0.4761470000000  0.5428460000000  0.4620500000000 1.0
C      1  0.5269240000000  0.4439630000000  0.5375750000000 1.0
C      1  0.4552930000000  0.4410340000000  0.5577560000000 1.0
C      1  0.5439950000000  0.4956310000000  0.4216560000000 1.0
C      1  0.4538480000000  0.5756850000000  0.4657800000000 1.0
C      1  0.4520400000000  0.4306050000000  0.4308030000000 1.0
C      1  0.4605930000000  0.6366070000000  0.5021360000000 1.0
C      1  0.5740770000000  0.5852100000000  0.5365380000000 1.0
C      1  0.5417860000000  0.4290940000000  0.5642980000000 1.0
C      1  0.5813070000000  0.5364710000000  0.4298910000000 1.0
C      1  0.4830840000000  0.4413720000000  0.4227910000000 1.0
C      1  0.4119370000000  0.5049790000000  0.4407580000000 1.0
C      1  0.5713890000000  0.4842890000000  0.5919610000000 1.0
C      1  0.5090360000000  0.6104880000000  0.5006510000000 1.0
C      1  0.6112580000000  0.5041890000000  0.5178870000000 1.0
C      1  0.4328970000000  0.4716920000000  0.5701770000000 1.0
C      1  0.5119490000000  0.4918210000000  0.4968560000000 1.0
C      1  0.5005520000000  0.5592150000000  0.4058400000000 1.0
C      1  0.4471490000000  0.4993260000000  0.5353580000000 1.0
C      1  0.4267630000000  0.4328310000000  0.4489660000000 1.0
C      1  0.4473770000000  0.5360190000000  0.5835630000000 1.0
C      1  0.4415200000000  0.5322620000000  0.5353730000000 1.0
C      1  0.4946540000000  0.5135690000000  0.4819830000000 1.0
C      1  0.4871210000000  0.5505450000000  0.5500050000000 1.0
C      1  0.5233590000000  0.4025460000000  0.5109790000000 1.0
C      1  0.4726250000000  0.5446120000000  0.5974200000000 1.0
C      1  0.5120520000000  0.4708790000000  0.4545880000000 1.0
C      1  0.5595530000000  0.4558520000000  0.5569260000000 1.0
C      1  0.5637300000000  0.5451890000000  0.5282250000000 1.0
C      1  0.5673940000000  0.4250570000000  0.5190590000000 1.0
C      1  0.5869840000000  0.4321580000000  0.4601330000000 1.0
C      1  0.5816720000000  0.4791570000000  0.5636670000000 1.0
C      1  0.5609240000000  0.4404510000000  0.4922090000000 1.0
C      1  0.4647180000000  0.5274270000000  0.5576950000000 1.0
C      1  0.5419560000000  0.4597270000000  0.4635300000000 1.0
C      1  0.5394670000000  0.4727840000000  0.4345430000000 1.0
C      1  0.5477210000000  0.3971250000000  0.4710100000000 1.0
C      1  0.4601620000000  0.4576270000000  0.4498020000000 1.0
C      1  0.5412970000000  0.5076460000000  0.5001560000000 1.0
C      1  0.5086360000000  0.5013300000000  0.5293430000000 1.0
C      1  0.4312990000000  0.5583900000000  0.4817490000000 1.0
C      1  0.5113680000000  0.5434480000000  0.5265720000000 1.0
C      1  0.4165570000000  0.5218320000000  0.5147780000000 1.0
C      1  0.5441310000000  0.4171880000000  0.4105260000000 1.0
C      1  0.5291370000000  0.3817730000000  0.4766640000000 1.0
C      1  0.4188570000000  0.5302350000000  0.5720770000000 1.0
C      1  0.5615830000000  0.4878950000000  0.5185680000000 1.0
C      1  0.4602190000000  0.4319960000000  0.5248060000000 1.0
C      1  0.5051420000000  0.5020760000000  0.6008730000000 1.0
C      1  0.4879600000000  0.4840240000000  0.6198150000000 1.0
C      1  0.5581460000000  0.5669910000000  0.4672320000000 1.0
C      1  0.5092600000000  0.4593980000000  0.4864800000000 1.0
C      1  0.5334810000000  0.5384780000000  0.5044470000000 1.0
C      1  0.4859750000000  0.4134880000000  0.4789080000000 1.0
C      1  0.5582550000000  0.4740390000000  0.4876370000000 1.0
C      1  0.3994130000000  0.5213510000000  0.4650300000000 1.0
C      1  0.4235040000000  0.4589290000000  0.4788770000000 1.0
C      1  0.5329790000000  0.4487540000000  0.5060860000000 1.0
C      1  0.4060970000000  0.5493980000000  0.4647570000000 1.0
C      1  0.4791540000000  0.5920670000000  0.4815940000000 1.0
C      1  0.5253970000000  0.5547190000000  0.5644360000000 1.0
C      1  0.6065210000000  0.4862330000000  0.4495710000000 1.0
C      1  0.5401870000000  0.5937060000000  0.4605380000000 1.0
C      1  0.5216830000000  0.5479010000000  0.5959360000000 1.0
C      1  0.4910890000000  0.5625780000000  0.4828660000000 1.0
C      1  0.4281470000000  0.4560550000000  0.5438340000000 1.0
C      1  0.5533160000000  0.4276480000000  0.4616340000000 1.0
C      1  0.4841820000000  0.4465000000000  0.5055080000000 1.0
C      1  0.5632220000000  0.5049240000000  0.4743050000000 1.0
C      1  0.4982860000000  0.4175820000000  0.5165200000000 1.0
C      1  0.5341980000000  0.5474690000000  0.3879180000000 1.0
C      1  0.4495530000000  0.5046330000000  0.4759260000000 1.0
C      1  0.5087640000000  0.5849770000000  0.4413270000000 1.0
C      1  0.5455600000000  0.5959130000000  0.5313210000000 1.0
C      1  0.5676890000000  0.5356130000000  0.4596570000000 1.0
C      1  0.5431370000000  0.4810860000000  0.5733080000000 1.0
C      1  0.5014540000000  0.3870510000000  0.4911110000000 1.0
C      1  0.5965320000000  0.4983010000000  0.4726560000000 1.0
C      1  0.5998710000000  0.4405360000000  0.4831380000000 1.0
C      1  0.4767840000000  0.5978460000000  0.5317130000000 1.0
C      1  0.4583550000000  0.4038030000000  0.5437270000000 1.0
C      1  0.5143800000000  0.4154630000000  0.5658810000000 1.0
C      1  0.4750400000000  0.5025000000000  0.5242240000000 1.0
C      1  0.3933430000000  0.4513430000000  0.5038140000000 1.0
C      1  0.4243090000000  0.5710270000000  0.5094370000000 1.0
C      1  0.5606200000000  0.5223260000000  0.5859010000000 1.0
C      1  0.5836580000000  0.5195820000000  0.4088510000000 1.0
C      1  0.4722530000000  0.5239250000000  0.5025210000000 1.0
C      1  0.5976610000000  0.5303640000000  0.4737320000000 1.0
C      1  0.6047740000000  0.5535160000000  0.5139080000000 1.0
C      1  0.4401740000000  0.5621210000000  0.5298740000000 1.0
C      1  0.4877860000000  0.4852890000000  0.4115460000000 1.0
C      1  0.3964850000000  0.5111820000000  0.4919020000000 1.0
C      1  0.4040250000000  0.5240000000000  0.5463230000000 1.0
C      1  0.5146000000000  0.5387260000000  0.4785840000000 1.0
C      1  0.4999140000000  0.5325830000000  0.6033030000000 1.0
C      1  0.4456210000000  0.4114780000000  0.5038710000000 1.0
C      1  0.4606410000000  0.4669060000000  0.4170900000000 1.0
C      1  0.5039460000000  0.4609050000000  0.5484160000000 1.0
C      1  0.4850970000000  0.5507000000000  0.5104890000000 1.0
C      1  0.5060430000000  0.4320820000000  0.4388140000000 1.0
C      1  0.6052010000000  0.4861090000000  0.4987710000000 1.0
C      1  0.5416030000000  0.4157240000000  0.5268290000000 1.0
C      1  0.5065570000000  0.5820560000000  0.5650820000000 1.0
C      1  0.5342870000000  0.5374210000000  0.4535670000000 1.0
C      1  0.5337120000000  0.4273030000000  0.4337910000000 1.0
C      1  0.4880080000000  0.5624430000000  0.5795580000000 1.0
C      1  0.4482350000000  0.4068970000000  0.4157060000000 1.0
C      1  0.4578940000000  0.5214380000000  0.4268840000000 1.0
C      1  0.4437820000000  0.4789470000000  0.4910780000000 1.0
C      1  0.5070350000000  0.5508740000000  0.4381600000000 1.0
C      1  0.5787380000000  0.5186290000000  0.5691430000000 1.0
C      1  0.5971650000000  0.4599430000000  0.5036010000000 1.0
C      1  0.5050040000000  0.4564280000000  0.5964600000000 1.0
C      1  0.4631790000000  0.4565600000000  0.4807290000000 1.0
C      1  0.4414950000000  0.5306160000000  0.4947230000000 1.0
C      1  0.5010550000000  0.4325560000000  0.4672680000000 1.0
C      1  0.5164580000000  0.5236730000000  0.5537710000000 1.0
C      1  0.5486840000000  0.5657490000000  0.5480490000000 1.0
C      1  0.4751330000000  0.5105340000000  0.4543040000000 1.0
C      1  0.6138480000000  0.5457540000000  0.4883260000000 1.0
C      1  0.4791930000000  0.5695080000000  0.4440380000000 1.0
C      1  0.5462720000000  0.5729790000000  0.4357470000000 1.0
C      1  0.5012240000000  0.6002230000000  0.5450200000000 1.0
C      1  0.4853190000000  0.4801480000000  0.4450670000000 1.0
C      1  0.5793700000000  0.5011140000000  0.5413970000000 1.0
C      1  0.4890250000000  0.5062290000000  0.5637760000000 1.0
C      1  0.4678480000000  0.3915950000000  0.4937790000000 1.0
C      1  0.4889450000000  0.4375200000000  0.5611150000000 1.0
C      1  0.5911480000000  0.5286660000000  0.5278560000000 1.0
C      1  0.4138630000000  0.4237530000000  0.5048530000000 1.0
C      1  0.3931850000000  0.4585640000000  0.4720980000000 1.0
C      1  0.4707770000000  0.5447720000000  0.4139350000000 1.0
C      1  0.4754410000000  0.6136550000000  0.5048360000000 1.0
C      1  0.4346390000000  0.4286420000000  0.4785970000000 1.0
C      1  0.5286000000000  0.5160960000000  0.4316720000000 1.0
C      1  0.5587350000000  0.5603890000000  0.4981890000000 1.0
C      1  0.3916900000000  0.4983050000000  0.5354290000000 1.0
END
