TITL C-2847954-6904-721 -0.0025022201659088 125000 -1028.64573153226 0 0 183 (C1) n - 1
REM
REM in /home/bkarasulu/work/CARBON/AIRSS/Generating-Clusters/AIREBO/with-SteepDescent/Only-C1/SD-CG-opt/Try1-1.4A-POS3A/HFTN-CG
REM
REM
REM
REM
REM
REM ./C.cell (11c1c37f851c82e70ff6c80c92926a4b)
REM
REM compiler GCC version 9.2.1 20190827 (Red Hat 9.2.1-1)
REM options -cpp -mtune=generic -march=x86-64 -g -O0 -fpre-include=/usr/include/finclude/math-vector-fortran.h
REM seed 1910676125 -746322690 -729137677 -933425866 1614751367 -885929996 1456934934 -1673890223 970261025 1980572376 -1387792597 -822938202 -918014196 -766354367 609597137 399273727 -454853000 -141322436 -244494417 376407153 -640504576 1156548772 1699145505 29571655 -1959852181 -1801737766 -1866970934 1950876810 1054684888 991042681 348217057 1140397257 1946787083
REM
CELL 1.54180   50.00000   50.00000   50.00000   90.00000   90.00000   90.00000
LATT -1
SFAC C  
C      1  0.4476860000000  0.5563350000000  0.4290860000000 1.0
C      1  0.4600530000000  0.4493470000000  0.4208800000000 1.0
C      1  0.5745940000000  0.4934650000000  0.5106610000000 1.0
C      1  0.4083930000000  0.5123060000000  0.5479740000000 1.0
C      1  0.5814750000000  0.4393950000000  0.5381580000000 1.0
C      1  0.4393710000000  0.4744620000000  0.5863910000000 1.0
C      1  0.4421960000000  0.5614900000000  0.5498600000000 1.0
C      1  0.4370830000000  0.4914990000000  0.4239550000000 1.0
C      1  0.4847610000000  0.4157200000000  0.5674850000000 1.0
C      1  0.4596010000000  0.4211960000000  0.4208420000000 1.0
C      1  0.5850320000000  0.5374080000000  0.4904010000000 1.0
C      1  0.4730030000000  0.3962570000000  0.4924910000000 1.0
C      1  0.5355480000000  0.4381640000000  0.4732690000000 1.0
C      1  0.6128160000000  0.5227370000000  0.4961420000000 1.0
C      1  0.4287910000000  0.4213170000000  0.4883100000000 1.0
C      1  0.5522690000000  0.5832020000000  0.4696010000000 1.0
C      1  0.4988760000000  0.5747500000000  0.4173310000000 1.0
C      1  0.4396640000000  0.5411540000000  0.4823730000000 1.0
C      1  0.3788180000000  0.5361140000000  0.5109190000000 1.0
C      1  0.4552440000000  0.5340180000000  0.4072850000000 1.0
C      1  0.5605730000000  0.4660420000000  0.5361590000000 1.0
C      1  0.5420010000000  0.6035170000000  0.4954510000000 1.0
C      1  0.5659740000000  0.5047540000000  0.4559270000000 1.0
C      1  0.4411710000000  0.5329270000000  0.5296500000000 1.0
C      1  0.4324690000000  0.5133170000000  0.4478600000000 1.0
C      1  0.5937180000000  0.5640410000000  0.5072310000000 1.0
C      1  0.5613860000000  0.5646220000000  0.4478570000000 1.0
C      1  0.6121580000000  0.5263810000000  0.4507080000000 1.0
C      1  0.4851350000000  0.5482640000000  0.4533300000000 1.0
C      1  0.4739960000000  0.4982470000000  0.5804390000000 1.0
C      1  0.5380680000000  0.4637490000000  0.4089800000000 1.0
C      1  0.5191070000000  0.5216380000000  0.3957510000000 1.0
C      1  0.4662530000000  0.4153870000000  0.5459630000000 1.0
C      1  0.5288250000000  0.5514550000000  0.5372380000000 1.0
C      1  0.5580900000000  0.4764200000000  0.4923850000000 1.0
C      1  0.5800590000000  0.5384400000000  0.5375900000000 1.0
C      1  0.5885610000000  0.5156510000000  0.5548530000000 1.0
C      1  0.5149830000000  0.4544180000000  0.5171440000000 1.0
C      1  0.5344350000000  0.4790430000000  0.5740820000000 1.0
C      1  0.4183030000000  0.4473850000000  0.4466000000000 1.0
C      1  0.4069430000000  0.4638950000000  0.4926570000000 1.0
C      1  0.4659230000000  0.5745360000000  0.5167730000000 1.0
C      1  0.4928530000000  0.5650950000000  0.5618720000000 1.0
C      1  0.4962870000000  0.6080400000000  0.5407660000000 1.0
C      1  0.4879050000000  0.5185580000000  0.4957390000000 1.0
C      1  0.5012600000000  0.3885630000000  0.4954930000000 1.0
C      1  0.4368010000000  0.4636350000000  0.4283270000000 1.0
C      1  0.3993540000000  0.5725100000000  0.4828280000000 1.0
C      1  0.5565700000000  0.5606530000000  0.5293670000000 1.0
C      1  0.5183680000000  0.4300820000000  0.4971330000000 1.0
C      1  0.5103620000000  0.4984620000000  0.5244850000000 1.0
C      1  0.4000750000000  0.5529940000000  0.4622400000000 1.0
C      1  0.5476950000000  0.5698390000000  0.5889200000000 1.0
C      1  0.5306010000000  0.3863310000000  0.5551580000000 1.0
C      1  0.5281430000000  0.4655950000000  0.4606680000000 1.0
C      1  0.4120310000000  0.4899220000000  0.4549630000000 1.0
C      1  0.4837770000000  0.5324320000000  0.5265070000000 1.0
C      1  0.3923260000000  0.5283690000000  0.4729470000000 1.0
C      1  0.4891040000000  0.4259020000000  0.4882080000000 1.0
C      1  0.5322310000000  0.5350010000000  0.5623240000000 1.0
C      1  0.4994550000000  0.4154650000000  0.4510690000000 1.0
C      1  0.5349370000000  0.4256500000000  0.5561260000000 1.0
C      1  0.4984960000000  0.5155050000000  0.5795210000000 1.0
C      1  0.3887920000000  0.5614160000000  0.5075140000000 1.0
C      1  0.4536670000000  0.5079310000000  0.5179860000000 1.0
C      1  0.4489000000000  0.4442550000000  0.4610960000000 1.0
C      1  0.5836490000000  0.5413470000000  0.4583860000000 1.0
C      1  0.4957510000000  0.5304570000000  0.6095360000000 1.0
C      1  0.5920270000000  0.4580740000000  0.4821720000000 1.0
C      1  0.4858940000000  0.4650970000000  0.4210710000000 1.0
C      1  0.5322010000000  0.5012640000000  0.6203230000000 1.0
C      1  0.5781710000000  0.4200040000000  0.4978570000000 1.0
C      1  0.4106740000000  0.4727110000000  0.5451860000000 1.0
C      1  0.5493830000000  0.4587880000000  0.4396010000000 1.0
C      1  0.5141500000000  0.5474140000000  0.4258290000000 1.0
C      1  0.4826990000000  0.4561080000000  0.5248620000000 1.0
C      1  0.4251560000000  0.5843370000000  0.4891090000000 1.0
C      1  0.4734980000000  0.5454780000000  0.3851820000000 1.0
C      1  0.4093710000000  0.5675910000000  0.5283570000000 1.0
C      1  0.5303050000000  0.4021760000000  0.5068670000000 1.0
C      1  0.4430940000000  0.5017430000000  0.4877280000000 1.0
C      1  0.4726890000000  0.4808420000000  0.5562070000000 1.0
C      1  0.3974180000000  0.5096520000000  0.5195800000000 1.0
C      1  0.6045340000000  0.4860940000000  0.4828930000000 1.0
C      1  0.3902660000000  0.4992990000000  0.4709020000000 1.0
C      1  0.4696890000000  0.5786110000000  0.4325350000000 1.0
C      1  0.5610380000000  0.4455780000000  0.4884700000000 1.0
C      1  0.5295490000000  0.4581840000000  0.5476460000000 1.0
C      1  0.4697540000000  0.4094000000000  0.4439770000000 1.0
C      1  0.4431570000000  0.4668890000000  0.5463200000000 1.0
C      1  0.5235190000000  0.5889560000000  0.5140100000000 1.0
C      1  0.4960390000000  0.4582680000000  0.5547160000000 1.0
C      1  0.4553410000000  0.4125190000000  0.4714800000000 1.0
C      1  0.4120920000000  0.5460390000000  0.5534810000000 1.0
C      1  0.5784210000000  0.4474810000000  0.4528000000000 1.0
C      1  0.5452620000000  0.5853130000000  0.5660210000000 1.0
C      1  0.5398660000000  0.5427690000000  0.4933350000000 1.0
C      1  0.5173620000000  0.5820290000000  0.5467300000000 1.0
C      1  0.4372430000000  0.5605550000000  0.5101950000000 1.0
C      1  0.5457340000000  0.5043130000000  0.5938660000000 1.0
C      1  0.5039760000000  0.5038470000000  0.6204010000000 1.0
C      1  0.5223290000000  0.5056700000000  0.5616630000000 1.0
C      1  0.4807310000000  0.4438930000000  0.5807760000000 1.0
C      1  0.5646500000000  0.3975620000000  0.4591840000000 1.0
C      1  0.4163280000000  0.5191710000000  0.4937430000000 1.0
C      1  0.5186220000000  0.5977520000000  0.4280970000000 1.0
C      1  0.4417570000000  0.4352980000000  0.5506830000000 1.0
C      1  0.5220980000000  0.5889070000000  0.4604380000000 1.0
C      1  0.5687390000000  0.5839680000000  0.5489870000000 1.0
C      1  0.4537950000000  0.4393160000000  0.5010630000000 1.0
C      1  0.4486690000000  0.4476570000000  0.5806390000000 1.0
C      1  0.5292780000000  0.4221520000000  0.4460290000000 1.0
C      1  0.4715320000000  0.6039640000000  0.4905440000000 1.0
C      1  0.4196880000000  0.4889280000000  0.5700250000000 1.0
C      1  0.3914410000000  0.4866990000000  0.4968740000000 1.0
C      1  0.4984570000000  0.4580610000000  0.6016300000000 1.0
C      1  0.5124210000000  0.5363220000000  0.5123440000000 1.0
C      1  0.5744730000000  0.4153850000000  0.5249320000000 1.0
C      1  0.5945210000000  0.5693150000000  0.5372010000000 1.0
C      1  0.5194610000000  0.5694240000000  0.4878060000000 1.0
C      1  0.5633140000000  0.4934300000000  0.5505280000000 1.0
C      1  0.4780440000000  0.6048710000000  0.5211060000000 1.0
C      1  0.5336090000000  0.4888800000000  0.4807640000000 1.0
C      1  0.5962340000000  0.5037070000000  0.4628710000000 1.0
C      1  0.6127770000000  0.5037750000000  0.5438910000000 1.0
C      1  0.4818740000000  0.5017530000000  0.5359380000000 1.0
C      1  0.5051640000000  0.5238240000000  0.4603270000000 1.0
C      1  0.4969030000000  0.5207780000000  0.4214870000000 1.0
C      1  0.5125190000000  0.4694100000000  0.4012310000000 1.0
C      1  0.4695870000000  0.5239590000000  0.4364390000000 1.0
C      1  0.4697140000000  0.5364510000000  0.4788420000000 1.0
C      1  0.4732530000000  0.5561650000000  0.5410460000000 1.0
C      1  0.5044150000000  0.4953510000000  0.3868860000000 1.0
C      1  0.4340200000000  0.4720800000000  0.4737850000000 1.0
C      1  0.5133310000000  0.4995110000000  0.4393170000000 1.0
C      1  0.5873780000000  0.4623190000000  0.5154510000000 1.0
C      1  0.5634140000000  0.5342970000000  0.4316450000000 1.0
C      1  0.4360490000000  0.5244570000000  0.5621840000000 1.0
C      1  0.5771920000000  0.4783140000000  0.4381830000000 1.0
C      1  0.5394680000000  0.5096960000000  0.5325540000000 1.0
C      1  0.5252980000000  0.4567690000000  0.5937590000000 1.0
C      1  0.4759570000000  0.4250890000000  0.5194470000000 1.0
C      1  0.4945320000000  0.5488170000000  0.5837890000000 1.0
C      1  0.4979310000000  0.4720160000000  0.4521240000000 1.0
C      1  0.4921780000000  0.5984160000000  0.4486070000000 1.0
C      1  0.4787120000000  0.4901870000000  0.4014850000000 1.0
C      1  0.4583410000000  0.4860950000000  0.6073790000000 1.0
C      1  0.4320460000000  0.4238700000000  0.5221520000000 1.0
C      1  0.5380880000000  0.5201250000000  0.4679940000000 1.0
C      1  0.4550320000000  0.5026480000000  0.4059590000000 1.0
C      1  0.4823830000000  0.4430410000000  0.4614490000000 1.0
C      1  0.4615780000000  0.5027160000000  0.4591530000000 1.0
C      1  0.4881090000000  0.5743310000000  0.4909030000000 1.0
C      1  0.4856260000000  0.4890110000000  0.4789110000000 1.0
C      1  0.4494720000000  0.5173300000000  0.5843900000000 1.0
C      1  0.4876440000000  0.4810840000000  0.6138390000000 1.0
C      1  0.5753900000000  0.5182890000000  0.5848570000000 1.0
C      1  0.5471050000000  0.4045960000000  0.5322510000000 1.0
C      1  0.5397490000000  0.5122210000000  0.4210740000000 1.0
C      1  0.4632260000000  0.4673600000000  0.4905420000000 1.0
C      1  0.5568300000000  0.4876380000000  0.4136020000000 1.0
C      1  0.5775120000000  0.4858270000000  0.5787930000000 1.0
C      1  0.5354050000000  0.5443890000000  0.4443120000000 1.0
C      1  0.5706010000000  0.6005620000000  0.5056130000000 1.0
C      1  0.4463670000000  0.5968010000000  0.4764660000000 1.0
C      1  0.4573720000000  0.4749450000000  0.5199170000000 1.0
C      1  0.4493430000000  0.4069580000000  0.4004180000000 1.0
C      1  0.5162960000000  0.3935110000000  0.4705900000000 1.0
C      1  0.4287730000000  0.5453200000000  0.4503740000000 1.0
C      1  0.5822110000000  0.4181920000000  0.4684660000000 1.0
C      1  0.4101600000000  0.4400880000000  0.4748430000000 1.0
C      1  0.5489160000000  0.4055840000000  0.4369460000000 1.0
C      1  0.4206850000000  0.5848750000000  0.5553630000000 1.0
C      1  0.5619720000000  0.5250030000000  0.5121260000000 1.0
C      1  0.5093580000000  0.4051330000000  0.5647050000000 1.0
C      1  0.5509220000000  0.5395410000000  0.5855800000000 1.0
C      1  0.4658670000000  0.5736520000000  0.4651710000000 1.0
C      1  0.5613680000000  0.5687500000000  0.4978780000000 1.0
C      1  0.5453040000000  0.3896110000000  0.4787260000000 1.0
C      1  0.6078510000000  0.4965030000000  0.5142400000000 1.0
C      1  0.5376870000000  0.4332770000000  0.5874320000000 1.0
C      1  0.5109340000000  0.4814960000000  0.4999480000000 1.0
C      1  0.5002590000000  0.5499650000000  0.3943620000000 1.0
END
