TITL C-2847947-6848-675 -0.000423511998643554 125000 -1062.22373943115 0 0 199 (C1) n - 1
REM
REM in /home/bkarasulu/work/CARBON/AIRSS/Generating-Clusters/AIREBO/with-SteepDescent/Only-C1/SD-CG-opt/Try1-1.4A-POS3A/HFTN-CG
REM
REM
REM
REM
REM
REM ./C.cell (11c1c37f851c82e70ff6c80c92926a4b)
REM
REM compiler GCC version 9.2.1 20190827 (Red Hat 9.2.1-1)
REM options -cpp -mtune=generic -march=x86-64 -g -O0 -fpre-include=/usr/include/finclude/math-vector-fortran.h
REM seed -1154991725 1163888881 -637020635 -212644608 -1499995042 -1715285779 -1149654550 -1240316273 20586862 76572631 482990308 1982400242 -2060872113 1220886494 -754359446 -432039026 -1242871923 577717187 1384746178 -962868925 804006359 2117945349 342380870 -1765267131 759712339 -1092683871 -1129310661 1824897314 -149759802 -1962159065 -1983660684 -410265195 -696364930
REM
CELL 1.54180   50.00000   50.00000   50.00000   90.00000   90.00000   90.00000
LATT -1
SFAC C  
C      1  0.6219940000000  0.4942760000000  0.4813390000000 1.0
C      1  0.4029460000000  0.5374190000000  0.4852820000000 1.0
C      1  0.4427030000000  0.5700850000000  0.4467740000000 1.0
C      1  0.5063150000000  0.4594170000000  0.4307680000000 1.0
C      1  0.5664080000000  0.5319560000000  0.6124160000000 1.0
C      1  0.4781200000000  0.4619530000000  0.5174270000000 1.0
C      1  0.5327850000000  0.5826140000000  0.4734820000000 1.0
C      1  0.5027620000000  0.5913660000000  0.5276450000000 1.0
C      1  0.4853400000000  0.5915440000000  0.5034890000000 1.0
C      1  0.5438570000000  0.5462400000000  0.5699870000000 1.0
C      1  0.5172210000000  0.4434960000000  0.5818650000000 1.0
C      1  0.5204940000000  0.4684750000000  0.3932570000000 1.0
C      1  0.4550560000000  0.4794660000000  0.4995770000000 1.0
C      1  0.5359710000000  0.5164690000000  0.4806080000000 1.0
C      1  0.4779530000000  0.5503850000000  0.4053220000000 1.0
C      1  0.5764680000000  0.5158450000000  0.4553470000000 1.0
C      1  0.4400780000000  0.3955970000000  0.5240670000000 1.0
C      1  0.5641700000000  0.5494470000000  0.4828120000000 1.0
C      1  0.4051970000000  0.4651910000000  0.5471670000000 1.0
C      1  0.4431060000000  0.5950500000000  0.5253610000000 1.0
C      1  0.4959510000000  0.4076980000000  0.5303490000000 1.0
C      1  0.4621060000000  0.6094880000000  0.5100080000000 1.0
C      1  0.4926150000000  0.4184340000000  0.4829840000000 1.0
C      1  0.5185260000000  0.4575280000000  0.5332490000000 1.0
C      1  0.4740480000000  0.4653630000000  0.4359060000000 1.0
C      1  0.4280680000000  0.4139380000000  0.5449710000000 1.0
C      1  0.5001220000000  0.4969000000000  0.5232680000000 1.0
C      1  0.4122190000000  0.4616430000000  0.4325330000000 1.0
C      1  0.4256240000000  0.5552660000000  0.4275290000000 1.0
C      1  0.4561390000000  0.4520050000000  0.4810900000000 1.0
C      1  0.4487250000000  0.4344460000000  0.5500500000000 1.0
C      1  0.5409150000000  0.4742640000000  0.4676020000000 1.0
C      1  0.3898230000000  0.4872070000000  0.5059300000000 1.0
C      1  0.4737730000000  0.5634220000000  0.5004860000000 1.0
C      1  0.4587920000000  0.3768460000000  0.5137060000000 1.0
C      1  0.3873050000000  0.4271520000000  0.4977370000000 1.0
C      1  0.5218660000000  0.4093370000000  0.4694200000000 1.0
C      1  0.5644270000000  0.5647990000000  0.4524550000000 1.0
C      1  0.5018670000000  0.5642530000000  0.5878220000000 1.0
C      1  0.6099610000000  0.5161560000000  0.4497900000000 1.0
C      1  0.5588920000000  0.5064440000000  0.4312330000000 1.0
C      1  0.4936170000000  0.5322660000000  0.5959060000000 1.0
C      1  0.5239690000000  0.5064550000000  0.5455460000000 1.0
C      1  0.4293760000000  0.4506910000000  0.5167090000000 1.0
C      1  0.5858060000000  0.4311870000000  0.5057540000000 1.0
C      1  0.5385560000000  0.4784830000000  0.5406020000000 1.0
C      1  0.5532950000000  0.4380700000000  0.5314530000000 1.0
C      1  0.4985730000000  0.5660280000000  0.4585970000000 1.0
C      1  0.4755220000000  0.3932150000000  0.4686720000000 1.0
C      1  0.4345930000000  0.4582400000000  0.4578410000000 1.0
C      1  0.4863760000000  0.4766990000000  0.5469330000000 1.0
C      1  0.5325160000000  0.5487290000000  0.4703950000000 1.0
C      1  0.4169750000000  0.5548410000000  0.5180600000000 1.0
C      1  0.5518340000000  0.5558790000000  0.5140360000000 1.0
C      1  0.5083290000000  0.4613920000000  0.5018130000000 1.0
C      1  0.4043210000000  0.4308240000000  0.5492020000000 1.0
C      1  0.5806160000000  0.4638820000000  0.4405970000000 1.0
C      1  0.5912380000000  0.5448530000000  0.4538020000000 1.0
C      1  0.4741370000000  0.5793470000000  0.5751350000000 1.0
C      1  0.4229240000000  0.5822200000000  0.5098740000000 1.0
C      1  0.4792860000000  0.4265690000000  0.5533160000000 1.0
C      1  0.5106710000000  0.3921040000000  0.5069190000000 1.0
C      1  0.4589380000000  0.4347370000000  0.4366980000000 1.0
C      1  0.4807890000000  0.5220610000000  0.5332410000000 1.0
C      1  0.5081720000000  0.4000110000000  0.5602660000000 1.0
C      1  0.4370560000000  0.5089840000000  0.4102520000000 1.0
C      1  0.5095100000000  0.5280100000000  0.4262020000000 1.0
C      1  0.5610830000000  0.5454330000000  0.4245010000000 1.0
C      1  0.6010330000000  0.4541150000000  0.5098580000000 1.0
C      1  0.4614250000000  0.6360090000000  0.5037750000000 1.0
C      1  0.5302360000000  0.5503800000000  0.4379240000000 1.0
C      1  0.4698460000000  0.5142980000000  0.5794990000000 1.0
C      1  0.4578500000000  0.4974290000000  0.5283150000000 1.0
C      1  0.4213590000000  0.4806090000000  0.5037790000000 1.0
C      1  0.5761900000000  0.5286410000000  0.5420560000000 1.0
C      1  0.4065220000000  0.5120330000000  0.4651440000000 1.0
C      1  0.4733090000000  0.4792110000000  0.3850070000000 1.0
C      1  0.4870700000000  0.4485140000000  0.4786100000000 1.0
C      1  0.5409950000000  0.3934070000000  0.4915980000000 1.0
C      1  0.4459580000000  0.4232200000000  0.5105180000000 1.0
C      1  0.4852610000000  0.5054410000000  0.3861310000000 1.0
C      1  0.4402380000000  0.5415900000000  0.5895420000000 1.0
C      1  0.5662460000000  0.5886870000000  0.4766130000000 1.0
C      1  0.5965640000000  0.5537480000000  0.4861830000000 1.0
C      1  0.6175900000000  0.4951450000000  0.5397820000000 1.0
C      1  0.5602080000000  0.5799780000000  0.5565350000000 1.0
C      1  0.6142350000000  0.5105670000000  0.5096550000000 1.0
C      1  0.4812630000000  0.3827820000000  0.4968600000000 1.0
C      1  0.5730450000000  0.4347430000000  0.4504340000000 1.0
C      1  0.5690830000000  0.4784690000000  0.4850270000000 1.0
C      1  0.4758800000000  0.4562480000000  0.5696600000000 1.0
C      1  0.4214580000000  0.5655020000000  0.4802930000000 1.0
C      1  0.4448390000000  0.4811420000000  0.3970020000000 1.0
C      1  0.4291920000000  0.4259570000000  0.4485840000000 1.0
C      1  0.5692830000000  0.5375960000000  0.5855730000000 1.0
C      1  0.4394060000000  0.5405070000000  0.4062340000000 1.0
C      1  0.4024390000000  0.5182500000000  0.5630270000000 1.0
C      1  0.6026630000000  0.5700530000000  0.5120130000000 1.0
C      1  0.4533520000000  0.5605560000000  0.4784370000000 1.0
C      1  0.5114980000000  0.5752770000000  0.4289690000000 1.0
C      1  0.5427900000000  0.5338630000000  0.5383350000000 1.0
C      1  0.5578940000000  0.5946960000000  0.5330950000000 1.0
C      1  0.4905790000000  0.4568380000000  0.4007170000000 1.0
C      1  0.4923760000000  0.5722990000000  0.4064560000000 1.0
C      1  0.4369450000000  0.5194550000000  0.4409060000000 1.0
C      1  0.4670770000000  0.5466100000000  0.5692520000000 1.0
C      1  0.5519280000000  0.4631800000000  0.5066060000000 1.0
C      1  0.5216080000000  0.5270210000000  0.5790970000000 1.0
C      1  0.4499640000000  0.4649490000000  0.5362840000000 1.0
C      1  0.5324900000000  0.4178320000000  0.5136760000000 1.0
C      1  0.4602370000000  0.5354860000000  0.4565150000000 1.0
C      1  0.4255520000000  0.5218430000000  0.5383470000000 1.0
C      1  0.4749450000000  0.4680890000000  0.6000960000000 1.0
C      1  0.4951540000000  0.6186970000000  0.4614080000000 1.0
C      1  0.4041810000000  0.4318310000000  0.4714120000000 1.0
C      1  0.4280590000000  0.5047880000000  0.4844580000000 1.0
C      1  0.4613900000000  0.4896380000000  0.4686190000000 1.0
C      1  0.5333800000000  0.4418610000000  0.4896360000000 1.0
C      1  0.5981070000000  0.4715980000000  0.4865400000000 1.0
C      1  0.4659070000000  0.5270550000000  0.3895910000000 1.0
C      1  0.6081220000000  0.4766840000000  0.4559650000000 1.0
C      1  0.4591250000000  0.4447620000000  0.4052970000000 1.0
C      1  0.5019330000000  0.5338590000000  0.4696440000000 1.0
C      1  0.4036310000000  0.4925900000000  0.4437660000000 1.0
C      1  0.4312950000000  0.4946930000000  0.5935240000000 1.0
C      1  0.3922920000000  0.4579910000000  0.4598680000000 1.0
C      1  0.4980190000000  0.5391410000000  0.5570700000000 1.0
C      1  0.5516970000000  0.5079820000000  0.6145690000000 1.0
C      1  0.5972490000000  0.4692700000000  0.5351590000000 1.0
C      1  0.4370260000000  0.4884110000000  0.4486000000000 1.0
C      1  0.4909350000000  0.4781980000000  0.4624830000000 1.0
C      1  0.5961760000000  0.4862310000000  0.5646430000000 1.0
C      1  0.4276120000000  0.4574770000000  0.4065100000000 1.0
C      1  0.5463360000000  0.4378270000000  0.5652430000000 1.0
C      1  0.4723700000000  0.5644910000000  0.4435570000000 1.0
C      1  0.5049620000000  0.4645060000000  0.5958230000000 1.0
C      1  0.6140500000000  0.5273840000000  0.4813510000000 1.0
C      1  0.5186470000000  0.4885620000000  0.4276800000000 1.0
C      1  0.5827370000000  0.4699090000000  0.5849840000000 1.0
C      1  0.4829250000000  0.4022590000000  0.5768140000000 1.0
C      1  0.5087090000000  0.4413710000000  0.5529870000000 1.0
C      1  0.5381480000000  0.5220850000000  0.4115830000000 1.0
C      1  0.4388750000000  0.5508630000000  0.5507260000000 1.0
C      1  0.4594940000000  0.5177120000000  0.4855140000000 1.0
C      1  0.4947670000000  0.5711280000000  0.5493880000000 1.0
C      1  0.5437370000000  0.5013350000000  0.5821860000000 1.0
C      1  0.5538930000000  0.4101200000000  0.4645450000000 1.0
C      1  0.5497150000000  0.4771150000000  0.4354440000000 1.0
C      1  0.5657670000000  0.4333700000000  0.4836190000000 1.0
C      1  0.5321610000000  0.4088370000000  0.5685370000000 1.0
C      1  0.5155720000000  0.5015070000000  0.3963910000000 1.0
C      1  0.5725800000000  0.5109640000000  0.5143910000000 1.0
C      1  0.5435720000000  0.4601480000000  0.4066240000000 1.0
C      1  0.4625130000000  0.5495060000000  0.5275320000000 1.0
C      1  0.6097760000000  0.5268970000000  0.5370500000000 1.0
C      1  0.5049690000000  0.4220730000000  0.4451570000000 1.0
C      1  0.5236440000000  0.4472150000000  0.4573810000000 1.0
C      1  0.5143590000000  0.4884110000000  0.5859840000000 1.0
C      1  0.4210550000000  0.5203230000000  0.5864380000000 1.0
C      1  0.5377950000000  0.5893950000000  0.4405330000000 1.0
C      1  0.5532420000000  0.4691300000000  0.5766120000000 1.0
C      1  0.4598200000000  0.4920090000000  0.6017730000000 1.0
C      1  0.4522350000000  0.5813970000000  0.5490740000000 1.0
C      1  0.5453870000000  0.6141820000000  0.4721540000000 1.0
C      1  0.4653450000000  0.4936450000000  0.4212320000000 1.0
C      1  0.5151090000000  0.4897440000000  0.4834410000000 1.0
C      1  0.5447350000000  0.4957130000000  0.5134120000000 1.0
C      1  0.4785030000000  0.4135110000000  0.4459400000000 1.0
C      1  0.5004900000000  0.5927860000000  0.4766290000000 1.0
C      1  0.4348370000000  0.4269530000000  0.4820980000000 1.0
C      1  0.5336770000000  0.5796780000000  0.5053340000000 1.0
C      1  0.4435640000000  0.4532030000000  0.5751090000000 1.0
C      1  0.4092060000000  0.5494670000000  0.4533870000000 1.0
C      1  0.4270030000000  0.4767330000000  0.5678290000000 1.0
C      1  0.5846950000000  0.5221680000000  0.4167570000000 1.0
C      1  0.3973620000000  0.4450920000000  0.5208780000000 1.0
C      1  0.5323440000000  0.5748470000000  0.5753820000000 1.0
C      1  0.5738540000000  0.5097690000000  0.5687260000000 1.0
C      1  0.5790710000000  0.4160210000000  0.5291040000000 1.0
C      1  0.4766520000000  0.4284880000000  0.5115860000000 1.0
C      1  0.4414340000000  0.5325300000000  0.5102410000000 1.0
C      1  0.5735390000000  0.5808910000000  0.5063010000000 1.0
C      1  0.4919790000000  0.5123270000000  0.4940470000000 1.0
C      1  0.5297640000000  0.6017730000000  0.5257870000000 1.0
C      1  0.3953050000000  0.4957560000000  0.5383850000000 1.0
C      1  0.4759350000000  0.5252490000000  0.4281360000000 1.0
C      1  0.5264150000000  0.5243670000000  0.5100860000000 1.0
C      1  0.4462620000000  0.5027560000000  0.5574020000000 1.0
C      1  0.5961910000000  0.4926140000000  0.4294860000000 1.0
C      1  0.5793890000000  0.5603050000000  0.5543600000000 1.0
C      1  0.4962430000000  0.5000720000000  0.5642260000000 1.0
C      1  0.4032670000000  0.5176310000000  0.5129880000000 1.0
C      1  0.4971870000000  0.5410900000000  0.5097350000000 1.0
C      1  0.3779910000000  0.4728890000000  0.4790590000000 1.0
C      1  0.5647180000000  0.5088950000000  0.4813730000000 1.0
C      1  0.5088330000000  0.5968090000000  0.5666790000000 1.0
C      1  0.5037110000000  0.5068420000000  0.4493570000000 1.0
C      1  0.5677230000000  0.4651670000000  0.5461000000000 1.0
C      1  0.6038520000000  0.5570780000000  0.5371210000000 1.0
END
