TITL C-2848508-1660-161 0.0022043608565102 125000 -469.693365547522 0 0 88 (C1) n - 1
REM
REM in /home/bkarasulu/work/CARBON/AIRSS/Generating-Clusters/AIREBO/with-SteepDescent/Only-C1/SD-CG-opt/Try1-1.4A-POS3A/HFTN-CG
REM
REM
REM
REM
REM
REM ./C.cell (11c1c37f851c82e70ff6c80c92926a4b)
REM
REM compiler GCC version 9.2.1 20190827 (Red Hat 9.2.1-1)
REM options -cpp -mtune=generic -march=x86-64 -g -O0 -fpre-include=/usr/include/finclude/math-vector-fortran.h
REM seed -1441406664 -234685617 1735424132 368676561 235320831 1930964063 -1010856583 221184079 -1960305908 -1631932804 -957675860 -1003614425 2072105801 134498551 -372245696 -1384455260 -460907232 -614000269 678526466 -873297761 -961617771 -1288990388 -304483797 -1125377707 -161690573 -580449269 365588817 1362437494 544985498 1437136713 1278855832 229103025 258139971
REM
CELL 1.54180   50.00000   50.00000   50.00000   90.00000   90.00000   90.00000
LATT -1
SFAC C  
C      1  0.5684290000000  0.5513520000000  0.4908470000000 1.0
C      1  0.5077640000000  0.5354070000000  0.4939440000000 1.0
C      1  0.5565420000000  0.5098520000000  0.5692400000000 1.0
C      1  0.5577940000000  0.5728120000000  0.5149800000000 1.0
C      1  0.4830840000000  0.4375380000000  0.5338420000000 1.0
C      1  0.4242290000000  0.5376530000000  0.5267060000000 1.0
C      1  0.5280910000000  0.5244950000000  0.5699910000000 1.0
C      1  0.5510380000000  0.5074740000000  0.4350430000000 1.0
C      1  0.4622780000000  0.4613860000000  0.4733170000000 1.0
C      1  0.4792310000000  0.4842490000000  0.5841260000000 1.0
C      1  0.5326710000000  0.5707120000000  0.5373240000000 1.0
C      1  0.5009840000000  0.5604670000000  0.4775390000000 1.0
C      1  0.4071850000000  0.5178950000000  0.4880290000000 1.0
C      1  0.5106450000000  0.4567230000000  0.4564590000000 1.0
C      1  0.5046870000000  0.5079260000000  0.5811260000000 1.0
C      1  0.4202630000000  0.5394450000000  0.4986430000000 1.0
C      1  0.4565620000000  0.4940100000000  0.4954120000000 1.0
C      1  0.5159050000000  0.4882630000000  0.4681590000000 1.0
C      1  0.5008570000000  0.4849140000000  0.5486740000000 1.0
C      1  0.5276550000000  0.5595930000000  0.4565910000000 1.0
C      1  0.4626700000000  0.4858240000000  0.5369460000000 1.0
C      1  0.4910830000000  0.4268440000000  0.5033760000000 1.0
C      1  0.4545350000000  0.5257740000000  0.5296920000000 1.0
C      1  0.4907560000000  0.4915470000000  0.4174860000000 1.0
C      1  0.4838370000000  0.5123410000000  0.5405150000000 1.0
C      1  0.5286770000000  0.4863080000000  0.4366850000000 1.0
C      1  0.4934380000000  0.4558620000000  0.4857840000000 1.0
C      1  0.4497350000000  0.5316820000000  0.4520290000000 1.0
C      1  0.4706780000000  0.5436290000000  0.5064460000000 1.0
C      1  0.5193010000000  0.5788050000000  0.5076440000000 1.0
C      1  0.5823160000000  0.5028650000000  0.5269620000000 1.0
C      1  0.4772500000000  0.5231350000000  0.5713390000000 1.0
C      1  0.5364900000000  0.5224010000000  0.5370330000000 1.0
C      1  0.5625910000000  0.4850810000000  0.4574530000000 1.0
C      1  0.4859230000000  0.5194110000000  0.4614780000000 1.0
C      1  0.4833860000000  0.5138530000000  0.4993990000000 1.0
C      1  0.5179800000000  0.5196300000000  0.4551650000000 1.0
C      1  0.4561050000000  0.4895220000000  0.5691330000000 1.0
C      1  0.4565650000000  0.4530820000000  0.5321380000000 1.0
C      1  0.4464500000000  0.5193990000000  0.5721370000000 1.0
C      1  0.4853080000000  0.4373520000000  0.4513420000000 1.0
C      1  0.4235630000000  0.4922870000000  0.4894670000000 1.0
C      1  0.4464700000000  0.5448840000000  0.4825720000000 1.0
C      1  0.4789680000000  0.5401200000000  0.4368520000000 1.0
C      1  0.5804620000000  0.5286380000000  0.4798380000000 1.0
C      1  0.4802670000000  0.4205850000000  0.4724500000000 1.0
C      1  0.4436840000000  0.5039330000000  0.4442640000000 1.0
C      1  0.5010830000000  0.5169470000000  0.4254330000000 1.0
C      1  0.5094270000000  0.4917390000000  0.4988300000000 1.0
C      1  0.4410570000000  0.4425790000000  0.4883980000000 1.0
C      1  0.4274190000000  0.5348790000000  0.5574550000000 1.0
C      1  0.5413070000000  0.5705210000000  0.4835560000000 1.0
C      1  0.4916780000000  0.4565540000000  0.5815210000000 1.0
C      1  0.5507540000000  0.4259020000000  0.4631330000000 1.0
C      1  0.4904190000000  0.5882910000000  0.4935230000000 1.0
C      1  0.4671070000000  0.4502540000000  0.4352490000000 1.0
C      1  0.4678460000000  0.4815970000000  0.4356540000000 1.0
C      1  0.4745250000000  0.4924400000000  0.4668140000000 1.0
C      1  0.4190200000000  0.4748380000000  0.5153830000000 1.0
C      1  0.5695280000000  0.5193500000000  0.5444870000000 1.0
C      1  0.5625550000000  0.4895540000000  0.5069430000000 1.0
C      1  0.4876110000000  0.4349190000000  0.5658120000000 1.0
C      1  0.5173050000000  0.4766740000000  0.5765330000000 1.0
C      1  0.4365880000000  0.4813600000000  0.4633000000000 1.0
C      1  0.5334620000000  0.4916010000000  0.5228990000000 1.0
C      1  0.5437670000000  0.4293700000000  0.4927440000000 1.0
C      1  0.4814200000000  0.4761800000000  0.5102570000000 1.0
C      1  0.5737780000000  0.4566280000000  0.4727810000000 1.0
C      1  0.5498210000000  0.4551170000000  0.4487020000000 1.0
C      1  0.5227310000000  0.4539730000000  0.5029520000000 1.0
C      1  0.5068370000000  0.4722480000000  0.4064410000000 1.0
C      1  0.4954770000000  0.5608390000000  0.5221090000000 1.0
C      1  0.5424050000000  0.5366440000000  0.4387270000000 1.0
C      1  0.5195320000000  0.4136760000000  0.5064360000000 1.0
C      1  0.5563370000000  0.4594260000000  0.5018350000000 1.0
C      1  0.5098810000000  0.4574090000000  0.5309680000000 1.0
C      1  0.4346250000000  0.4509750000000  0.5148390000000 1.0
C      1  0.4335880000000  0.4990690000000  0.5275250000000 1.0
C      1  0.5359670000000  0.4698120000000  0.5489060000000 1.0
C      1  0.4650590000000  0.5728120000000  0.4899030000000 1.0
C      1  0.5430360000000  0.5420330000000  0.5114470000000 1.0
C      1  0.5618680000000  0.5051270000000  0.4808630000000 1.0
C      1  0.5262860000000  0.4548090000000  0.4263270000000 1.0
C      1  0.5562050000000  0.4824780000000  0.5706110000000 1.0
C      1  0.5055360000000  0.5306710000000  0.5278010000000 1.0
C      1  0.5301300000000  0.5551860000000  0.5590370000000 1.0
C      1  0.5367100000000  0.5244450000000  0.4831370000000 1.0
C      1  0.4959330000000  0.5641170000000  0.4451100000000 1.0
END
