TITL C-2848499-1157-107 -0.000526382331625033 125000 -626.664076543587 0 0 121 (C1) n - 1
REM
REM in /home/bkarasulu/work/CARBON/AIRSS/Generating-Clusters/AIREBO/with-SteepDescent/Only-C1/SD-CG-opt/Try1-1.4A-POS3A/HFTN-CG
REM
REM
REM
REM
REM
REM ./C.cell (11c1c37f851c82e70ff6c80c92926a4b)
REM
REM compiler GCC version 9.2.1 20190827 (Red Hat 9.2.1-1)
REM options -cpp -mtune=generic -march=x86-64 -g -O0 -fpre-include=/usr/include/finclude/math-vector-fortran.h
REM seed -1515629212 -1754064509 -1496111902 -580990998 -1640373246 -2142543658 1121653644 -618959072 -172256919 -390697808 -446650734 -623852127 -906955636 705111087 -881155375 655367917 -994879691 1439759979 683828672 -1193996773 -115542119 1355636732 -247543426 41874519 1868638536 -108374065 -1627438811 -636045201 -568605983 -1300683020 1278964279 -537628908 -434003045
REM
CELL 1.54180   50.00000   50.00000   50.00000   90.00000   90.00000   90.00000
LATT -1
SFAC C  
C      1  0.5385200000000  0.4567030000000  0.5015860000000 1.0
C      1  0.4311210000000  0.5264240000000  0.4472190000000 1.0
C      1  0.4556610000000  0.4213450000000  0.4462780000000 1.0
C      1  0.5722550000000  0.4948750000000  0.5355650000000 1.0
C      1  0.4263430000000  0.4943770000000  0.4372880000000 1.0
C      1  0.5044360000000  0.4929580000000  0.4911790000000 1.0
C      1  0.4762640000000  0.4023280000000  0.4367890000000 1.0
C      1  0.4851090000000  0.5723500000000  0.4435500000000 1.0
C      1  0.5859270000000  0.5195230000000  0.5381610000000 1.0
C      1  0.4910740000000  0.5071950000000  0.5869910000000 1.0
C      1  0.5049400000000  0.5514350000000  0.5706210000000 1.0
C      1  0.5559200000000  0.5070010000000  0.4332990000000 1.0
C      1  0.4875680000000  0.5118120000000  0.4202760000000 1.0
C      1  0.4372530000000  0.5858820000000  0.5373020000000 1.0
C      1  0.5269090000000  0.4274240000000  0.5684680000000 1.0
C      1  0.4232810000000  0.5075280000000  0.5052240000000 1.0
C      1  0.4671720000000  0.4771590000000  0.4500690000000 1.0
C      1  0.4854380000000  0.5247660000000  0.4672070000000 1.0
C      1  0.4518200000000  0.5450110000000  0.5360110000000 1.0
C      1  0.5835040000000  0.5342170000000  0.5103380000000 1.0
C      1  0.5603490000000  0.4547690000000  0.4396290000000 1.0
C      1  0.4618940000000  0.4706460000000  0.5784100000000 1.0
C      1  0.4875390000000  0.4761800000000  0.5884940000000 1.0
C      1  0.4589180000000  0.5024760000000  0.4314280000000 1.0
C      1  0.5329100000000  0.4796880000000  0.5831010000000 1.0
C      1  0.4445530000000  0.4485810000000  0.5692900000000 1.0
C      1  0.5145930000000  0.5374610000000  0.4603060000000 1.0
C      1  0.5122430000000  0.5246900000000  0.4898480000000 1.0
C      1  0.4828930000000  0.5460110000000  0.4225720000000 1.0
C      1  0.4278240000000  0.4947740000000  0.5506670000000 1.0
C      1  0.4666500000000  0.5783100000000  0.4622620000000 1.0
C      1  0.4428560000000  0.4938630000000  0.4670090000000 1.0
C      1  0.5593970000000  0.4347770000000  0.4881810000000 1.0
C      1  0.4635390000000  0.5826590000000  0.5539520000000 1.0
C      1  0.5062590000000  0.5625670000000  0.5005310000000 1.0
C      1  0.4206260000000  0.5397760000000  0.5378870000000 1.0
C      1  0.5505990000000  0.5386520000000  0.5030180000000 1.0
C      1  0.4518120000000  0.4251780000000  0.4765210000000 1.0
C      1  0.5746870000000  0.5611300000000  0.5291040000000 1.0
C      1  0.4171390000000  0.5129560000000  0.5316440000000 1.0
C      1  0.5072590000000  0.5078790000000  0.5292910000000 1.0
C      1  0.5183710000000  0.5900510000000  0.5265650000000 1.0
C      1  0.5546840000000  0.5659230000000  0.4831110000000 1.0
C      1  0.4648140000000  0.5309650000000  0.4466500000000 1.0
C      1  0.4589850000000  0.5714720000000  0.5158720000000 1.0
C      1  0.5477630000000  0.4986850000000  0.4631540000000 1.0
C      1  0.4592460000000  0.5902930000000  0.4875980000000 1.0
C      1  0.5102630000000  0.4568670000000  0.5720310000000 1.0
C      1  0.4755430000000  0.5102130000000  0.4963120000000 1.0
C      1  0.4928260000000  0.5343670000000  0.5140020000000 1.0
C      1  0.5561660000000  0.5542650000000  0.5561180000000 1.0
C      1  0.4591870000000  0.4494080000000  0.4321120000000 1.0
C      1  0.5817760000000  0.4575890000000  0.4962260000000 1.0
C      1  0.4887320000000  0.5946920000000  0.5434320000000 1.0
C      1  0.4201030000000  0.5646680000000  0.5217510000000 1.0
C      1  0.4411760000000  0.4551620000000  0.4758350000000 1.0
C      1  0.5365610000000  0.5309580000000  0.5433850000000 1.0
C      1  0.5086270000000  0.4416460000000  0.5236280000000 1.0
C      1  0.5512140000000  0.4283930000000  0.4496230000000 1.0
C      1  0.5374600000000  0.5108720000000  0.5175900000000 1.0
C      1  0.4904600000000  0.4134480000000  0.5022440000000 1.0
C      1  0.5459390000000  0.5292890000000  0.4703810000000 1.0
C      1  0.5080450000000  0.4776960000000  0.4615750000000 1.0
C      1  0.4459880000000  0.5226150000000  0.4848980000000 1.0
C      1  0.4655080000000  0.5517350000000  0.5664030000000 1.0
C      1  0.4613340000000  0.4894560000000  0.5484320000000 1.0
C      1  0.5149090000000  0.4623370000000  0.4102930000000 1.0
C      1  0.4879210000000  0.5849850000000  0.5123040000000 1.0
C      1  0.5874980000000  0.5096990000000  0.4918540000000 1.0
C      1  0.4946720000000  0.4286550000000  0.4419820000000 1.0
C      1  0.4933250000000  0.4986110000000  0.5560190000000 1.0
C      1  0.4903070000000  0.5504010000000  0.5431790000000 1.0
C      1  0.5676650000000  0.5491920000000  0.4565020000000 1.0
C      1  0.4746410000000  0.4135480000000  0.5472510000000 1.0
C      1  0.5191160000000  0.5224530000000  0.4153560000000 1.0
C      1  0.5403500000000  0.5902650000000  0.5023630000000 1.0
C      1  0.4881690000000  0.4430220000000  0.5501870000000 1.0
C      1  0.5249870000000  0.5074300000000  0.5650740000000 1.0
C      1  0.5198440000000  0.4283460000000  0.4577080000000 1.0
C      1  0.5044460000000  0.4752290000000  0.5202010000000 1.0
C      1  0.5320590000000  0.4233670000000  0.5392260000000 1.0
C      1  0.5644980000000  0.4697960000000  0.4695900000000 1.0
C      1  0.5757340000000  0.4531260000000  0.5264150000000 1.0
C      1  0.4478020000000  0.5546920000000  0.4737530000000 1.0
C      1  0.5154220000000  0.5493200000000  0.4319500000000 1.0
C      1  0.4865430000000  0.4531740000000  0.4615740000000 1.0
C      1  0.5334350000000  0.5544360000000  0.5776810000000 1.0
C      1  0.4915520000000  0.4536860000000  0.4219550000000 1.0
C      1  0.5310070000000  0.5281740000000  0.5900320000000 1.0
C      1  0.5516970000000  0.4888080000000  0.5552240000000 1.0
C      1  0.5146650000000  0.5773380000000  0.4488980000000 1.0
C      1  0.5878240000000  0.4207430000000  0.4826090000000 1.0
C      1  0.4353890000000  0.4414080000000  0.5208570000000 1.0
C      1  0.4392660000000  0.5588630000000  0.4411010000000 1.0
C      1  0.4794250000000  0.4395740000000  0.4888860000000 1.0
C      1  0.5267680000000  0.4698320000000  0.5452740000000 1.0
C      1  0.5137540000000  0.4943570000000  0.4337530000000 1.0
C      1  0.5417590000000  0.4771440000000  0.4250360000000 1.0
C      1  0.5698690000000  0.4866500000000  0.5054580000000 1.0
C      1  0.5375820000000  0.4148350000000  0.4812700000000 1.0
C      1  0.4223700000000  0.4575800000000  0.5018380000000 1.0
C      1  0.5382490000000  0.4896790000000  0.4933060000000 1.0
C      1  0.5829830000000  0.5363860000000  0.5593550000000 1.0
C      1  0.4216500000000  0.5592520000000  0.4942900000000 1.0
C      1  0.5240740000000  0.5756040000000  0.4763580000000 1.0
C      1  0.5893040000000  0.4930050000000  0.4680190000000 1.0
C      1  0.5326680000000  0.4577830000000  0.4693930000000 1.0
C      1  0.5470500000000  0.4501430000000  0.5306920000000 1.0
C      1  0.4147510000000  0.5329480000000  0.4754140000000 1.0
C      1  0.5305190000000  0.5580840000000  0.5237950000000 1.0
C      1  0.4603420000000  0.5148210000000  0.5263890000000 1.0
C      1  0.5694420000000  0.5311800000000  0.4336070000000 1.0
C      1  0.4175500000000  0.4839300000000  0.4898410000000 1.0
C      1  0.4589130000000  0.4567110000000  0.5395530000000 1.0
C      1  0.4458110000000  0.4180270000000  0.5081810000000 1.0
C      1  0.4308300000000  0.4622030000000  0.4458480000000 1.0
C      1  0.4618220000000  0.4782890000000  0.4903310000000 1.0
C      1  0.4858930000000  0.5346170000000  0.5880530000000 1.0
C      1  0.4691920000000  0.4065290000000  0.5200770000000 1.0
C      1  0.5211480000000  0.4141550000000  0.5080040000000 1.0
C      1  0.4757160000000  0.4615150000000  0.5113480000000 1.0
END
