TITL C-2848501-3133-474 -0.00154533662188003 125000 -811.791743251863 0 0 151 (C1) n - 1
REM
REM in /home/bkarasulu/work/CARBON/AIRSS/Generating-Clusters/AIREBO/with-SteepDescent/Only-C1/SD-CG-opt/Try1-1.4A-POS3A/HFTN-CG
REM
REM
REM
REM
REM
REM ./C.cell (11c1c37f851c82e70ff6c80c92926a4b)
REM
REM compiler GCC version 9.2.1 20190827 (Red Hat 9.2.1-1)
REM options -cpp -mtune=generic -march=x86-64 -g -O0 -fpre-include=/usr/include/finclude/math-vector-fortran.h
REM seed -458186649 -980146111 -302416295 303999478 -1353537703 -1700764077 1988856022 -1740353771 -784800018 -2039270414 -103634709 -1716868232 1875857746 1023036308 1737726356 -74166061 -1460313877 665937624 -2126859134 273289635 2099333415 -1505090445 -211851686 134243569 287406833 -1112546628 -1010262446 728961316 2130723106 -1169574125 -232348828 -805964618 2050943582
REM
CELL 1.54180   50.00000   50.00000   50.00000   90.00000   90.00000   90.00000
LATT -1
SFAC C  
C      1  0.4153460000000  0.5408910000000  0.4762030000000 1.0
C      1  0.4044630000000  0.4756170000000  0.5636190000000 1.0
C      1  0.4439810000000  0.5077100000000  0.4891100000000 1.0
C      1  0.4865400000000  0.5001340000000  0.5665760000000 1.0
C      1  0.5691660000000  0.5785200000000  0.4929960000000 1.0
C      1  0.4804650000000  0.5395420000000  0.4500660000000 1.0
C      1  0.5187970000000  0.5030130000000  0.4280920000000 1.0
C      1  0.4968440000000  0.5717390000000  0.5737640000000 1.0
C      1  0.4978480000000  0.4506000000000  0.4763190000000 1.0
C      1  0.5699820000000  0.4866470000000  0.4190740000000 1.0
C      1  0.5138060000000  0.5163200000000  0.4653220000000 1.0
C      1  0.4520870000000  0.5368330000000  0.4909020000000 1.0
C      1  0.4343550000000  0.4408080000000  0.5017400000000 1.0
C      1  0.4657150000000  0.4324120000000  0.4390390000000 1.0
C      1  0.4353750000000  0.5490010000000  0.5161320000000 1.0
C      1  0.5446890000000  0.4085290000000  0.5272840000000 1.0
C      1  0.5149520000000  0.4761700000000  0.5018240000000 1.0
C      1  0.4351020000000  0.4783010000000  0.5687920000000 1.0
C      1  0.5208820000000  0.4212560000000  0.4683480000000 1.0
C      1  0.5431640000000  0.4602960000000  0.5840170000000 1.0
C      1  0.4997280000000  0.5003180000000  0.6040020000000 1.0
C      1  0.5097000000000  0.4683140000000  0.4104230000000 1.0
C      1  0.4712890000000  0.5718100000000  0.4556310000000 1.0
C      1  0.5152080000000  0.3875490000000  0.4845000000000 1.0
C      1  0.6023700000000  0.4931600000000  0.4616350000000 1.0
C      1  0.4826560000000  0.4761730000000  0.4597880000000 1.0
C      1  0.4350740000000  0.4389500000000  0.4447120000000 1.0
C      1  0.4508070000000  0.4653180000000  0.4593170000000 1.0
C      1  0.5315750000000  0.4944960000000  0.5502840000000 1.0
C      1  0.4844690000000  0.6035750000000  0.4850300000000 1.0
C      1  0.5510930000000  0.5344130000000  0.5363570000000 1.0
C      1  0.3979640000000  0.4918540000000  0.4925600000000 1.0
C      1  0.5432710000000  0.5259850000000  0.4335210000000 1.0
C      1  0.4796560000000  0.5674020000000  0.4188770000000 1.0
C      1  0.6027910000000  0.5240670000000  0.5446680000000 1.0
C      1  0.4368090000000  0.4777550000000  0.4867230000000 1.0
C      1  0.4928930000000  0.5323150000000  0.5274910000000 1.0
C      1  0.5647410000000  0.4994970000000  0.4718120000000 1.0
C      1  0.4981760000000  0.5636480000000  0.5173720000000 1.0
C      1  0.5657460000000  0.4558340000000  0.4683370000000 1.0
C      1  0.5605570000000  0.5370100000000  0.5678470000000 1.0
C      1  0.4001860000000  0.5198060000000  0.4981590000000 1.0
C      1  0.5831700000000  0.5000980000000  0.5385410000000 1.0
C      1  0.5997080000000  0.4835700000000  0.4930650000000 1.0
C      1  0.5029460000000  0.4461230000000  0.4430020000000 1.0
C      1  0.5371590000000  0.4065780000000  0.4940380000000 1.0
C      1  0.4407750000000  0.4800330000000  0.4303390000000 1.0
C      1  0.5218250000000  0.4841030000000  0.5875060000000 1.0
C      1  0.5915540000000  0.5254430000000  0.4593050000000 1.0
C      1  0.5340050000000  0.4923250000000  0.5182500000000 1.0
C      1  0.4446000000000  0.5518950000000  0.4626210000000 1.0
C      1  0.4512870000000  0.5781460000000  0.5117550000000 1.0
C      1  0.5402860000000  0.4288140000000  0.4482520000000 1.0
C      1  0.4126090000000  0.4537100000000  0.4613650000000 1.0
C      1  0.4317760000000  0.5009210000000  0.5312240000000 1.0
C      1  0.5319480000000  0.4320420000000  0.5907660000000 1.0
C      1  0.4494920000000  0.5550670000000  0.4294440000000 1.0
C      1  0.4905890000000  0.5484140000000  0.4812950000000 1.0
C      1  0.4687090000000  0.5073030000000  0.4237670000000 1.0
C      1  0.4422150000000  0.5279400000000  0.5706310000000 1.0
C      1  0.5279070000000  0.4650810000000  0.4369150000000 1.0
C      1  0.4098690000000  0.5499920000000  0.5382850000000 1.0
C      1  0.5270870000000  0.4869320000000  0.3926530000000 1.0
C      1  0.5928200000000  0.5499660000000  0.5336850000000 1.0
C      1  0.5609200000000  0.5039290000000  0.5599210000000 1.0
C      1  0.5004970000000  0.5313850000000  0.4240330000000 1.0
C      1  0.5675240000000  0.5095380000000  0.4412600000000 1.0
C      1  0.4020740000000  0.4834430000000  0.4619930000000 1.0
C      1  0.3951500000000  0.4733220000000  0.5400760000000 1.0
C      1  0.4864970000000  0.4209930000000  0.5531860000000 1.0
C      1  0.4896280000000  0.4035040000000  0.4855780000000 1.0
C      1  0.5129850000000  0.5734370000000  0.4758120000000 1.0
C      1  0.5265150000000  0.5891260000000  0.5027890000000 1.0
C      1  0.4443230000000  0.5032060000000  0.5843360000000 1.0
C      1  0.5608110000000  0.4755650000000  0.5311490000000 1.0
C      1  0.5748900000000  0.5756550000000  0.4540280000000 1.0
C      1  0.4900620000000  0.4867770000000  0.4304840000000 1.0
C      1  0.4816420000000  0.4501980000000  0.4168170000000 1.0
C      1  0.4490540000000  0.5259990000000  0.5315980000000 1.0
C      1  0.4505010000000  0.5059800000000  0.4500430000000 1.0
C      1  0.4775690000000  0.4473140000000  0.5589610000000 1.0
C      1  0.5793710000000  0.5502990000000  0.4748100000000 1.0
C      1  0.5152690000000  0.5159150000000  0.3968170000000 1.0
C      1  0.5029880000000  0.5714480000000  0.4432920000000 1.0
C      1  0.5085260000000  0.6111720000000  0.4878120000000 1.0
C      1  0.5740180000000  0.5732290000000  0.5263840000000 1.0
C      1  0.5512230000000  0.4543350000000  0.5519490000000 1.0
C      1  0.4808630000000  0.5201850000000  0.4980630000000 1.0
C      1  0.4830450000000  0.4870920000000  0.5061480000000 1.0
C      1  0.5552190000000  0.4844840000000  0.3969800000000 1.0
C      1  0.5010240000000  0.5866050000000  0.5369180000000 1.0
C      1  0.4854070000000  0.5458330000000  0.5780300000000 1.0
C      1  0.5954680000000  0.4495780000000  0.5335600000000 1.0
C      1  0.5872770000000  0.5139450000000  0.4922650000000 1.0
C      1  0.5084200000000  0.5233000000000  0.5784450000000 1.0
C      1  0.5839020000000  0.4727380000000  0.4457030000000 1.0
C      1  0.4700440000000  0.5352470000000  0.5525150000000 1.0
C      1  0.4894830000000  0.4176090000000  0.4558010000000 1.0
C      1  0.5166340000000  0.4154630000000  0.5384390000000 1.0
C      1  0.5394990000000  0.4726660000000  0.4819360000000 1.0
C      1  0.4523180000000  0.4762880000000  0.5395330000000 1.0
C      1  0.4973850000000  0.4502030000000  0.5103270000000 1.0
C      1  0.4967590000000  0.4206450000000  0.5145940000000 1.0
C      1  0.4408840000000  0.4253020000000  0.5493210000000 1.0
C      1  0.5462100000000  0.5717580000000  0.4687540000000 1.0
C      1  0.5285760000000  0.5972280000000  0.5338640000000 1.0
C      1  0.5280040000000  0.5624540000000  0.5672070000000 1.0
C      1  0.4536660000000  0.5748890000000  0.5448970000000 1.0
C      1  0.4127800000000  0.4834090000000  0.4170220000000 1.0
C      1  0.4804760000000  0.5095830000000  0.4657470000000 1.0
C      1  0.5313740000000  0.5218790000000  0.5131850000000 1.0
C      1  0.5010180000000  0.5013180000000  0.5388610000000 1.0
C      1  0.5290740000000  0.5564120000000  0.4279370000000 1.0
C      1  0.5760230000000  0.5304070000000  0.5135640000000 1.0
C      1  0.5113660000000  0.4684740000000  0.5586780000000 1.0
C      1  0.5363850000000  0.5383660000000  0.5905690000000 1.0
C      1  0.5568420000000  0.4533570000000  0.4370450000000 1.0
C      1  0.4495960000000  0.4488310000000  0.5682680000000 1.0
C      1  0.4695220000000  0.5357280000000  0.4117990000000 1.0
C      1  0.4069620000000  0.5226620000000  0.5256450000000 1.0
C      1  0.4857590000000  0.4710590000000  0.5360290000000 1.0
C      1  0.5315040000000  0.5426970000000  0.4589530000000 1.0
C      1  0.5274370000000  0.5556180000000  0.5085530000000 1.0
C      1  0.5770950000000  0.4345670000000  0.4828510000000 1.0
C      1  0.4606620000000  0.4713940000000  0.4081580000000 1.0
C      1  0.5999540000000  0.4752490000000  0.5237050000000 1.0
C      1  0.4633840000000  0.4091720000000  0.5417780000000 1.0
C      1  0.4773710000000  0.5756480000000  0.4968340000000 1.0
C      1  0.4781670000000  0.5864230000000  0.5554820000000 1.0
C      1  0.5291370000000  0.4896020000000  0.4575800000000 1.0
C      1  0.5563190000000  0.5493650000000  0.4997730000000 1.0
C      1  0.4605590000000  0.4633670000000  0.5026690000000 1.0
C      1  0.5713120000000  0.5645920000000  0.5669180000000 1.0
C      1  0.5193800000000  0.5353790000000  0.5486070000000 1.0
C      1  0.5219580000000  0.4383770000000  0.5588890000000 1.0
C      1  0.5494750000000  0.5809630000000  0.5483670000000 1.0
C      1  0.5435990000000  0.5062570000000  0.5865070000000 1.0
C      1  0.4661600000000  0.4413000000000  0.4779670000000 1.0
C      1  0.4521570000000  0.4158540000000  0.4916030000000 1.0
C      1  0.4244540000000  0.5699470000000  0.4916630000000 1.0
C      1  0.5620950000000  0.4240980000000  0.5032530000000 1.0
C      1  0.4692100000000  0.4010210000000  0.5126530000000 1.0
C      1  0.4175480000000  0.4748930000000  0.5145950000000 1.0
C      1  0.5674490000000  0.4339620000000  0.5336780000000 1.0
C      1  0.4711290000000  0.4989120000000  0.5923770000000 1.0
C      1  0.3930340000000  0.4859330000000  0.4327460000000 1.0
C      1  0.4341940000000  0.4503820000000  0.5313860000000 1.0
C      1  0.4217550000000  0.5091510000000  0.4655390000000 1.0
C      1  0.4352830000000  0.5547480000000  0.5557080000000 1.0
C      1  0.4091430000000  0.4419950000000  0.4856870000000 1.0
C      1  0.5671200000000  0.4802800000000  0.4997730000000 1.0
END
