TITL C-2848497-6229-331 -0.000891208873425484 125000 -1071.11753779039 0 0 197 (C1) n - 1
REM
REM in /home/bkarasulu/work/CARBON/AIRSS/Generating-Clusters/AIREBO/with-SteepDescent/Only-C1/SD-CG-opt/Try1-1.4A-POS3A/HFTN-CG
REM
REM
REM
REM
REM
REM ./C.cell (11c1c37f851c82e70ff6c80c92926a4b)
REM
REM compiler GCC version 9.2.1 20190827 (Red Hat 9.2.1-1)
REM options -cpp -mtune=generic -march=x86-64 -g -O0 -fpre-include=/usr/include/finclude/math-vector-fortran.h
REM seed -1109170694 364620506 1067282661 -252002657 1991116666 -337358433 -2023683048 733567441 -1221206987 625294775 1822723588 -1019526402 1442477842 -674983202 140992415 1205065834 -910719286 -1913714030 1979889091 -657106344 251061006 1075817702 1021877142 667104024 -80171242 1506085546 -601213486 -1874977284 326864195 -687775391 446484509 274059898 -2099616983
REM
CELL 1.54180   50.00000   50.00000   50.00000   90.00000   90.00000   90.00000
LATT -1
SFAC C  
C      1  0.4106080000000  0.4786640000000  0.4390120000000 1.0
C      1  0.5690750000000  0.4715200000000  0.5854170000000 1.0
C      1  0.5858640000000  0.4304900000000  0.5203180000000 1.0
C      1  0.4799750000000  0.4729930000000  0.4945480000000 1.0
C      1  0.4898480000000  0.5738930000000  0.5521180000000 1.0
C      1  0.5010260000000  0.5287910000000  0.4687230000000 1.0
C      1  0.6099510000000  0.4366030000000  0.4792540000000 1.0
C      1  0.5138720000000  0.5754760000000  0.4689840000000 1.0
C      1  0.4473810000000  0.4047490000000  0.4916390000000 1.0
C      1  0.4002740000000  0.4182610000000  0.5139190000000 1.0
C      1  0.5527530000000  0.5098190000000  0.6043260000000 1.0
C      1  0.5210940000000  0.4235460000000  0.5695460000000 1.0
C      1  0.5436430000000  0.5931060000000  0.5166010000000 1.0
C      1  0.5069340000000  0.5607090000000  0.5053460000000 1.0
C      1  0.4096480000000  0.4772070000000  0.5058640000000 1.0
C      1  0.4532050000000  0.5141210000000  0.5114380000000 1.0
C      1  0.5108060000000  0.5068480000000  0.4894280000000 1.0
C      1  0.4852440000000  0.4164630000000  0.4871740000000 1.0
C      1  0.5229710000000  0.4540050000000  0.5817670000000 1.0
C      1  0.5896810000000  0.4190010000000  0.4884890000000 1.0
C      1  0.5873990000000  0.4612660000000  0.4433240000000 1.0
C      1  0.4828620000000  0.4645830000000  0.6076130000000 1.0
C      1  0.5162630000000  0.4827000000000  0.3867010000000 1.0
C      1  0.5236910000000  0.4480480000000  0.4564440000000 1.0
C      1  0.5942290000000  0.4538510000000  0.5440290000000 1.0
C      1  0.4801920000000  0.3948420000000  0.5119890000000 1.0
C      1  0.4504920000000  0.4748140000000  0.5866840000000 1.0
C      1  0.5189490000000  0.5541560000000  0.4046380000000 1.0
C      1  0.4383970000000  0.5278810000000  0.4177720000000 1.0
C      1  0.5116520000000  0.4406460000000  0.5044240000000 1.0
C      1  0.5707980000000  0.4394330000000  0.4401880000000 1.0
C      1  0.5118760000000  0.5767860000000  0.4219230000000 1.0
C      1  0.5729800000000  0.5039880000000  0.5775820000000 1.0
C      1  0.4232560000000  0.4128900000000  0.5342990000000 1.0
C      1  0.4505370000000  0.5707390000000  0.4756690000000 1.0
C      1  0.4388470000000  0.4307440000000  0.4377760000000 1.0
C      1  0.4993680000000  0.3896920000000  0.5309170000000 1.0
C      1  0.4540080000000  0.5527940000000  0.5023040000000 1.0
C      1  0.5109140000000  0.5167940000000  0.5664100000000 1.0
C      1  0.4412930000000  0.4759010000000  0.4031400000000 1.0
C      1  0.4564140000000  0.4730370000000  0.4628070000000 1.0
C      1  0.4194660000000  0.4810520000000  0.5753770000000 1.0
C      1  0.4422040000000  0.4650780000000  0.5388520000000 1.0
C      1  0.4744020000000  0.4215060000000  0.5407260000000 1.0
C      1  0.3897190000000  0.4987690000000  0.5083180000000 1.0
C      1  0.5254120000000  0.4244970000000  0.4319750000000 1.0
C      1  0.5070720000000  0.5660740000000  0.5778400000000 1.0
C      1  0.4177990000000  0.5794290000000  0.5564560000000 1.0
C      1  0.5479940000000  0.5369370000000  0.5385970000000 1.0
C      1  0.4810450000000  0.4954760000000  0.4596690000000 1.0
C      1  0.4359380000000  0.4772210000000  0.4899330000000 1.0
C      1  0.5622240000000  0.5843450000000  0.5504510000000 1.0
C      1  0.4451410000000  0.6018860000000  0.4791390000000 1.0
C      1  0.4411050000000  0.5847600000000  0.5323150000000 1.0
C      1  0.5627310000000  0.5598910000000  0.4874570000000 1.0
C      1  0.5066950000000  0.5275820000000  0.4150320000000 1.0
C      1  0.4872970000000  0.5823030000000  0.4330350000000 1.0
C      1  0.4993180000000  0.4692040000000  0.5808510000000 1.0
C      1  0.4914790000000  0.4951480000000  0.5639370000000 1.0
C      1  0.5126860000000  0.4730550000000  0.4938680000000 1.0
C      1  0.5347530000000  0.5672410000000  0.5609160000000 1.0
C      1  0.5312640000000  0.4226980000000  0.5224630000000 1.0
C      1  0.5171550000000  0.5787100000000  0.5324420000000 1.0
C      1  0.4868130000000  0.4149820000000  0.4343160000000 1.0
C      1  0.5052240000000  0.3934430000000  0.4485370000000 1.0
C      1  0.5421220000000  0.5078320000000  0.5651570000000 1.0
C      1  0.4044670000000  0.4658170000000  0.4679020000000 1.0
C      1  0.5044720000000  0.4550730000000  0.3991120000000 1.0
C      1  0.4241300000000  0.4390030000000  0.4634460000000 1.0
C      1  0.4729400000000  0.4459700000000  0.4751330000000 1.0
C      1  0.5396930000000  0.3944470000000  0.4955570000000 1.0
C      1  0.4784690000000  0.4626510000000  0.4283040000000 1.0
C      1  0.6077590000000  0.5357360000000  0.4979580000000 1.0
C      1  0.5966860000000  0.5045150000000  0.5056930000000 1.0
C      1  0.4296100000000  0.4383700000000  0.5557170000000 1.0
C      1  0.5564080000000  0.4411150000000  0.5070480000000 1.0
C      1  0.5528050000000  0.5397820000000  0.5699700000000 1.0
C      1  0.4952390000000  0.6135030000000  0.4897770000000 1.0
C      1  0.4433660000000  0.4338250000000  0.4866990000000 1.0
C      1  0.4045030000000  0.4505420000000  0.5237210000000 1.0
C      1  0.4389330000000  0.5185190000000  0.4502250000000 1.0
C      1  0.5780230000000  0.4710270000000  0.5225390000000 1.0
C      1  0.4243470000000  0.5675000000000  0.4364430000000 1.0
C      1  0.4512880000000  0.4131330000000  0.5627740000000 1.0
C      1  0.4736170000000  0.6170170000000  0.4727510000000 1.0
C      1  0.3952330000000  0.5242160000000  0.4913630000000 1.0
C      1  0.5291470000000  0.5618620000000  0.4442720000000 1.0
C      1  0.4369220000000  0.5488630000000  0.5723490000000 1.0
C      1  0.5459440000000  0.4870570000000  0.5400240000000 1.0
C      1  0.5038770000000  0.4283160000000  0.4085260000000 1.0
C      1  0.4991330000000  0.4934690000000  0.6125590000000 1.0
C      1  0.5033210000000  0.5362430000000  0.5880000000000 1.0
C      1  0.4413840000000  0.4876900000000  0.4360460000000 1.0
C      1  0.4878900000000  0.4264080000000  0.5711740000000 1.0
C      1  0.6153760000000  0.5167580000000  0.4727190000000 1.0
C      1  0.5193280000000  0.5259330000000  0.5378540000000 1.0
C      1  0.5526430000000  0.4546660000000  0.5381650000000 1.0
C      1  0.5708890000000  0.5889460000000  0.4778830000000 1.0
C      1  0.4747360000000  0.5537910000000  0.5828450000000 1.0
C      1  0.4764620000000  0.5504880000000  0.5350880000000 1.0
C      1  0.4880620000000  0.3866050000000  0.4711540000000 1.0
C      1  0.5924800000000  0.5815020000000  0.5031610000000 1.0
C      1  0.4664200000000  0.4973340000000  0.6040060000000 1.0
C      1  0.4209380000000  0.4910040000000  0.5447140000000 1.0
C      1  0.3855110000000  0.5567520000000  0.4892740000000 1.0
C      1  0.3909640000000  0.4950110000000  0.5363350000000 1.0
C      1  0.4490360000000  0.4514380000000  0.4209980000000 1.0
C      1  0.5567430000000  0.4915930000000  0.4742750000000 1.0
C      1  0.5393440000000  0.6091530000000  0.5457960000000 1.0
C      1  0.5319810000000  0.5212130000000  0.5056980000000 1.0
C      1  0.5093710000000  0.4762020000000  0.4253060000000 1.0
C      1  0.4565990000000  0.5347900000000  0.5498880000000 1.0
C      1  0.4038870000000  0.4413420000000  0.4908670000000 1.0
C      1  0.4296350000000  0.5079970000000  0.5932160000000 1.0
C      1  0.5348540000000  0.4056730000000  0.4574740000000 1.0
C      1  0.5664770000000  0.4162890000000  0.4642260000000 1.0
C      1  0.5871270000000  0.5307060000000  0.4641300000000 1.0
C      1  0.5917830000000  0.5433950000000  0.5430300000000 1.0
C      1  0.5515880000000  0.4347430000000  0.5620170000000 1.0
C      1  0.5689890000000  0.5187080000000  0.4907600000000 1.0
C      1  0.4317140000000  0.5177940000000  0.5370860000000 1.0
C      1  0.4753930000000  0.5295960000000  0.4911100000000 1.0
C      1  0.5778480000000  0.5437740000000  0.5119980000000 1.0
C      1  0.5951150000000  0.5123210000000  0.5566180000000 1.0
C      1  0.4720890000000  0.4412620000000  0.5893730000000 1.0
C      1  0.5055810000000  0.5245690000000  0.6137140000000 1.0
C      1  0.5424020000000  0.4925820000000  0.4003210000000 1.0
C      1  0.4851530000000  0.4706350000000  0.5338550000000 1.0
C      1  0.5483650000000  0.4435810000000  0.4253120000000 1.0
C      1  0.4570150000000  0.5738280000000  0.5609540000000 1.0
C      1  0.5897870000000  0.5759910000000  0.5323580000000 1.0
C      1  0.4559740000000  0.5260410000000  0.5888530000000 1.0
C      1  0.4965050000000  0.5041570000000  0.3922320000000 1.0
C      1  0.4840050000000  0.5670950000000  0.4806520000000 1.0
C      1  0.5323330000000  0.5561380000000  0.4865930000000 1.0
C      1  0.4020720000000  0.4582830000000  0.5567870000000 1.0
C      1  0.4920760000000  0.4434430000000  0.4489170000000 1.0
C      1  0.5970340000000  0.4638330000000  0.4726550000000 1.0
C      1  0.5083960000000  0.6110560000000  0.5382180000000 1.0
C      1  0.4717990000000  0.5271450000000  0.4514290000000 1.0
C      1  0.6129140000000  0.4875000000000  0.4817250000000 1.0
C      1  0.4201600000000  0.5492770000000  0.5427630000000 1.0
C      1  0.5426300000000  0.4671950000000  0.5967430000000 1.0
C      1  0.3916990000000  0.5021990000000  0.4427060000000 1.0
C      1  0.5329100000000  0.4907830000000  0.6094910000000 1.0
C      1  0.4548840000000  0.4565700000000  0.5091940000000 1.0
C      1  0.5410890000000  0.4778840000000  0.5083170000000 1.0
C      1  0.5695300000000  0.4686830000000  0.4920720000000 1.0
C      1  0.4609460000000  0.5979800000000  0.4477520000000 1.0
C      1  0.5771900000000  0.4499630000000  0.5692090000000 1.0
C      1  0.4893890000000  0.6033320000000  0.5162730000000 1.0
C      1  0.4388030000000  0.5082090000000  0.4826270000000 1.0
C      1  0.5604850000000  0.4079340000000  0.5132720000000 1.0
C      1  0.4585880000000  0.3935900000000  0.4681000000000 1.0
C      1  0.4737430000000  0.5273910000000  0.4179710000000 1.0
C      1  0.5656860000000  0.5027580000000  0.4132390000000 1.0
C      1  0.5719510000000  0.5466650000000  0.4443780000000 1.0
C      1  0.4285650000000  0.5489550000000  0.4612820000000 1.0
C      1  0.5462470000000  0.4390460000000  0.4756980000000 1.0
C      1  0.4627690000000  0.5589850000000  0.4117890000000 1.0
C      1  0.5568730000000  0.5113520000000  0.5221170000000 1.0
C      1  0.4787580000000  0.5598190000000  0.4503700000000 1.0
C      1  0.4569120000000  0.4092180000000  0.4427030000000 1.0
C      1  0.4691880000000  0.5787510000000  0.5183470000000 1.0
C      1  0.6139460000000  0.5661200000000  0.4945320000000 1.0
C      1  0.5997680000000  0.4894630000000  0.5360310000000 1.0
C      1  0.5295500000000  0.4789100000000  0.4649310000000 1.0
C      1  0.5411470000000  0.5283120000000  0.4737360000000 1.0
C      1  0.5809920000000  0.5449400000000  0.5743190000000 1.0
C      1  0.4421240000000  0.4434240000000  0.5869270000000 1.0
C      1  0.4714030000000  0.4937950000000  0.4212770000000 1.0
C      1  0.4231320000000  0.5436200000000  0.4925830000000 1.0
C      1  0.5803300000000  0.4871580000000  0.4322080000000 1.0
C      1  0.4506730000000  0.4037510000000  0.5239170000000 1.0
C      1  0.4954800000000  0.5317630000000  0.5179150000000 1.0
C      1  0.4655910000000  0.4734480000000  0.5600480000000 1.0
C      1  0.4029110000000  0.5524910000000  0.5184460000000 1.0
C      1  0.5194610000000  0.6035000000000  0.4779660000000 1.0
C      1  0.4074880000000  0.4994130000000  0.4726990000000 1.0
C      1  0.4897160000000  0.4983800000000  0.5147020000000 1.0
C      1  0.4071540000000  0.5793650000000  0.4981830000000 1.0
C      1  0.5162040000000  0.4074580000000  0.5424640000000 1.0
C      1  0.4660360000000  0.4941710000000  0.3886400000000 1.0
C      1  0.5536700000000  0.5293860000000  0.4266270000000 1.0
C      1  0.4836420000000  0.4427670000000  0.5209920000000 1.0
C      1  0.4268260000000  0.5980150000000  0.5054350000000 1.0
C      1  0.4699210000000  0.5075470000000  0.5407810000000 1.0
C      1  0.5458660000000  0.5484710000000  0.4023190000000 1.0
C      1  0.5532100000000  0.5627590000000  0.5257730000000 1.0
C      1  0.5453830000000  0.6038320000000  0.4895880000000 1.0
C      1  0.5787080000000  0.5018950000000  0.4559440000000 1.0
C      1  0.4483370000000  0.5767820000000  0.4269060000000 1.0
C      1  0.5244650000000  0.5281540000000  0.4440670000000 1.0
C      1  0.5175790000000  0.4130530000000  0.4854190000000 1.0
C      1  0.5386850000000  0.4667350000000  0.4156780000000 1.0
C      1  0.5601230000000  0.5725160000000  0.4500920000000 1.0
C      1  0.5117620000000  0.4967770000000  0.4475250000000 1.0
END
