TITL C-2848503-6230-278 -0.000224378273181918 125000 -205.128637138945 0 0 38 (C1) n - 1
REM
REM in /home/bkarasulu/work/CARBON/AIRSS/Generating-Clusters/AIREBO/with-SteepDescent/Only-C1/SD-CG-opt/Try1-1.4A-POS3A/HFTN-CG
REM
REM
REM
REM
REM
REM ./C.cell (11c1c37f851c82e70ff6c80c92926a4b)
REM
REM compiler GCC version 9.2.1 20190827 (Red Hat 9.2.1-1)
REM options -cpp -mtune=generic -march=x86-64 -g -O0 -fpre-include=/usr/include/finclude/math-vector-fortran.h
REM seed 1631009929 228825622 252984916 -1010545037 -2125350445 665000875 -921819105 -960090997 -1352499136 1742978926 160932417 -495335722 -1432053726 2066510183 1660478442 -1321085622 -1937871929 1322332972 -908302557 1113272228 1733850633 916539579 -1315396964 1236323668 -542720641 -1881900317 1704948921 -679924702 1061398780 -1185429373 -1635219090 -1079953874 1384528655
REM
CELL 1.54180   50.00000   50.00000   50.00000   90.00000   90.00000   90.00000
LATT -1
SFAC C  
C      1  0.5155530000000  0.5392750000000  0.5568360000000 1.0
C      1  0.4916440000000  0.5328940000000  0.4575520000000 1.0
C      1  0.5178330000000  0.4450820000000  0.5037330000000 1.0
C      1  0.5263770000000  0.5565720000000  0.4184550000000 1.0
C      1  0.5136770000000  0.4923700000000  0.5746240000000 1.0
C      1  0.5352750000000  0.4788410000000  0.5338840000000 1.0
C      1  0.5247860000000  0.4834230000000  0.4032380000000 1.0
C      1  0.5299600000000  0.4857930000000  0.4594390000000 1.0
C      1  0.5434260000000  0.5215480000000  0.5241090000000 1.0
C      1  0.4346000000000  0.4661080000000  0.4951580000000 1.0
C      1  0.4388700000000  0.5246810000000  0.5096450000000 1.0
C      1  0.5205330000000  0.5074310000000  0.5449170000000 1.0
C      1  0.5303730000000  0.4698290000000  0.5084590000000 1.0
C      1  0.5013100000000  0.5473050000000  0.4371170000000 1.0
C      1  0.4940440000000  0.5025240000000  0.5241080000000 1.0
C      1  0.4821500000000  0.5202140000000  0.4802320000000 1.0
C      1  0.4471160000000  0.5167890000000  0.5354080000000 1.0
C      1  0.5459240000000  0.5145840000000  0.4999200000000 1.0
C      1  0.5058990000000  0.5199370000000  0.5819990000000 1.0
C      1  0.4662260000000  0.4929340000000  0.5343000000000 1.0
C      1  0.4762800000000  0.4682060000000  0.5557530000000 1.0
C      1  0.5673740000000  0.4472280000000  0.4031790000000 1.0
C      1  0.4987770000000  0.5048030000000  0.4962340000000 1.0
C      1  0.5315140000000  0.4776500000000  0.4339600000000 1.0
C      1  0.4613830000000  0.5664400000000  0.5448210000000 1.0
C      1  0.4795500000000  0.5282670000000  0.5693000000000 1.0
C      1  0.5259680000000  0.4930100000000  0.4885980000000 1.0
C      1  0.4729010000000  0.4538000000000  0.5302160000000 1.0
C      1  0.4967500000000  0.5664880000000  0.4111680000000 1.0
C      1  0.4955820000000  0.4712010000000  0.5752090000000 1.0
C      1  0.5491480000000  0.4642570000000  0.4109320000000 1.0
C      1  0.5271860000000  0.4274600000000  0.4856260000000 1.0
C      1  0.4887790000000  0.5532620000000  0.5506940000000 1.0
C      1  0.4521710000000  0.4685340000000  0.5151990000000 1.0
C      1  0.4551740000000  0.5221600000000  0.4877500000000 1.0
C      1  0.4943200000000  0.4405940000000  0.5183060000000 1.0
C      1  0.5084570000000  0.4922410000000  0.3848440000000 1.0
C      1  0.4531120000000  0.5362690000000  0.5550780000000 1.0
END
