TITL C-2847955-7945-308 0.00534781970452045 125000 -872.88768302205 0 0 158 (C1) n - 1
REM
REM in /home/bkarasulu/work/CARBON/AIRSS/Generating-Clusters/AIREBO/with-SteepDescent/Only-C1/SD-CG-opt/Try1-1.4A-POS3A/HFTN-CG
REM
REM
REM
REM
REM
REM ./C.cell (11c1c37f851c82e70ff6c80c92926a4b)
REM
REM compiler GCC version 9.2.1 20190827 (Red Hat 9.2.1-1)
REM options -cpp -mtune=generic -march=x86-64 -g -O0 -fpre-include=/usr/include/finclude/math-vector-fortran.h
REM seed 566034561 1690126503 -356113852 771270696 -1357516893 1751591334 300248547 -949991585 -1140189556 -261973730 1826875159 649850657 1861364911 1360106704 125960141 -1446183 -1216108990 469732468 479183245 1061298197 462230524 1437342812 1659612578 1476086552 -906184560 1002441194 -2075570113 2002746618 1088051523 -499855859 1570726629 -1324440869 -269543216
REM
CELL 1.54180   50.00000   50.00000   50.00000   90.00000   90.00000   90.00000
LATT -1
SFAC C  
C      1  0.4894220000000  0.4311700000000  0.5507030000000 1.0
C      1  0.4969100000000  0.4571950000000  0.5943770000000 1.0
C      1  0.5334770000000  0.5168560000000  0.5533650000000 1.0
C      1  0.4482700000000  0.4654360000000  0.5355830000000 1.0
C      1  0.5666150000000  0.4695970000000  0.5509620000000 1.0
C      1  0.5282340000000  0.4231970000000  0.4560670000000 1.0
C      1  0.4674800000000  0.4105130000000  0.5406510000000 1.0
C      1  0.5717750000000  0.4413880000000  0.5419680000000 1.0
C      1  0.4540620000000  0.5056630000000  0.5981320000000 1.0
C      1  0.4681140000000  0.4871730000000  0.5526110000000 1.0
C      1  0.4814570000000  0.5256600000000  0.5695260000000 1.0
C      1  0.5221190000000  0.4719260000000  0.5370400000000 1.0
C      1  0.4104350000000  0.5338680000000  0.4602920000000 1.0
C      1  0.4954260000000  0.4969660000000  0.4435130000000 1.0
C      1  0.4990730000000  0.6047880000000  0.4894590000000 1.0
C      1  0.5064120000000  0.5135470000000  0.5241950000000 1.0
C      1  0.5421990000000  0.5861440000000  0.4972800000000 1.0
C      1  0.5085400000000  0.4479940000000  0.4618450000000 1.0
C      1  0.4566480000000  0.4758870000000  0.4297660000000 1.0
C      1  0.3815430000000  0.5161580000000  0.5119030000000 1.0
C      1  0.5864270000000  0.4398240000000  0.5161690000000 1.0
C      1  0.4879030000000  0.5444430000000  0.4947190000000 1.0
C      1  0.4285950000000  0.5086470000000  0.5796180000000 1.0
C      1  0.4590470000000  0.4810530000000  0.5819980000000 1.0
C      1  0.4663620000000  0.5672630000000  0.5742870000000 1.0
C      1  0.5898770000000  0.5378860000000  0.4594550000000 1.0
C      1  0.5076560000000  0.4592690000000  0.4317920000000 1.0
C      1  0.5460330000000  0.4919660000000  0.5369270000000 1.0
C      1  0.4017680000000  0.5144510000000  0.5300970000000 1.0
C      1  0.5289860000000  0.5564160000000  0.5729870000000 1.0
C      1  0.4951720000000  0.5051310000000  0.4985470000000 1.0
C      1  0.4417210000000  0.4154340000000  0.5489870000000 1.0
C      1  0.5352510000000  0.5026010000000  0.4007710000000 1.0
C      1  0.5096980000000  0.5176620000000  0.4125540000000 1.0
C      1  0.5054600000000  0.5312980000000  0.5529250000000 1.0
C      1  0.5179070000000  0.5871250000000  0.4518780000000 1.0
C      1  0.4963650000000  0.5637470000000  0.4158510000000 1.0
C      1  0.5242700000000  0.3970670000000  0.4857420000000 1.0
C      1  0.4625260000000  0.5013140000000  0.4511280000000 1.0
C      1  0.4215080000000  0.4482840000000  0.4481730000000 1.0
C      1  0.5086770000000  0.5118190000000  0.6029840000000 1.0
C      1  0.5321240000000  0.5289860000000  0.5928520000000 1.0
C      1  0.5470160000000  0.4167590000000  0.4818120000000 1.0
C      1  0.4296540000000  0.4387090000000  0.5301760000000 1.0
C      1  0.4611610000000  0.5369540000000  0.5143990000000 1.0
C      1  0.4263660000000  0.4911280000000  0.5310480000000 1.0
C      1  0.4533960000000  0.4414980000000  0.6098820000000 1.0
C      1  0.4498590000000  0.5494700000000  0.4287660000000 1.0
C      1  0.3831990000000  0.5230800000000  0.4791290000000 1.0
C      1  0.4686700000000  0.4588070000000  0.5961750000000 1.0
C      1  0.4688480000000  0.5898400000000  0.4482270000000 1.0
C      1  0.5227130000000  0.4412320000000  0.4072100000000 1.0
C      1  0.4850050000000  0.4519080000000  0.3996630000000 1.0
C      1  0.5325660000000  0.4743150000000  0.4044250000000 1.0
C      1  0.6040810000000  0.4920000000000  0.5204120000000 1.0
C      1  0.5657710000000  0.6070970000000  0.4555160000000 1.0
C      1  0.4585260000000  0.4539300000000  0.4728460000000 1.0
C      1  0.4522130000000  0.5125470000000  0.5365060000000 1.0
C      1  0.6056060000000  0.5402900000000  0.5715240000000 1.0
C      1  0.4729180000000  0.5604880000000  0.5335950000000 1.0
C      1  0.4907560000000  0.5847910000000  0.5284470000000 1.0
C      1  0.4278900000000  0.5261220000000  0.4951250000000 1.0
C      1  0.5111640000000  0.4813890000000  0.5990210000000 1.0
C      1  0.5080760000000  0.5626220000000  0.5129860000000 1.0
C      1  0.5576220000000  0.4177760000000  0.5474370000000 1.0
C      1  0.4297090000000  0.5496870000000  0.5168830000000 1.0
C      1  0.4637130000000  0.5585710000000  0.4809970000000 1.0
C      1  0.5878740000000  0.4951370000000  0.5497840000000 1.0
C      1  0.5119170000000  0.5345680000000  0.4424820000000 1.0
C      1  0.5645770000000  0.4688850000000  0.5009230000000 1.0
C      1  0.5242500000000  0.5540190000000  0.4198990000000 1.0
C      1  0.4848580000000  0.4861850000000  0.4722590000000 1.0
C      1  0.5687390000000  0.4990240000000  0.5777010000000 1.0
C      1  0.5216250000000  0.3892730000000  0.5124040000000 1.0
C      1  0.4856490000000  0.4803270000000  0.4164370000000 1.0
C      1  0.4717540000000  0.6021370000000  0.5061750000000 1.0
C      1  0.5539180000000  0.5492630000000  0.4231410000000 1.0
C      1  0.5067700000000  0.4116920000000  0.5336910000000 1.0
C      1  0.5210870000000  0.4290980000000  0.5094800000000 1.0
C      1  0.4583040000000  0.5401230000000  0.5554530000000 1.0
C      1  0.5671360000000  0.4435060000000  0.4547540000000 1.0
C      1  0.5837060000000  0.5286450000000  0.5537810000000 1.0
C      1  0.5902760000000  0.4642750000000  0.4685370000000 1.0
C      1  0.4068420000000  0.4675380000000  0.4716060000000 1.0
C      1  0.4987050000000  0.4921990000000  0.5478940000000 1.0
C      1  0.4282470000000  0.5340480000000  0.5652180000000 1.0
C      1  0.5259960000000  0.5049920000000  0.4395740000000 1.0
C      1  0.4948270000000  0.5851930000000  0.4358750000000 1.0
C      1  0.5446620000000  0.5555550000000  0.5371620000000 1.0
C      1  0.4204290000000  0.4854850000000  0.5640490000000 1.0
C      1  0.4819340000000  0.5099250000000  0.4006510000000 1.0
C      1  0.4664090000000  0.5859150000000  0.4767560000000 1.0
C      1  0.5214490000000  0.4956990000000  0.4823640000000 1.0
C      1  0.5565140000000  0.4984910000000  0.5097180000000 1.0
C      1  0.4630480000000  0.5076390000000  0.4972730000000 1.0
C      1  0.5553710000000  0.5013550000000  0.4448980000000 1.0
C      1  0.5131310000000  0.5441690000000  0.4713980000000 1.0
C      1  0.4519060000000  0.5305720000000  0.4761090000000 1.0
C      1  0.5554720000000  0.5384920000000  0.5613930000000 1.0
C      1  0.4291730000000  0.4440240000000  0.4818240000000 1.0
C      1  0.4137170000000  0.5378910000000  0.5409500000000 1.0
C      1  0.5594890000000  0.5181640000000  0.5955840000000 1.0
C      1  0.5965360000000  0.4674920000000  0.5018590000000 1.0
C      1  0.4198410000000  0.4822400000000  0.4438300000000 1.0
C      1  0.5610930000000  0.5561470000000  0.4557210000000 1.0
C      1  0.4103250000000  0.5041790000000  0.4870600000000 1.0
C      1  0.3975410000000  0.5027570000000  0.4555860000000 1.0
C      1  0.4485340000000  0.4112590000000  0.4706840000000 1.0
C      1  0.4745420000000  0.5412340000000  0.4116660000000 1.0
C      1  0.5580930000000  0.5202870000000  0.4047080000000 1.0
C      1  0.4809760000000  0.5190700000000  0.5962610000000 1.0
C      1  0.5228490000000  0.4660540000000  0.4805250000000 1.0
C      1  0.5720460000000  0.5625460000000  0.5093380000000 1.0
C      1  0.4480040000000  0.5763040000000  0.4336230000000 1.0
C      1  0.4132580000000  0.5550170000000  0.4871670000000 1.0
C      1  0.5462450000000  0.4311310000000  0.4308640000000 1.0
C      1  0.5540320000000  0.4368840000000  0.5061230000000 1.0
C      1  0.4119290000000  0.4593860000000  0.5505940000000 1.0
C      1  0.5261430000000  0.5376870000000  0.5195840000000 1.0
C      1  0.4411400000000  0.5274700000000  0.4471470000000 1.0
C      1  0.5134700000000  0.5756570000000  0.4824210000000 1.0
C      1  0.5704180000000  0.4748380000000  0.4426750000000 1.0
C      1  0.4501400000000  0.5182130000000  0.4041960000000 1.0
C      1  0.5233550000000  0.4919960000000  0.5715410000000 1.0
C      1  0.5823740000000  0.4953220000000  0.4748380000000 1.0
C      1  0.4917800000000  0.4169890000000  0.4970520000000 1.0
C      1  0.4210870000000  0.4787890000000  0.4998080000000 1.0
C      1  0.5730470000000  0.5246670000000  0.4346410000000 1.0
C      1  0.4971900000000  0.5620520000000  0.5652290000000 1.0
C      1  0.4534650000000  0.5851930000000  0.5873080000000 1.0
C      1  0.4674490000000  0.4097440000000  0.5124070000000 1.0
C      1  0.4515600000000  0.4784010000000  0.4954060000000 1.0
C      1  0.4929040000000  0.4299960000000  0.4227360000000 1.0
C      1  0.5158820000000  0.4600360000000  0.5109530000000 1.0
C      1  0.5179740000000  0.5820340000000  0.5487500000000 1.0
C      1  0.5294130000000  0.4540200000000  0.5610140000000 1.0
C      1  0.5443260000000  0.5379990000000  0.4752100000000 1.0
C      1  0.5501450000000  0.5059060000000  0.4771490000000 1.0
C      1  0.4339630000000  0.4965120000000  0.4170070000000 1.0
C      1  0.5495340000000  0.5856990000000  0.4639560000000 1.0
C      1  0.5510740000000  0.4614420000000  0.4750030000000 1.0
C      1  0.5983220000000  0.5185300000000  0.4792030000000 1.0
C      1  0.4862700000000  0.4422360000000  0.4800430000000 1.0
C      1  0.4533660000000  0.4485810000000  0.4417660000000 1.0
C      1  0.5426130000000  0.5840680000000  0.5253770000000 1.0
C      1  0.4523630000000  0.6189660000000  0.5160030000000 1.0
C      1  0.4991620000000  0.4074960000000  0.4652470000000 1.0
C      1  0.4392070000000  0.4216160000000  0.5018220000000 1.0
C      1  0.4726120000000  0.4214110000000  0.4488290000000 1.0
C      1  0.5565020000000  0.5323750000000  0.5063730000000 1.0
C      1  0.5065720000000  0.4425780000000  0.5724760000000 1.0
C      1  0.6050260000000  0.5180860000000  0.5072380000000 1.0
C      1  0.5859260000000  0.5348000000000  0.5232550000000 1.0
C      1  0.5379430000000  0.4009880000000  0.5380740000000 1.0
C      1  0.4843550000000  0.4668730000000  0.5002640000000 1.0
C      1  0.5498340000000  0.4720260000000  0.5786780000000 1.0
C      1  0.5411990000000  0.4646630000000  0.4334050000000 1.0
C      1  0.4772480000000  0.4547300000000  0.5312190000000 1.0
END
