TITL C-2847949-8115-621 -9.07565165842662e-05 125000 -111.951311446703 0 0 21 (C1) n - 1
REM
REM in /home/bkarasulu/work/CARBON/AIRSS/Generating-Clusters/AIREBO/with-SteepDescent/Only-C1/SD-CG-opt/Try1-1.4A-POS3A/HFTN-CG
REM
REM
REM
REM
REM
REM ./C.cell (11c1c37f851c82e70ff6c80c92926a4b)
REM
REM compiler GCC version 9.2.1 20190827 (Red Hat 9.2.1-1)
REM options -cpp -mtune=generic -march=x86-64 -g -O0 -fpre-include=/usr/include/finclude/math-vector-fortran.h
REM seed -352673329 -766300203 -34644650 -990958343 -1971517924 -1958955900 -1888694486 -414993551 521318914 -1936105124 -1922944217 1756059117 379142113 -657312360 -1083335692 -1846332355 1719838749 -221640531 739630076 356373568 1630100472 -1939357400 246772195 -1721145775 -1719405119 1306068045 1686843599 -166879148 -1998519279 -1459561286 -491707379 -260140573 -629950679
REM
CELL 1.54180   50.00000   50.00000   50.00000   90.00000   90.00000   90.00000
LATT -1
SFAC C  
C      1  0.5700060000000  0.5497820000000  0.5221770000000 1.0
C      1  0.4726060000000  0.4632440000000  0.4358820000000 1.0
C      1  0.5322590000000  0.5031260000000  0.5021480000000 1.0
C      1  0.5443670000000  0.5476860000000  0.5128600000000 1.0
C      1  0.5072880000000  0.4723310000000  0.4695360000000 1.0
C      1  0.4640340000000  0.4819250000000  0.4803030000000 1.0
C      1  0.4841160000000  0.5292820000000  0.5083050000000 1.0
C      1  0.5129500000000  0.4616990000000  0.5187480000000 1.0
C      1  0.4074370000000  0.4687880000000  0.4938530000000 1.0
C      1  0.5786530000000  0.5027010000000  0.5252430000000 1.0
C      1  0.5140850000000  0.5401270000000  0.4764720000000 1.0
C      1  0.4252820000000  0.4852100000000  0.5148300000000 1.0
C      1  0.4818020000000  0.4960390000000  0.5007070000000 1.0
C      1  0.5103730000000  0.4826950000000  0.5000330000000 1.0
C      1  0.4634420000000  0.5118980000000  0.5237670000000 1.0
C      1  0.5860130000000  0.5288160000000  0.5302540000000 1.0
C      1  0.4803720000000  0.4715580000000  0.4601380000000 1.0
C      1  0.5580590000000  0.4948670000000  0.5090180000000 1.0
C      1  0.5288920000000  0.5304710000000  0.4968280000000 1.0
C      1  0.4393670000000  0.5015910000000  0.5320180000000 1.0
C      1  0.4385960000000  0.4761640000000  0.4868780000000 1.0
END
