TITL C-2848505-4874-465 0.000221486212767014 125000 -918.672904565947 0 0 170 (C1) n - 1
REM
REM in /home/bkarasulu/work/CARBON/AIRSS/Generating-Clusters/AIREBO/with-SteepDescent/Only-C1/SD-CG-opt/Try1-1.4A-POS3A/HFTN-CG
REM
REM
REM
REM
REM
REM ./C.cell (11c1c37f851c82e70ff6c80c92926a4b)
REM
REM compiler GCC version 9.2.1 20190827 (Red Hat 9.2.1-1)
REM options -cpp -mtune=generic -march=x86-64 -g -O0 -fpre-include=/usr/include/finclude/math-vector-fortran.h
REM seed -307333002 -942705463 1230171977 1462069445 900521421 -519144285 1681059518 -19714858 1478503089 -145560024 1814333682 752475982 110639916 1833560068 394167403 -1667477537 1425889772 764513159 186311216 50553070 1692763770 1313665821 -60922833 -84320321 -1638551739 -1645307600 372802867 2039937595 -1660451743 332229654 -45036234 1347737003 -1381358624
REM
CELL 1.54180   50.00000   50.00000   50.00000   90.00000   90.00000   90.00000
LATT -1
SFAC C  
C      1  0.6076600000000  0.5116080000000  0.5181650000000 1.0
C      1  0.4607130000000  0.5792960000000  0.5724320000000 1.0
C      1  0.4722350000000  0.4011720000000  0.4552290000000 1.0
C      1  0.5234780000000  0.4987640000000  0.4833680000000 1.0
C      1  0.4681160000000  0.4114650000000  0.5327970000000 1.0
C      1  0.4206650000000  0.4281210000000  0.4678640000000 1.0
C      1  0.5616990000000  0.4964120000000  0.4121950000000 1.0
C      1  0.5639840000000  0.4518580000000  0.4420970000000 1.0
C      1  0.4831770000000  0.5974220000000  0.4708720000000 1.0
C      1  0.5171640000000  0.4185280000000  0.5535080000000 1.0
C      1  0.5341120000000  0.5507660000000  0.4519340000000 1.0
C      1  0.5870470000000  0.4583320000000  0.4876270000000 1.0
C      1  0.4989250000000  0.4064070000000  0.5362440000000 1.0
C      1  0.3932040000000  0.5125630000000  0.4795140000000 1.0
C      1  0.5377130000000  0.5331350000000  0.6026010000000 1.0
C      1  0.4511460000000  0.4322500000000  0.4247640000000 1.0
C      1  0.5681980000000  0.4345290000000  0.4127740000000 1.0
C      1  0.5082110000000  0.5346480000000  0.5491530000000 1.0
C      1  0.5353220000000  0.5514500000000  0.5570670000000 1.0
C      1  0.4670600000000  0.5833950000000  0.4943600000000 1.0
C      1  0.5954150000000  0.5088970000000  0.4892670000000 1.0
C      1  0.4326850000000  0.4455350000000  0.4421880000000 1.0
C      1  0.4373830000000  0.4962420000000  0.5377130000000 1.0
C      1  0.5539610000000  0.5325290000000  0.5416040000000 1.0
C      1  0.5338540000000  0.6069940000000  0.4519470000000 1.0
C      1  0.5370770000000  0.6359300000000  0.5079950000000 1.0
C      1  0.5454350000000  0.5026560000000  0.5536030000000 1.0
C      1  0.4595660000000  0.4403600000000  0.5394510000000 1.0
C      1  0.5781420000000  0.4794640000000  0.4281560000000 1.0
C      1  0.4448550000000  0.5605100000000  0.4827960000000 1.0
C      1  0.4452120000000  0.6047580000000  0.5224560000000 1.0
C      1  0.5071210000000  0.4735130000000  0.5565440000000 1.0
C      1  0.4989460000000  0.4122420000000  0.4688680000000 1.0
C      1  0.5281670000000  0.5073150000000  0.5966740000000 1.0
C      1  0.5659710000000  0.4348360000000  0.5524930000000 1.0
C      1  0.5365510000000  0.6003530000000  0.5553580000000 1.0
C      1  0.5138620000000  0.5054810000000  0.5659790000000 1.0
C      1  0.5659620000000  0.4129890000000  0.4797280000000 1.0
C      1  0.5093010000000  0.6014820000000  0.5525190000000 1.0
C      1  0.4863890000000  0.5384770000000  0.5914460000000 1.0
C      1  0.5826200000000  0.4681790000000  0.5153630000000 1.0
C      1  0.5540030000000  0.4204580000000  0.5241000000000 1.0
C      1  0.4100900000000  0.4674400000000  0.4936200000000 1.0
C      1  0.5514880000000  0.5753770000000  0.5446100000000 1.0
C      1  0.3946320000000  0.4798000000000  0.4456610000000 1.0
C      1  0.4993500000000  0.6082850000000  0.5276370000000 1.0
C      1  0.4763320000000  0.4963930000000  0.5460390000000 1.0
C      1  0.4101290000000  0.5468740000000  0.5113040000000 1.0
C      1  0.5275470000000  0.5805100000000  0.4941210000000 1.0
C      1  0.5859570000000  0.4584400000000  0.5479450000000 1.0
C      1  0.5458250000000  0.5806150000000  0.4406240000000 1.0
C      1  0.4815500000000  0.5651400000000  0.5158570000000 1.0
C      1  0.5394080000000  0.4220580000000  0.4239580000000 1.0
C      1  0.4499660000000  0.3834460000000  0.5260450000000 1.0
C      1  0.5777940000000  0.5649170000000  0.5252010000000 1.0
C      1  0.4925290000000  0.5382360000000  0.4751350000000 1.0
C      1  0.4500190000000  0.4382410000000  0.5690760000000 1.0
C      1  0.4442120000000  0.5776710000000  0.4389060000000 1.0
C      1  0.4941200000000  0.4116810000000  0.5025280000000 1.0
C      1  0.4458450000000  0.4416390000000  0.5101530000000 1.0
C      1  0.4250700000000  0.4855450000000  0.5740510000000 1.0
C      1  0.4730700000000  0.5260870000000  0.5004450000000 1.0
C      1  0.4232730000000  0.4293210000000  0.5004030000000 1.0
C      1  0.3856030000000  0.4915260000000  0.4972960000000 1.0
C      1  0.4478200000000  0.4093800000000  0.4760740000000 1.0
C      1  0.5858670000000  0.4933280000000  0.4520660000000 1.0
C      1  0.4496930000000  0.5596340000000  0.5524470000000 1.0
C      1  0.4926100000000  0.5822010000000  0.5681530000000 1.0
C      1  0.4832080000000  0.5573370000000  0.5478210000000 1.0
C      1  0.5001580000000  0.5373400000000  0.5176710000000 1.0
C      1  0.5341290000000  0.4749810000000  0.6324410000000 1.0
C      1  0.5238060000000  0.3956450000000  0.4982920000000 1.0
C      1  0.4361710000000  0.4960040000000  0.4188260000000 1.0
C      1  0.5344540000000  0.4692220000000  0.4375430000000 1.0
C      1  0.4400320000000  0.4764050000000  0.4457200000000 1.0
C      1  0.5433900000000  0.4110430000000  0.5614540000000 1.0
C      1  0.4381770000000  0.5276880000000  0.5506640000000 1.0
C      1  0.5960350000000  0.4891490000000  0.5373760000000 1.0
C      1  0.4108430000000  0.5063170000000  0.4330710000000 1.0
C      1  0.4799100000000  0.4351700000000  0.4313910000000 1.0
C      1  0.5485910000000  0.4059930000000  0.4995680000000 1.0
C      1  0.4780000000000  0.4615510000000  0.6091660000000 1.0
C      1  0.4216530000000  0.5633120000000  0.4278040000000 1.0
C      1  0.4479850000000  0.5104510000000  0.5782840000000 1.0
C      1  0.4737830000000  0.6041900000000  0.5196690000000 1.0
C      1  0.4078020000000  0.4589110000000  0.4611100000000 1.0
C      1  0.5371180000000  0.4476820000000  0.5239450000000 1.0
C      1  0.4553680000000  0.5239870000000  0.4714800000000 1.0
C      1  0.5230620000000  0.5289700000000  0.4991030000000 1.0
C      1  0.4206530000000  0.5031660000000  0.4649750000000 1.0
C      1  0.4618610000000  0.4009650000000  0.5014370000000 1.0
C      1  0.3987230000000  0.4825840000000  0.5527290000000 1.0
C      1  0.5583790000000  0.4728690000000  0.5616550000000 1.0
C      1  0.4883180000000  0.4974620000000  0.4457510000000 1.0
C      1  0.5885740000000  0.4256590000000  0.4874700000000 1.0
C      1  0.5629720000000  0.5525470000000  0.4809910000000 1.0
C      1  0.5400380000000  0.4843260000000  0.6078950000000 1.0
C      1  0.4525790000000  0.4925670000000  0.5075170000000 1.0
C      1  0.5550470000000  0.5293800000000  0.4494690000000 1.0
C      1  0.4640100000000  0.4561970000000  0.4853690000000 1.0
C      1  0.5710500000000  0.4014770000000  0.5470010000000 1.0
C      1  0.4801600000000  0.4643240000000  0.5693310000000 1.0
C      1  0.4529240000000  0.4764540000000  0.5581510000000 1.0
C      1  0.4819470000000  0.5079390000000  0.5775390000000 1.0
C      1  0.5290220000000  0.5541470000000  0.5863400000000 1.0
C      1  0.5843610000000  0.5360820000000  0.5518350000000 1.0
C      1  0.4893040000000  0.4452630000000  0.5053130000000 1.0
C      1  0.5793990000000  0.5062180000000  0.5565800000000 1.0
C      1  0.5196540000000  0.5543160000000  0.4780790000000 1.0
C      1  0.5072140000000  0.4846320000000  0.5243830000000 1.0
C      1  0.4310030000000  0.5758360000000  0.5291160000000 1.0
C      1  0.5663530000000  0.5230990000000  0.4193480000000 1.0
C      1  0.5627420000000  0.5086160000000  0.4979930000000 1.0
C      1  0.5927830000000  0.5376190000000  0.4743210000000 1.0
C      1  0.4865740000000  0.4863860000000  0.6020370000000 1.0
C      1  0.4708090000000  0.5407400000000  0.4515240000000 1.0
C      1  0.5603940000000  0.5036590000000  0.4667800000000 1.0
C      1  0.5348710000000  0.4867640000000  0.4147520000000 1.0
C      1  0.4966310000000  0.4619740000000  0.4100140000000 1.0
C      1  0.6032820000000  0.5416670000000  0.5274150000000 1.0
C      1  0.5130810000000  0.4372780000000  0.4262940000000 1.0
C      1  0.4939960000000  0.5599330000000  0.4158290000000 1.0
C      1  0.4238490000000  0.5367230000000  0.4705170000000 1.0
C      1  0.4635590000000  0.5036770000000  0.4356960000000 1.0
C      1  0.4921860000000  0.4733000000000  0.4770000000000 1.0
C      1  0.5132700000000  0.6031490000000  0.4748710000000 1.0
C      1  0.5191520000000  0.4464950000000  0.5482110000000 1.0
C      1  0.4668820000000  0.5225050000000  0.5335100000000 1.0
C      1  0.4390250000000  0.4785790000000  0.4796460000000 1.0
C      1  0.4843170000000  0.4939900000000  0.5010480000000 1.0
C      1  0.5194660000000  0.6115390000000  0.5055960000000 1.0
C      1  0.5014840000000  0.5106750000000  0.4648280000000 1.0
C      1  0.4281910000000  0.5924240000000  0.4990200000000 1.0
C      1  0.5860060000000  0.5406130000000  0.4409890000000 1.0
C      1  0.4134590000000  0.5491740000000  0.5408490000000 1.0
C      1  0.4379660000000  0.5882750000000  0.4675910000000 1.0
C      1  0.3990180000000  0.4565090000000  0.5663360000000 1.0
C      1  0.5709030000000  0.5654950000000  0.4558800000000 1.0
C      1  0.5589160000000  0.4697650000000  0.4705630000000 1.0
C      1  0.5953720000000  0.4548350000000  0.4548420000000 1.0
C      1  0.4656700000000  0.4340940000000  0.4619490000000 1.0
C      1  0.5369250000000  0.4929040000000  0.5135880000000 1.0
C      1  0.5982640000000  0.5584590000000  0.4988320000000 1.0
C      1  0.4155780000000  0.5391700000000  0.4384310000000 1.0
C      1  0.6062100000000  0.4826270000000  0.4735240000000 1.0
C      1  0.4938130000000  0.5384990000000  0.3968500000000 1.0
C      1  0.5539040000000  0.4219280000000  0.4547150000000 1.0
C      1  0.4787860000000  0.4666900000000  0.5295490000000 1.0
C      1  0.4419360000000  0.5386140000000  0.5059850000000 1.0
C      1  0.4907200000000  0.5102380000000  0.3963360000000 1.0
C      1  0.5068670000000  0.4408970000000  0.4587490000000 1.0
C      1  0.5478120000000  0.5711760000000  0.5128400000000 1.0
C      1  0.4250420000000  0.5110190000000  0.5034750000000 1.0
C      1  0.5527840000000  0.5376720000000  0.5098180000000 1.0
C      1  0.4701890000000  0.5627560000000  0.4341010000000 1.0
C      1  0.5095330000000  0.4897350000000  0.4023310000000 1.0
C      1  0.4731630000000  0.4407500000000  0.5884470000000 1.0
C      1  0.5022050000000  0.5604000000000  0.5885100000000 1.0
C      1  0.4090370000000  0.4869030000000  0.5214980000000 1.0
C      1  0.5187590000000  0.5654740000000  0.4266690000000 1.0
C      1  0.5541460000000  0.4719170000000  0.5281510000000 1.0
C      1  0.4949130000000  0.4681540000000  0.4434950000000 1.0
C      1  0.4271150000000  0.4515760000000  0.5758730000000 1.0
C      1  0.5249860000000  0.4674550000000  0.4701600000000 1.0
C      1  0.5193800000000  0.4518400000000  0.4998450000000 1.0
C      1  0.4644060000000  0.5025690000000  0.4035410000000 1.0
C      1  0.4798310000000  0.4500910000000  0.3871530000000 1.0
C      1  0.5248280000000  0.4063850000000  0.4505640000000 1.0
C      1  0.5606140000000  0.4730110000000  0.5922010000000 1.0
C      1  0.3950730000000  0.5406780000000  0.4880260000000 1.0
END
