TITL C-2848502-4955-604 0.000690312761091002 125000 -372.559259892638 0 0 68 (C1) n - 1
REM
REM in /home/bkarasulu/work/CARBON/AIRSS/Generating-Clusters/AIREBO/with-SteepDescent/Only-C1/SD-CG-opt/Try1-1.4A-POS3A/HFTN-CG
REM
REM
REM
REM
REM
REM ./C.cell (11c1c37f851c82e70ff6c80c92926a4b)
REM
REM compiler GCC version 9.2.1 20190827 (Red Hat 9.2.1-1)
REM options -cpp -mtune=generic -march=x86-64 -g -O0 -fpre-include=/usr/include/finclude/math-vector-fortran.h
REM seed -804063542 1527899174 -1701359135 -1297066544 613339237 -1789994964 -362258935 637661463 1663349740 348970762 246805844 -1188528602 1036917533 1576625828 -31554207 -160497236 585152237 -1501817864 1665903463 -1404098186 -2072794529 1204938006 973225191 453514820 -316146286 1939953642 -1232492538 -1610293433 -663349235 -1909093789 1170810353 1177700385 2050604483
REM
CELL 1.54180   50.00000   50.00000   50.00000   90.00000   90.00000   90.00000
LATT -1
SFAC C  
C      1  0.5332520000000  0.5145570000000  0.5190960000000 1.0
C      1  0.4420760000000  0.5178210000000  0.4409640000000 1.0
C      1  0.4603470000000  0.5751700000000  0.4752330000000 1.0
C      1  0.5571550000000  0.5214170000000  0.5313270000000 1.0
C      1  0.4995790000000  0.4822570000000  0.5542190000000 1.0
C      1  0.5060340000000  0.5399600000000  0.4729190000000 1.0
C      1  0.5302940000000  0.5107100000000  0.5586420000000 1.0
C      1  0.5274220000000  0.4641610000000  0.4606950000000 1.0
C      1  0.5386610000000  0.4611620000000  0.5206720000000 1.0
C      1  0.4666820000000  0.4572320000000  0.4802160000000 1.0
C      1  0.4836580000000  0.4472590000000  0.4524180000000 1.0
C      1  0.4795930000000  0.5250060000000  0.5560760000000 1.0
C      1  0.4414550000000  0.4838250000000  0.4403030000000 1.0
C      1  0.4531800000000  0.5294400000000  0.5100290000000 1.0
C      1  0.4913850000000  0.5434760000000  0.4359220000000 1.0
C      1  0.4544670000000  0.4938690000000  0.4701370000000 1.0
C      1  0.4469870000000  0.4522370000000  0.5042230000000 1.0
C      1  0.4913490000000  0.4883200000000  0.5235250000000 1.0
C      1  0.5091270000000  0.5673790000000  0.4523500000000 1.0
C      1  0.5541620000000  0.5348650000000  0.5605390000000 1.0
C      1  0.4341450000000  0.5302190000000  0.5381190000000 1.0
C      1  0.4484070000000  0.5574940000000  0.5377840000000 1.0
C      1  0.4924300000000  0.4697230000000  0.4985900000000 1.0
C      1  0.4847030000000  0.4406900000000  0.5425590000000 1.0
C      1  0.5697950000000  0.4946720000000  0.4887670000000 1.0
C      1  0.4626670000000  0.4225680000000  0.4984810000000 1.0
C      1  0.4677010000000  0.5027410000000  0.4309350000000 1.0
C      1  0.4390100000000  0.5004010000000  0.4993950000000 1.0
C      1  0.4756850000000  0.5673510000000  0.4545010000000 1.0
C      1  0.5605160000000  0.5524230000000  0.5320850000000 1.0
C      1  0.5406220000000  0.4827520000000  0.5468850000000 1.0
C      1  0.4505260000000  0.4817600000000  0.5429780000000 1.0
C      1  0.5052830000000  0.4902370000000  0.4269210000000 1.0
C      1  0.4908120000000  0.5185460000000  0.4240260000000 1.0
C      1  0.4878660000000  0.4237330000000  0.4766060000000 1.0
C      1  0.4884740000000  0.4392140000000  0.5130820000000 1.0
C      1  0.5646470000000  0.4515710000000  0.5405330000000 1.0
C      1  0.4692130000000  0.5547940000000  0.5560870000000 1.0
C      1  0.5132030000000  0.4260750000000  0.4944760000000 1.0
C      1  0.5007490000000  0.5078160000000  0.5724100000000 1.0
C      1  0.5723740000000  0.4810510000000  0.5372260000000 1.0
C      1  0.5373350000000  0.5026000000000  0.4923530000000 1.0
C      1  0.4803860000000  0.5223950000000  0.4815670000000 1.0
C      1  0.5086520000000  0.4363280000000  0.5575780000000 1.0
C      1  0.4479950000000  0.5261720000000  0.4706090000000 1.0
C      1  0.4722060000000  0.4658860000000  0.5505230000000 1.0
C      1  0.5599830000000  0.5458920000000  0.4844290000000 1.0
C      1  0.5052050000000  0.4683400000000  0.4451650000000 1.0
C      1  0.5832270000000  0.4941800000000  0.5167040000000 1.0
C      1  0.5677550000000  0.5615770000000  0.5064670000000 1.0
C      1  0.5383220000000  0.4375370000000  0.4974660000000 1.0
C      1  0.4565660000000  0.5634880000000  0.5069890000000 1.0
C      1  0.5071820000000  0.5223710000000  0.5363520000000 1.0
C      1  0.4511100000000  0.5093260000000  0.5512880000000 1.0
C      1  0.5021800000000  0.5700480000000  0.4853300000000 1.0
C      1  0.4862770000000  0.4909830000000  0.4727770000000 1.0
C      1  0.4862030000000  0.5775230000000  0.5055170000000 1.0
C      1  0.5723250000000  0.5205210000000  0.4711440000000 1.0
C      1  0.5246440000000  0.4745770000000  0.4925820000000 1.0
C      1  0.4824510000000  0.5177600000000  0.5147490000000 1.0
C      1  0.4207420000000  0.5275960000000  0.4901630000000 1.0
C      1  0.5218640000000  0.4601340000000  0.5604650000000 1.0
C      1  0.5729640000000  0.4665050000000  0.4752290000000 1.0
C      1  0.5333120000000  0.5275480000000  0.4739810000000 1.0
C      1  0.5535420000000  0.5217000000000  0.4468970000000 1.0
C      1  0.4522870000000  0.4572360000000  0.4503810000000 1.0
C      1  0.4396770000000  0.4759690000000  0.5173280000000 1.0
C      1  0.5499150000000  0.4498530000000  0.4740130000000 1.0
END
