TITL C-2848494-1720-18 -1340.6671803225 125000 -819.552966382084 0 0 154 (C1) n - 1
REM
REM in /home/bkarasulu/work/CARBON/AIRSS/Generating-Clusters/AIREBO/with-SteepDescent/Only-C1/SD-CG-opt/Try1-1.4A-POS3A/HFTN-CG
REM
REM
REM
REM
REM
REM ./C.cell (11c1c37f851c82e70ff6c80c92926a4b)
REM
REM compiler GCC version 9.2.1 20190827 (Red Hat 9.2.1-1)
REM options -cpp -mtune=generic -march=x86-64 -g -O0 -fpre-include=/usr/include/finclude/math-vector-fortran.h
REM seed -495953294 -474543111 -1433472829 -255259531 -1441206281 -1831023424 -984128346 942210191 -1508924965 99416133 1483864100 1246845361 1627654523 383738236 1074240657 -422303334 1691523289 1585962046 -1819314423 -1041237792 -162773621 -1470649842 -1404030025 -1391912990 -1640036721 698297584 756674986 1822196492 1844122901 714617092 990874319 -73784719 1477841498
REM
CELL 1.54180   50.00000   50.00000   50.00000   90.00000   90.00000   90.00000
LATT -1
SFAC C  
C      1  0.5716240000000  0.5235820000000  0.4310880000000 1.0
C      1  0.5263400000000  0.5820880000000  0.5644160000000 1.0
C      1  0.5578230000000  0.5417390000000  0.5707990000000 1.0
C      1  0.5342930000000  0.4666780000000  0.4154720000000 1.0
C      1  0.4350170000000  0.4852750000000  0.4158930000000 1.0
C      1  0.4389410000000  0.5500340000000  0.5512870000000 1.0
C      1  0.5136030000000  0.5331250000000  0.4849550000000 1.0
C      1  0.5468870000000  0.5695110000000  0.5790700000000 1.0
C      1  0.5217600000000  0.4244850000000  0.4870900000000 1.0
C      1  0.5325060000000  0.4402480000000  0.4163970000000 1.0
C      1  0.5817850000000  0.4792870000000  0.5399480000000 1.0
C      1  0.4499910000000  0.4303680000000  0.5797210000000 1.0
C      1  0.4213240000000  0.5598970000000  0.4959410000000 1.0
C      1  0.4685870000000  0.5028430000000  0.4819860000000 1.0
C      1  0.4853600000000  0.5883800000000  0.5354200000000 1.0
C      1  0.4782510000000  0.5087710000000  0.5104560000000 1.0
C      1  0.5417060000000  0.5390450000000  0.4667290000000 1.0
C      1  0.5162440000000  0.4119870000000  0.4566120000000 1.0
C      1  0.5586070000000  0.4631080000000  0.4780680000000 1.0
C      1  0.5178920000000  0.4946220000000  0.4101700000000 1.0
C      1  0.5375240000000  0.5168940000000  0.3943200000000 1.0
C      1  0.4456390000000  0.5833980000000  0.4923040000000 1.0
C      1  0.4055860000000  0.4592340000000  0.4787680000000 1.0
C      1  0.4656520000000  0.3981000000000  0.4726320000000 1.0
C      1  0.4271210000000  0.4681960000000  0.5567860000000 1.0
C      1  0.5095040000000  0.5281480000000  0.6065460000000 1.0
C      1  0.5178140000000  0.5666120000000  0.4096460000000 1.0
C      1  0.5969500000000  0.4362930000000  0.5034210000000 1.0
C      1  0.5967260000000  0.4765620000000  0.4383980000000 1.0
C      1  0.5137080000000  0.4649570000000  0.4494440000000 1.0
C      1  0.5732530000000  0.4859170000000  0.3991180000000 1.0
C      1  0.4664660000000  0.5091970000000  0.4120940000000 1.0
C      1  0.4382660000000  0.5186750000000  0.4231090000000 1.0
C      1  0.5434290000000  0.4513830000000  0.5846100000000 1.0
C      1  0.5893430000000  0.5003150000000  0.5632670000000 1.0
C      1  0.5764560000000  0.4873480000000  0.5919540000000 1.0
C      1  0.4886290000000  0.4489820000000  0.4343890000000 1.0
C      1  0.5282190000000  0.4527800000000  0.4736100000000 1.0
C      1  0.5943970000000  0.5132000000000  0.4541040000000 1.0
C      1  0.4889670000000  0.5280260000000  0.5816480000000 1.0
C      1  0.5257180000000  0.4573020000000  0.5592440000000 1.0
C      1  0.4009530000000  0.5028390000000  0.4617180000000 1.0
C      1  0.4873130000000  0.4153780000000  0.4693920000000 1.0
C      1  0.4770120000000  0.5802730000000  0.4795030000000 1.0
C      1  0.5312740000000  0.5842240000000  0.5359680000000 1.0
C      1  0.4436890000000  0.4389990000000  0.5536600000000 1.0
C      1  0.5113120000000  0.5799770000000  0.4464390000000 1.0
C      1  0.4935270000000  0.4887770000000  0.4390310000000 1.0
C      1  0.4713610000000  0.4507610000000  0.4076470000000 1.0
C      1  0.4580780000000  0.4266840000000  0.5282130000000 1.0
C      1  0.5515470000000  0.4771250000000  0.5966110000000 1.0
C      1  0.4927730000000  0.4794230000000  0.5710940000000 1.0
C      1  0.5063340000000  0.4981230000000  0.5148850000000 1.0
C      1  0.5708050000000  0.4262620000000  0.5217850000000 1.0
C      1  0.5314940000000  0.5577260000000  0.5005490000000 1.0
C      1  0.4540110000000  0.4659900000000  0.3980110000000 1.0
C      1  0.4643010000000  0.4823670000000  0.4329330000000 1.0
C      1  0.4610850000000  0.5870260000000  0.5223800000000 1.0
C      1  0.4546180000000  0.5092380000000  0.5323500000000 1.0
C      1  0.6037630000000  0.4663150000000  0.5186080000000 1.0
C      1  0.4302770000000  0.5177090000000  0.4603910000000 1.0
C      1  0.4886400000000  0.5579960000000  0.4180820000000 1.0
C      1  0.5567020000000  0.5028380000000  0.5610490000000 1.0
C      1  0.4337700000000  0.4661010000000  0.5900680000000 1.0
C      1  0.5129720000000  0.4421420000000  0.5837090000000 1.0
C      1  0.4668960000000  0.5092680000000  0.5994670000000 1.0
C      1  0.5149200000000  0.5481230000000  0.4478180000000 1.0
C      1  0.5437860000000  0.4685520000000  0.5068480000000 1.0
C      1  0.5260840000000  0.5961930000000  0.4216080000000 1.0
C      1  0.4910140000000  0.5416140000000  0.5362700000000 1.0
C      1  0.4669770000000  0.5311980000000  0.5552120000000 1.0
C      1  0.4492590000000  0.5281920000000  0.5840960000000 1.0
C      1  0.5658160000000  0.4882530000000  0.4322220000000 1.0
C      1  0.6048300000000  0.4862900000000  0.4646380000000 1.0
C      1  0.4684060000000  0.4750770000000  0.5477720000000 1.0
C      1  0.4025800000000  0.4754640000000  0.4552500000000 1.0
C      1  0.5628260000000  0.5118250000000  0.5095640000000 1.0
C      1  0.5623340000000  0.5621230000000  0.4526620000000 1.0
C      1  0.4889480000000  0.4324610000000  0.5279490000000 1.0
C      1  0.4907670000000  0.4594750000000  0.5978080000000 1.0
C      1  0.5380510000000  0.5248940000000  0.4364060000000 1.0
C      1  0.5189190000000  0.4832120000000  0.5412400000000 1.0
C      1  0.5649340000000  0.4887360000000  0.4655980000000 1.0
C      1  0.5065140000000  0.5183090000000  0.3917000000000 1.0
C      1  0.4407990000000  0.4774810000000  0.5270700000000 1.0
C      1  0.5506110000000  0.4886520000000  0.5301120000000 1.0
C      1  0.4323000000000  0.5254460000000  0.5142860000000 1.0
C      1  0.3764920000000  0.4878950000000  0.5561840000000 1.0
C      1  0.4991590000000  0.5989710000000  0.4698770000000 1.0
C      1  0.5180720000000  0.5036040000000  0.4686080000000 1.0
C      1  0.4545590000000  0.5662210000000  0.5749710000000 1.0
C      1  0.4504310000000  0.3707210000000  0.5340630000000 1.0
C      1  0.4930030000000  0.4639230000000  0.5305900000000 1.0
C      1  0.4877030000000  0.5098020000000  0.4612040000000 1.0
C      1  0.4502820000000  0.5597190000000  0.5240790000000 1.0
C      1  0.5282370000000  0.5087890000000  0.6037280000000 1.0
C      1  0.4426550000000  0.4076300000000  0.4843710000000 1.0
C      1  0.5165870000000  0.4800180000000  0.4905150000000 1.0
C      1  0.4429980000000  0.5679580000000  0.4633420000000 1.0
C      1  0.4619270000000  0.4509100000000  0.6022610000000 1.0
C      1  0.4815860000000  0.4428760000000  0.4747900000000 1.0
C      1  0.5469260000000  0.4037580000000  0.4598990000000 1.0
C      1  0.4593940000000  0.5446180000000  0.4291580000000 1.0
C      1  0.5615920000000  0.5146700000000  0.4796600000000 1.0
C      1  0.4462000000000  0.5757270000000  0.4329260000000 1.0
C      1  0.4817250000000  0.5610330000000  0.5776640000000 1.0
C      1  0.3911130000000  0.5077470000000  0.4893520000000 1.0
C      1  0.4538030000000  0.3958840000000  0.5315090000000 1.0
C      1  0.4455600000000  0.4959330000000  0.5618910000000 1.0
C      1  0.4057220000000  0.4952010000000  0.5555710000000 1.0
C      1  0.4775220000000  0.5763870000000  0.4452550000000 1.0
C      1  0.5996170000000  0.4658550000000  0.4853840000000 1.0
C      1  0.4923260000000  0.4575800000000  0.4971560000000 1.0
C      1  0.4608200000000  0.4548030000000  0.4511010000000 1.0
C      1  0.4190020000000  0.5064820000000  0.4970460000000 1.0
C      1  0.4834100000000  0.5373680000000  0.4517030000000 1.0
C      1  0.4116560000000  0.5497780000000  0.5227780000000 1.0
C      1  0.5863030000000  0.4465060000000  0.5403650000000 1.0
C      1  0.4573470000000  0.4845850000000  0.6033040000000 1.0
C      1  0.5329700000000  0.4915210000000  0.4404940000000 1.0
C      1  0.5684170000000  0.4160550000000  0.4613870000000 1.0
C      1  0.5826370000000  0.5323230000000  0.5538040000000 1.0
C      1  0.5440480000000  0.4384580000000  0.5080360000000 1.0
C      1  0.5177610000000  0.4804520000000  0.5941510000000 1.0
C      1  0.5500730000000  0.5172270000000  0.5899750000000 1.0
C      1  0.4405690000000  0.4911960000000  0.4790450000000 1.0
C      1  0.4616580000000  0.5370500000000  0.5014350000000 1.0
C      1  0.4221510000000  0.5144960000000  0.5781290000000 1.0
C      1  0.5963490000000  0.5445400000000  0.4973850000000 1.0
C      1  0.5748320000000  0.5396890000000  0.5232690000000 1.0
C      1  0.5413610000000  0.4098230000000  0.5266030000000 1.0
C      1  0.5061830000000  0.5675210000000  0.5203030000000 1.0
C      1  0.5816040000000  0.5393100000000  0.4689870000000 1.0
C      1  0.5459400000000  0.5714630000000  0.4284780000000 1.0
C      1  0.4275830000000  0.4625140000000  0.5045140000000 1.0
C      1  0.5128630000000  0.4291770000000  0.4316260000000 1.0
C      1  0.4442790000000  0.4344470000000  0.5002080000000 1.0
C      1  0.5411480000000  0.5399840000000  0.5278990000000 1.0
C      1  0.5616790000000  0.5644220000000  0.5038210000000 1.0
C      1  0.4972530000000  0.5800380000000  0.5635320000000 1.0
C      1  0.4537760000000  0.5396840000000  0.4684420000000 1.0
C      1  0.4103790000000  0.4712880000000  0.4284960000000 1.0
C      1  0.5085160000000  0.5075590000000  0.5626370000000 1.0
C      1  0.5130100000000  0.5274300000000  0.5184760000000 1.0
C      1  0.5722630000000  0.5761790000000  0.4810480000000 1.0
C      1  0.4129760000000  0.5281940000000  0.5490150000000 1.0
C      1  0.4145790000000  0.5429730000000  0.4756040000000 1.0
C      1  0.4892290000000  0.5552900000000  0.4934800000000 1.0
C      1  0.5113280000000  0.4182450000000  0.5181050000000 1.0
C      1  0.5637620000000  0.5137330000000  0.4015080000000 1.0
C      1  0.4454870000000  0.4597910000000  0.4771690000000 1.0
C      1  0.5333850000000  0.5243600000000  0.5544170000000 1.0
C      1  0.4837500000000  0.5285240000000  0.4020810000000 1.0
C      1  0.5793800000000  0.4403710000000  0.4755330000000 1.0
END
