TITL C-2847949-8115-633 -0.00624441270273533 125000 -302.287886547704 0 0 55 (C1) n - 1
REM
REM in /home/bkarasulu/work/CARBON/AIRSS/Generating-Clusters/AIREBO/with-SteepDescent/Only-C1/SD-CG-opt/Try1-1.4A-POS3A/HFTN-CG
REM
REM
REM
REM
REM
REM ./C.cell (11c1c37f851c82e70ff6c80c92926a4b)
REM
REM compiler GCC version 9.2.1 20190827 (Red Hat 9.2.1-1)
REM options -cpp -mtune=generic -march=x86-64 -g -O0 -fpre-include=/usr/include/finclude/math-vector-fortran.h
REM seed -1029812073 -358819116 2146301676 675955091 -954374027 -312637380 -1207325134 1209780585 1336220440 -1175926023 -2132676514 1441542600 1271327437 1054331202 -1027221334 -564676984 -1169500342 -235007804 95401150 509152291 349412047 71897727 794649025 1398792729 -146927687 128900696 -1118600385 -782204877 1991218900 680212550 -798314037 1951407634 -84999957
REM
CELL 1.54180   50.00000   50.00000   50.00000   90.00000   90.00000   90.00000
LATT -1
SFAC C  
C      1  0.4802360000000  0.4690360000000  0.5579370000000 1.0
C      1  0.4796690000000  0.5285410000000  0.4363630000000 1.0
C      1  0.5330690000000  0.4615710000000  0.5628900000000 1.0
C      1  0.4947240000000  0.5257290000000  0.5694320000000 1.0
C      1  0.5683490000000  0.5271800000000  0.4550080000000 1.0
C      1  0.4796020000000  0.4599070000000  0.4327040000000 1.0
C      1  0.5187360000000  0.5052680000000  0.5681600000000 1.0
C      1  0.4713410000000  0.5338690000000  0.4751140000000 1.0
C      1  0.4862490000000  0.4235030000000  0.4792860000000 1.0
C      1  0.5058810000000  0.5535340000000  0.5631350000000 1.0
C      1  0.5279880000000  0.5059250000000  0.5373880000000 1.0
C      1  0.4480270000000  0.4955040000000  0.4642000000000 1.0
C      1  0.5488220000000  0.5511020000000  0.5066050000000 1.0
C      1  0.5597860000000  0.4722860000000  0.4882930000000 1.0
C      1  0.4329170000000  0.4827010000000  0.4363890000000 1.0
C      1  0.5161870000000  0.5439380000000  0.5129170000000 1.0
C      1  0.4594550000000  0.5090050000000  0.4881280000000 1.0
C      1  0.5423060000000  0.4769050000000  0.5357750000000 1.0
C      1  0.4657590000000  0.5248740000000  0.5477570000000 1.0
C      1  0.4509650000000  0.4552240000000  0.4337010000000 1.0
C      1  0.5434930000000  0.4124120000000  0.5057050000000 1.0
C      1  0.4922280000000  0.4496350000000  0.4586320000000 1.0
C      1  0.4854480000000  0.4878940000000  0.4304970000000 1.0
C      1  0.4446700000000  0.4625050000000  0.4652340000000 1.0
C      1  0.4402630000000  0.5201350000000  0.5336410000000 1.0
C      1  0.5482850000000  0.5252340000000  0.4728140000000 1.0
C      1  0.5001390000000  0.5274150000000  0.4632270000000 1.0
C      1  0.4814570000000  0.4971540000000  0.5566270000000 1.0
C      1  0.4975410000000  0.4358420000000  0.5071050000000 1.0
C      1  0.5293970000000  0.5722980000000  0.4884350000000 1.0
C      1  0.5056850000000  0.4970010000000  0.4489300000000 1.0
C      1  0.5566690000000  0.4930600000000  0.5127870000000 1.0
C      1  0.4733310000000  0.4651260000000  0.5085160000000 1.0
C      1  0.5060140000000  0.5827070000000  0.5061980000000 1.0
C      1  0.5124210000000  0.4921110000000  0.4873120000000 1.0
C      1  0.5498530000000  0.5248840000000  0.5226650000000 1.0
C      1  0.5406160000000  0.5900330000000  0.4703310000000 1.0
C      1  0.5145650000000  0.4690460000000  0.4661400000000 1.0
C      1  0.4866560000000  0.5410560000000  0.5295240000000 1.0
C      1  0.4673690000000  0.4507420000000  0.4818320000000 1.0
C      1  0.5239510000000  0.4811000000000  0.5800350000000 1.0
C      1  0.4883620000000  0.4534090000000  0.5345450000000 1.0
C      1  0.4864690000000  0.4944290000000  0.5027980000000 1.0
C      1  0.5218650000000  0.5404000000000  0.4793650000000 1.0
C      1  0.4415450000000  0.5027960000000  0.5128180000000 1.0
C      1  0.4872040000000  0.5709840000000  0.5177530000000 1.0
C      1  0.4443360000000  0.4757620000000  0.5177850000000 1.0
C      1  0.5370650000000  0.5051140000000  0.4904880000000 1.0
C      1  0.4591400000000  0.5566510000000  0.4717190000000 1.0
C      1  0.5213090000000  0.4513810000000  0.5325810000000 1.0
C      1  0.5378650000000  0.4562640000000  0.4825510000000 1.0
C      1  0.5297650000000  0.4365870000000  0.5044630000000 1.0
C      1  0.4967110000000  0.5087640000000  0.5285040000000 1.0
C      1  0.4592240000000  0.5041770000000  0.4346550000000 1.0
C      1  0.5190200000000  0.5602900000000  0.5426030000000 1.0
END
