TITL C-2848502-4955-723 0.000479057861972745 125000 -1080.19831589804 0 0 199 (C1) n - 1
REM
REM in /home/bkarasulu/work/CARBON/AIRSS/Generating-Clusters/AIREBO/with-SteepDescent/Only-C1/SD-CG-opt/Try1-1.4A-POS3A/HFTN-CG
REM
REM
REM
REM
REM
REM ./C.cell (11c1c37f851c82e70ff6c80c92926a4b)
REM
REM compiler GCC version 9.2.1 20190827 (Red Hat 9.2.1-1)
REM options -cpp -mtune=generic -march=x86-64 -g -O0 -fpre-include=/usr/include/finclude/math-vector-fortran.h
REM seed -605332945 -1305863981 1610416630 271702318 1627116680 -1017802697 1000320158 -1177881741 695055881 466655746 -1360520262 -1738632617 67372992 147041620 -1298106919 1696463121 1619000613 1039949404 -850957436 529336349 -845234780 1722469775 749124316 -1196671219 1238705386 72860884 140510343 -502041641 -1627197808 -332800571 1702362854 -1111696668 -1133765068
REM
CELL 1.54180   50.00000   50.00000   50.00000   90.00000   90.00000   90.00000
LATT -1
SFAC C  
C      1  0.4457330000000  0.4854400000000  0.3690320000000 1.0
C      1  0.5432570000000  0.5399740000000  0.5006960000000 1.0
C      1  0.5951360000000  0.4306740000000  0.5399180000000 1.0
C      1  0.5904640000000  0.5628880000000  0.5084380000000 1.0
C      1  0.5024660000000  0.6011660000000  0.4566030000000 1.0
C      1  0.3989180000000  0.4477600000000  0.4471050000000 1.0
C      1  0.5947800000000  0.4443770000000  0.4842140000000 1.0
C      1  0.5805270000000  0.4414300000000  0.4354830000000 1.0
C      1  0.4575850000000  0.5514080000000  0.5517310000000 1.0
C      1  0.6098160000000  0.5209790000000  0.4715180000000 1.0
C      1  0.5105240000000  0.5679540000000  0.4990270000000 1.0
C      1  0.5432880000000  0.4828990000000  0.4989730000000 1.0
C      1  0.5742980000000  0.5366840000000  0.5053540000000 1.0
C      1  0.4813460000000  0.4181960000000  0.4818660000000 1.0
C      1  0.6011220000000  0.4603070000000  0.5379720000000 1.0
C      1  0.4968670000000  0.5303310000000  0.4391650000000 1.0
C      1  0.4212120000000  0.4589290000000  0.4296730000000 1.0
C      1  0.5448140000000  0.4743100000000  0.4071900000000 1.0
C      1  0.5429630000000  0.4303460000000  0.4424780000000 1.0
C      1  0.5725490000000  0.5951570000000  0.4737340000000 1.0
C      1  0.3979900000000  0.5323300000000  0.5121970000000 1.0
C      1  0.4893540000000  0.6105720000000  0.4836790000000 1.0
C      1  0.5460440000000  0.4505580000000  0.5340850000000 1.0
C      1  0.4999120000000  0.5435620000000  0.5980390000000 1.0
C      1  0.5529760000000  0.4048410000000  0.5544590000000 1.0
C      1  0.4907570000000  0.5766280000000  0.4361600000000 1.0
C      1  0.5694450000000  0.4154830000000  0.4498510000000 1.0
C      1  0.4374360000000  0.4509240000000  0.4584620000000 1.0
C      1  0.5265210000000  0.5448870000000  0.4472240000000 1.0
C      1  0.5197490000000  0.4450670000000  0.5508230000000 1.0
C      1  0.5245730000000  0.4959180000000  0.3905060000000 1.0
C      1  0.4943800000000  0.4593720000000  0.4413990000000 1.0
C      1  0.4376580000000  0.5624230000000  0.4988290000000 1.0
C      1  0.4868460000000  0.4677410000000  0.6081690000000 1.0
C      1  0.5346790000000  0.6002870000000  0.4631620000000 1.0
C      1  0.4302310000000  0.4088470000000  0.5156610000000 1.0
C      1  0.4485300000000  0.6063730000000  0.4519550000000 1.0
C      1  0.5028450000000  0.5975970000000  0.5085500000000 1.0
C      1  0.5293020000000  0.5104830000000  0.4942360000000 1.0
C      1  0.4586400000000  0.4435100000000  0.4818540000000 1.0
C      1  0.4578780000000  0.5945810000000  0.5238980000000 1.0
C      1  0.4928000000000  0.4337000000000  0.5461170000000 1.0
C      1  0.4218590000000  0.5002020000000  0.4445040000000 1.0
C      1  0.6008710000000  0.5532670000000  0.4775420000000 1.0
C      1  0.4284310000000  0.4876220000000  0.4169450000000 1.0
C      1  0.5812060000000  0.5773240000000  0.5321160000000 1.0
C      1  0.4508700000000  0.4778570000000  0.3948010000000 1.0
C      1  0.4308420000000  0.5255370000000  0.6121810000000 1.0
C      1  0.4941620000000  0.5448100000000  0.5110960000000 1.0
C      1  0.5700500000000  0.5725840000000  0.4225640000000 1.0
C      1  0.4656120000000  0.4064010000000  0.4547560000000 1.0
C      1  0.4660600000000  0.5002970000000  0.4148530000000 1.0
C      1  0.5472420000000  0.5325100000000  0.4231940000000 1.0
C      1  0.5374610000000  0.5204530000000  0.4663690000000 1.0
C      1  0.4402290000000  0.5123460000000  0.5186400000000 1.0
C      1  0.4993780000000  0.3895330000000  0.4868280000000 1.0
C      1  0.4749020000000  0.4447930000000  0.5953800000000 1.0
C      1  0.4522590000000  0.5372170000000  0.4812870000000 1.0
C      1  0.4445760000000  0.4889010000000  0.5368830000000 1.0
C      1  0.5055170000000  0.5947530000000  0.5387570000000 1.0
C      1  0.5150710000000  0.4682740000000  0.4178010000000 1.0
C      1  0.5643340000000  0.5331220000000  0.4525870000000 1.0
C      1  0.5737740000000  0.5276430000000  0.5336480000000 1.0
C      1  0.5296100000000  0.4931840000000  0.4537770000000 1.0
C      1  0.5341370000000  0.3934240000000  0.5348290000000 1.0
C      1  0.5479660000000  0.5699440000000  0.4554920000000 1.0
C      1  0.4825590000000  0.5007980000000  0.3714370000000 1.0
C      1  0.4289450000000  0.5692360000000  0.4005650000000 1.0
C      1  0.5984920000000  0.5195810000000  0.5454460000000 1.0
C      1  0.4903800000000  0.4794120000000  0.5764120000000 1.0
C      1  0.4180100000000  0.4782200000000  0.4644380000000 1.0
C      1  0.4894970000000  0.4085370000000  0.5655720000000 1.0
C      1  0.5366600000000  0.4351870000000  0.4124330000000 1.0
C      1  0.5005700000000  0.4787420000000  0.4641160000000 1.0
C      1  0.5487010000000  0.4097620000000  0.4762040000000 1.0
C      1  0.5126440000000  0.3769360000000  0.5152660000000 1.0
C      1  0.3879410000000  0.4750140000000  0.5334090000000 1.0
C      1  0.5575240000000  0.5672790000000  0.4862000000000 1.0
C      1  0.5566080000000  0.5973440000000  0.5261250000000 1.0
C      1  0.4019250000000  0.4674590000000  0.5033460000000 1.0
C      1  0.6047070000000  0.5439160000000  0.5592580000000 1.0
C      1  0.5107570000000  0.5642880000000  0.4688350000000 1.0
C      1  0.3913320000000  0.5305010000000  0.5403310000000 1.0
C      1  0.4862580000000  0.5066500000000  0.5278620000000 1.0
C      1  0.4671540000000  0.5888880000000  0.4934560000000 1.0
C      1  0.4842170000000  0.5334610000000  0.5486920000000 1.0
C      1  0.5270090000000  0.5757680000000  0.5663910000000 1.0
C      1  0.5951600000000  0.4947530000000  0.4555630000000 1.0
C      1  0.5317600000000  0.6066460000000  0.4304040000000 1.0
C      1  0.4615700000000  0.5046210000000  0.4445580000000 1.0
C      1  0.5247310000000  0.5448360000000  0.5754390000000 1.0
C      1  0.5376090000000  0.5785920000000  0.5080000000000 1.0
C      1  0.5235870000000  0.4335940000000  0.5965780000000 1.0
C      1  0.4322170000000  0.5809740000000  0.5268030000000 1.0
C      1  0.4428220000000  0.5847520000000  0.4736970000000 1.0
C      1  0.4750320000000  0.5937870000000  0.5469860000000 1.0
C      1  0.5358250000000  0.6028330000000  0.5480000000000 1.0
C      1  0.5233990000000  0.5135920000000  0.5667610000000 1.0
C      1  0.4747100000000  0.4588970000000  0.5539200000000 1.0
C      1  0.4865090000000  0.4221490000000  0.5152390000000 1.0
C      1  0.4782400000000  0.5672340000000  0.5932690000000 1.0
C      1  0.5374320000000  0.6032380000000  0.5805270000000 1.0
C      1  0.4034580000000  0.4830800000000  0.5625690000000 1.0
C      1  0.5033230000000  0.3854460000000  0.5468440000000 1.0
C      1  0.5778500000000  0.4229790000000  0.5620110000000 1.0
C      1  0.6208570000000  0.4888510000000  0.5058400000000 1.0
C      1  0.5172060000000  0.4758260000000  0.5558100000000 1.0
C      1  0.5005210000000  0.5078310000000  0.4976180000000 1.0
C      1  0.4825680000000  0.5363630000000  0.4694300000000 1.0
C      1  0.4586160000000  0.5241220000000  0.6087140000000 1.0
C      1  0.5055990000000  0.4347950000000  0.4232190000000 1.0
C      1  0.4767170000000  0.5507710000000  0.4208790000000 1.0
C      1  0.5580560000000  0.4788950000000  0.5473260000000 1.0
C      1  0.5008910000000  0.3576810000000  0.4923670000000 1.0
C      1  0.4804440000000  0.3963870000000  0.5286630000000 1.0
C      1  0.4398500000000  0.5269120000000  0.4542430000000 1.0
C      1  0.4794630000000  0.5703440000000  0.4676250000000 1.0
C      1  0.4929390000000  0.5208910000000  0.5762080000000 1.0
C      1  0.5640550000000  0.4504380000000  0.4147610000000 1.0
C      1  0.4724310000000  0.6121000000000  0.4465620000000 1.0
C      1  0.4625480000000  0.5551400000000  0.5209700000000 1.0
C      1  0.5809390000000  0.5620090000000  0.4530000000000 1.0
C      1  0.4947940000000  0.5390710000000  0.3998510000000 1.0
C      1  0.5623640000000  0.4850960000000  0.4584940000000 1.0
C      1  0.4466600000000  0.4440510000000  0.5623010000000 1.0
C      1  0.5313970000000  0.4434310000000  0.4635390000000 1.0
C      1  0.4664900000000  0.5025230000000  0.5836590000000 1.0
C      1  0.4497360000000  0.5118440000000  0.5574270000000 1.0
C      1  0.5173810000000  0.5110240000000  0.5368600000000 1.0
C      1  0.4086440000000  0.4421710000000  0.5247470000000 1.0
C      1  0.4215420000000  0.5681830000000  0.5482010000000 1.0
C      1  0.5030110000000  0.5617950000000  0.5467710000000 1.0
C      1  0.5058180000000  0.4986700000000  0.4300060000000 1.0
C      1  0.5339540000000  0.4879060000000  0.5276160000000 1.0
C      1  0.4720860000000  0.4759050000000  0.5245780000000 1.0
C      1  0.5785590000000  0.5205410000000  0.4807980000000 1.0
C      1  0.5233950000000  0.5418630000000  0.5282440000000 1.0
C      1  0.4065790000000  0.5158120000000  0.5669610000000 1.0
C      1  0.4273650000000  0.4630880000000  0.5762170000000 1.0
C      1  0.5788880000000  0.4893620000000  0.5236350000000 1.0
C      1  0.4281000000000  0.4059850000000  0.4911270000000 1.0
C      1  0.5430480000000  0.5639810000000  0.4162800000000 1.0
C      1  0.4442310000000  0.5449260000000  0.4144820000000 1.0
C      1  0.6103320000000  0.4922460000000  0.5355040000000 1.0
C      1  0.5732700000000  0.4562160000000  0.5184140000000 1.0
C      1  0.4374500000000  0.4168300000000  0.4610130000000 1.0
C      1  0.4034760000000  0.5555360000000  0.4658480000000 1.0
C      1  0.5342820000000  0.4094800000000  0.5070190000000 1.0
C      1  0.6013920000000  0.4736700000000  0.4916710000000 1.0
C      1  0.4059080000000  0.4280300000000  0.4664380000000 1.0
C      1  0.4978270000000  0.4090140000000  0.4377440000000 1.0
C      1  0.5827860000000  0.5629510000000  0.5572900000000 1.0
C      1  0.5493940000000  0.6057310000000  0.4934430000000 1.0
C      1  0.5382100000000  0.4642800000000  0.5946070000000 1.0
C      1  0.4052430000000  0.5535820000000  0.4946720000000 1.0
C      1  0.4951960000000  0.5070490000000  0.3988040000000 1.0
C      1  0.5653730000000  0.4319430000000  0.4959340000000 1.0
C      1  0.5411190000000  0.4546700000000  0.4898000000000 1.0
C      1  0.4828150000000  0.4658620000000  0.4873890000000 1.0
C      1  0.5520350000000  0.5396890000000  0.5466890000000 1.0
C      1  0.4581920000000  0.4855600000000  0.4950580000000 1.0
C      1  0.5250240000000  0.4388140000000  0.5118040000000 1.0
C      1  0.4378570000000  0.4344460000000  0.5343750000000 1.0
C      1  0.5941970000000  0.4228570000000  0.5115350000000 1.0
C      1  0.4369370000000  0.5129450000000  0.3683520000000 1.0
C      1  0.4975400000000  0.4234960000000  0.5939700000000 1.0
C      1  0.4267920000000  0.4849200000000  0.4929490000000 1.0
C      1  0.4784470000000  0.5027680000000  0.4728300000000 1.0
C      1  0.5429500000000  0.4886700000000  0.5729910000000 1.0
C      1  0.4150590000000  0.5483840000000  0.4316620000000 1.0
C      1  0.4765760000000  0.3862360000000  0.4329150000000 1.0
C      1  0.5494180000000  0.5322130000000  0.6037970000000 1.0
C      1  0.5215850000000  0.5812450000000  0.4222590000000 1.0
C      1  0.5226460000000  0.5196060000000  0.6062110000000 1.0
C      1  0.4216470000000  0.4707770000000  0.5377660000000 1.0
C      1  0.4340200000000  0.5606080000000  0.4549060000000 1.0
C      1  0.4964980000000  0.4528010000000  0.5113360000000 1.0
C      1  0.4182570000000  0.5060080000000  0.5954950000000 1.0
C      1  0.5136550000000  0.4873950000000  0.5999120000000 1.0
C      1  0.4543080000000  0.4494570000000  0.5127140000000 1.0
C      1  0.4686430000000  0.5748180000000  0.5680910000000 1.0
C      1  0.5870060000000  0.4617520000000  0.4564690000000 1.0
C      1  0.5393080000000  0.4292600000000  0.5694510000000 1.0
C      1  0.5573620000000  0.5519880000000  0.5770200000000 1.0
C      1  0.5162620000000  0.4067370000000  0.4662330000000 1.0
C      1  0.4290020000000  0.5369440000000  0.5562350000000 1.0
C      1  0.6307640000000  0.5096060000000  0.4912310000000 1.0
C      1  0.4384890000000  0.4848980000000  0.5915480000000 1.0
C      1  0.4144720000000  0.5111590000000  0.5051090000000 1.0
C      1  0.3849800000000  0.4709470000000  0.4608860000000 1.0
C      1  0.5487480000000  0.5083030000000  0.4067560000000 1.0
C      1  0.4662860000000  0.5255720000000  0.5078780000000 1.0
C      1  0.4003280000000  0.4353950000000  0.4927620000000 1.0
C      1  0.5644320000000  0.4445360000000  0.5847060000000 1.0
C      1  0.5733710000000  0.4910170000000  0.4901150000000 1.0
C      1  0.4610610000000  0.4201800000000  0.5802040000000 1.0
C      1  0.4026140000000  0.5231100000000  0.4401470000000 1.0
C      1  0.5019460000000  0.4375640000000  0.4650770000000 1.0
C      1  0.4397160000000  0.5157720000000  0.4006630000000 1.0
END
