TITL C-2847945-6269-524 -0.00182492349874172 125000 -1020.42790093741 0 0 189 (C1) n - 1
REM
REM in /home/bkarasulu/work/CARBON/AIRSS/Generating-Clusters/AIREBO/with-SteepDescent/Only-C1/SD-CG-opt/Try1-1.4A-POS3A/HFTN-CG
REM
REM
REM
REM
REM
REM ./C.cell (11c1c37f851c82e70ff6c80c92926a4b)
REM
REM compiler GCC version 9.2.1 20190827 (Red Hat 9.2.1-1)
REM options -cpp -mtune=generic -march=x86-64 -g -O0 -fpre-include=/usr/include/finclude/math-vector-fortran.h
REM seed 591725516 -715281938 2146216527 818680076 -1368820946 -1658785210 -1972518047 2083514980 2116448372 208914686 -1977968298 -1192950808 -2131051903 1114601198 -1234248581 382151459 280231519 -761641904 -968987225 992167717 116910603 407663824 -1510814700 253626361 1359613766 1760267207 1648381828 -576774716 -1879113442 966845218 -1699315653 2120708448 -997237091
REM
CELL 1.54180   50.00000   50.00000   50.00000   90.00000   90.00000   90.00000
LATT -1
SFAC C  
C      1  0.5005650000000  0.5124840000000  0.3866510000000 1.0
C      1  0.4251910000000  0.4845730000000  0.5894290000000 1.0
C      1  0.4905040000000  0.4994090000000  0.4132070000000 1.0
C      1  0.4709770000000  0.5372050000000  0.4449380000000 1.0
C      1  0.4987600000000  0.6030210000000  0.4859280000000 1.0
C      1  0.5481570000000  0.5020630000000  0.4429120000000 1.0
C      1  0.4463580000000  0.4977650000000  0.6067320000000 1.0
C      1  0.5398960000000  0.5813720000000  0.5564150000000 1.0
C      1  0.5369860000000  0.4762180000000  0.5802190000000 1.0
C      1  0.4941130000000  0.4621520000000  0.5795950000000 1.0
C      1  0.4535600000000  0.4082520000000  0.5015570000000 1.0
C      1  0.5521600000000  0.5697440000000  0.4510570000000 1.0
C      1  0.5247450000000  0.4310070000000  0.4149400000000 1.0
C      1  0.6121320000000  0.4511110000000  0.4679700000000 1.0
C      1  0.4537820000000  0.5245130000000  0.6035580000000 1.0
C      1  0.4131420000000  0.5386660000000  0.5154350000000 1.0
C      1  0.5468670000000  0.4830900000000  0.5055590000000 1.0
C      1  0.4103860000000  0.4468930000000  0.5413300000000 1.0
C      1  0.5210120000000  0.5796030000000  0.4547870000000 1.0
C      1  0.5506700000000  0.5100040000000  0.5198420000000 1.0
C      1  0.5382590000000  0.4025000000000  0.5107010000000 1.0
C      1  0.4304310000000  0.5263090000000  0.4470470000000 1.0
C      1  0.5630110000000  0.5653380000000  0.5753150000000 1.0
C      1  0.3901510000000  0.5223280000000  0.5032730000000 1.0
C      1  0.4862800000000  0.5945980000000  0.5243960000000 1.0
C      1  0.4588100000000  0.5885320000000  0.4551960000000 1.0
C      1  0.5433200000000  0.5043540000000  0.5968170000000 1.0
C      1  0.4496150000000  0.5713030000000  0.5427170000000 1.0
C      1  0.6234610000000  0.5398510000000  0.5286030000000 1.0
C      1  0.5866630000000  0.4651330000000  0.4405080000000 1.0
C      1  0.4154390000000  0.4769660000000  0.4261240000000 1.0
C      1  0.4480360000000  0.5289280000000  0.4760490000000 1.0
C      1  0.6226000000000  0.5125470000000  0.5228300000000 1.0
C      1  0.5262860000000  0.4605520000000  0.4591470000000 1.0
C      1  0.4609220000000  0.4615100000000  0.4329280000000 1.0
C      1  0.4639970000000  0.4759350000000  0.5873740000000 1.0
C      1  0.5579630000000  0.5531830000000  0.4219310000000 1.0
C      1  0.4581970000000  0.5257080000000  0.5530260000000 1.0
C      1  0.5430260000000  0.5288140000000  0.5472810000000 1.0
C      1  0.5681550000000  0.5261230000000  0.4512020000000 1.0
C      1  0.4365700000000  0.5839500000000  0.5071310000000 1.0
C      1  0.4946610000000  0.4708960000000  0.4631080000000 1.0
C      1  0.3885800000000  0.4680420000000  0.4920420000000 1.0
C      1  0.4393920000000  0.5422100000000  0.5842150000000 1.0
C      1  0.4654200000000  0.5463530000000  0.4065790000000 1.0
C      1  0.5205780000000  0.3825280000000  0.4960670000000 1.0
C      1  0.5652120000000  0.4252960000000  0.4792810000000 1.0
C      1  0.4887870000000  0.4693030000000  0.4184780000000 1.0
C      1  0.6026200000000  0.5016890000000  0.4161390000000 1.0
C      1  0.5652330000000  0.4029460000000  0.4952700000000 1.0
C      1  0.5087820000000  0.5400340000000  0.5869050000000 1.0
C      1  0.4513860000000  0.4425840000000  0.5536860000000 1.0
C      1  0.5358990000000  0.5324340000000  0.4118330000000 1.0
C      1  0.4658380000000  0.5996200000000  0.5082430000000 1.0
C      1  0.5360980000000  0.4094290000000  0.5398100000000 1.0
C      1  0.4193970000000  0.5691070000000  0.5514850000000 1.0
C      1  0.5349180000000  0.4632170000000  0.5488510000000 1.0
C      1  0.5104560000000  0.4677470000000  0.6178090000000 1.0
C      1  0.5810230000000  0.5077720000000  0.5251550000000 1.0
C      1  0.5176830000000  0.5148010000000  0.6010200000000 1.0
C      1  0.5342440000000  0.4374540000000  0.5710330000000 1.0
C      1  0.5194560000000  0.5037940000000  0.4826970000000 1.0
C      1  0.4034410000000  0.4779470000000  0.5448430000000 1.0
C      1  0.5885820000000  0.4545890000000  0.5169720000000 1.0
C      1  0.4170860000000  0.4640730000000  0.4576100000000 1.0
C      1  0.4880980000000  0.4970500000000  0.5421890000000 1.0
C      1  0.5041680000000  0.5377080000000  0.4523140000000 1.0
C      1  0.5760020000000  0.5443650000000  0.5634030000000 1.0
C      1  0.5386450000000  0.5393000000000  0.4536150000000 1.0
C      1  0.4361200000000  0.4106720000000  0.4557380000000 1.0
C      1  0.5683140000000  0.5451030000000  0.5315600000000 1.0
C      1  0.4416280000000  0.4743790000000  0.5019760000000 1.0
C      1  0.5021150000000  0.4541240000000  0.5472370000000 1.0
C      1  0.4527790000000  0.5650150000000  0.5741930000000 1.0
C      1  0.5449590000000  0.5675190000000  0.5081260000000 1.0
C      1  0.4505250000000  0.5585910000000  0.4592360000000 1.0
C      1  0.4712680000000  0.4548260000000  0.5300620000000 1.0
C      1  0.4473280000000  0.5996920000000  0.4318260000000 1.0
C      1  0.6096730000000  0.4778020000000  0.4303200000000 1.0
C      1  0.4400200000000  0.5467990000000  0.4216590000000 1.0
C      1  0.4924410000000  0.5640260000000  0.5993870000000 1.0
C      1  0.4453900000000  0.3928340000000  0.4743840000000 1.0
C      1  0.4604940000000  0.4868510000000  0.5260760000000 1.0
C      1  0.5341020000000  0.5018800000000  0.5580980000000 1.0
C      1  0.4006790000000  0.4395700000000  0.4932630000000 1.0
C      1  0.4552110000000  0.4788320000000  0.4565960000000 1.0
C      1  0.4512490000000  0.6050750000000  0.4809900000000 1.0
C      1  0.4940610000000  0.5880900000000  0.5559200000000 1.0
C      1  0.4455380000000  0.5329940000000  0.5223050000000 1.0
C      1  0.4383500000000  0.5025120000000  0.4136180000000 1.0
C      1  0.5607860000000  0.4157760000000  0.5508720000000 1.0
C      1  0.3954440000000  0.4885660000000  0.4674730000000 1.0
C      1  0.5640120000000  0.4628060000000  0.4221750000000 1.0
C      1  0.4664600000000  0.4017460000000  0.5388230000000 1.0
C      1  0.5110420000000  0.5560860000000  0.5389730000000 1.0
C      1  0.5714710000000  0.4959280000000  0.4201700000000 1.0
C      1  0.5137100000000  0.5779770000000  0.5130940000000 1.0
C      1  0.4171370000000  0.4377800000000  0.5164970000000 1.0
C      1  0.4945050000000  0.5112330000000  0.5053500000000 1.0
C      1  0.4795640000000  0.4389680000000  0.4059630000000 1.0
C      1  0.4013420000000  0.5370390000000  0.4604490000000 1.0
C      1  0.5163360000000  0.4942970000000  0.3718860000000 1.0
C      1  0.4996940000000  0.5654310000000  0.4327980000000 1.0
C      1  0.5040720000000  0.4296160000000  0.5783720000000 1.0
C      1  0.5452940000000  0.4846280000000  0.4716240000000 1.0
C      1  0.5634460000000  0.5862670000000  0.4784060000000 1.0
C      1  0.4277220000000  0.4954560000000  0.4593030000000 1.0
C      1  0.5289590000000  0.5340210000000  0.4834600000000 1.0
C      1  0.4874390000000  0.4160250000000  0.5211600000000 1.0
C      1  0.4606030000000  0.5114890000000  0.5025880000000 1.0
C      1  0.4875530000000  0.5586700000000  0.5031020000000 1.0
C      1  0.4254760000000  0.5213900000000  0.5612070000000 1.0
C      1  0.4159760000000  0.4844650000000  0.5012620000000 1.0
C      1  0.5302520000000  0.6119200000000  0.4599130000000 1.0
C      1  0.5509000000000  0.5065750000000  0.4003220000000 1.0
C      1  0.4771040000000  0.5771970000000  0.5813150000000 1.0
C      1  0.4771120000000  0.5294380000000  0.5810530000000 1.0
C      1  0.5793220000000  0.5722070000000  0.5043530000000 1.0
C      1  0.5396700000000  0.4595750000000  0.4040130000000 1.0
C      1  0.4202330000000  0.5570020000000  0.4705560000000 1.0
C      1  0.5843810000000  0.5393330000000  0.4260250000000 1.0
C      1  0.6004600000000  0.5088990000000  0.4972700000000 1.0
C      1  0.4832400000000  0.4089700000000  0.4880760000000 1.0
C      1  0.5768560000000  0.4719250000000  0.4686500000000 1.0
C      1  0.5882910000000  0.5195560000000  0.5699270000000 1.0
C      1  0.4682110000000  0.4734320000000  0.4843460000000 1.0
C      1  0.4926320000000  0.4782740000000  0.5042400000000 1.0
C      1  0.6068440000000  0.5593730000000  0.5084050000000 1.0
C      1  0.5166940000000  0.4601450000000  0.4283320000000 1.0
C      1  0.4491000000000  0.4416220000000  0.5072100000000 1.0
C      1  0.4887380000000  0.4447750000000  0.5030180000000 1.0
C      1  0.5055250000000  0.3940350000000  0.4767560000000 1.0
C      1  0.4099480000000  0.5089960000000  0.4261310000000 1.0
C      1  0.4847460000000  0.4392550000000  0.4721350000000 1.0
C      1  0.4988630000000  0.4902160000000  0.5986030000000 1.0
C      1  0.5572320000000  0.4538690000000  0.6238590000000 1.0
C      1  0.5086240000000  0.4138280000000  0.4319150000000 1.0
C      1  0.5559160000000  0.4554560000000  0.5232110000000 1.0
C      1  0.4043750000000  0.4973520000000  0.5727500000000 1.0
C      1  0.6093210000000  0.4815240000000  0.5154130000000 1.0
C      1  0.3899670000000  0.5173130000000  0.4766160000000 1.0
C      1  0.4915040000000  0.5563010000000  0.4064930000000 1.0
C      1  0.4415520000000  0.4655150000000  0.5687500000000 1.0
C      1  0.5086500000000  0.4207860000000  0.5458310000000 1.0
C      1  0.5659520000000  0.4759620000000  0.5552920000000 1.0
C      1  0.4669940000000  0.5072800000000  0.4581090000000 1.0
C      1  0.4816770000000  0.4990340000000  0.5713340000000 1.0
C      1  0.4650940000000  0.5158650000000  0.4191150000000 1.0
C      1  0.5451910000000  0.6088600000000  0.4840060000000 1.0
C      1  0.4346060000000  0.4912610000000  0.5476310000000 1.0
C      1  0.4771410000000  0.4145840000000  0.5834670000000 1.0
C      1  0.5351940000000  0.4359490000000  0.5045040000000 1.0
C      1  0.4175740000000  0.5633440000000  0.4975420000000 1.0
C      1  0.5202890000000  0.4660810000000  0.5117390000000 1.0
C      1  0.4120740000000  0.4264440000000  0.4686660000000 1.0
C      1  0.5362770000000  0.4630830000000  0.6091000000000 1.0
C      1  0.5240420000000  0.6088940000000  0.5079900000000 1.0
C      1  0.4607450000000  0.4334070000000  0.4499800000000 1.0
C      1  0.5102780000000  0.5387930000000  0.3943960000000 1.0
C      1  0.5851280000000  0.4345890000000  0.5408350000000 1.0
C      1  0.5660450000000  0.4453320000000  0.5664620000000 1.0
C      1  0.6064070000000  0.4790520000000  0.4816270000000 1.0
C      1  0.5274910000000  0.5506750000000  0.5642880000000 1.0
C      1  0.6157060000000  0.5382880000000  0.4895130000000 1.0
C      1  0.5381380000000  0.4849940000000  0.3868660000000 1.0
C      1  0.4397080000000  0.4453140000000  0.4747150000000 1.0
C      1  0.4808650000000  0.4193330000000  0.4268980000000 1.0
C      1  0.4896170000000  0.5918720000000  0.4562920000000 1.0
C      1  0.4598270000000  0.5603080000000  0.5122060000000 1.0
C      1  0.4394260000000  0.4625430000000  0.4136250000000 1.0
C      1  0.5636160000000  0.5787110000000  0.5338010000000 1.0
C      1  0.5190790000000  0.5081220000000  0.4295580000000 1.0
C      1  0.4469600000000  0.3865010000000  0.5247490000000 1.0
C      1  0.3820280000000  0.4814300000000  0.5218390000000 1.0
C      1  0.5203330000000  0.6045060000000  0.5418500000000 1.0
C      1  0.4834100000000  0.5271540000000  0.5333110000000 1.0
C      1  0.4102290000000  0.5435440000000  0.5453290000000 1.0
C      1  0.5837630000000  0.4979190000000  0.5515120000000 1.0
C      1  0.5842010000000  0.4463730000000  0.4869530000000 1.0
C      1  0.4803950000000  0.5585290000000  0.5461050000000 1.0
C      1  0.4995700000000  0.5040360000000  0.4571180000000 1.0
C      1  0.5773340000000  0.5244630000000  0.4798130000000 1.0
C      1  0.5351290000000  0.4335240000000  0.4705840000000 1.0
C      1  0.5187200000000  0.4099200000000  0.4578830000000 1.0
C      1  0.4594540000000  0.4169260000000  0.5613570000000 1.0
C      1  0.5140120000000  0.5384030000000  0.5114670000000 1.0
C      1  0.5069830000000  0.5594480000000  0.4783070000000 1.0
C      1  0.5574280000000  0.5368370000000  0.5004230000000 1.0
C      1  0.5164720000000  0.4891080000000  0.5364670000000 1.0
END
