TITL C-2847958-8115-110 0.000341724022449059 125000 -372.39039420478 0 0 70 (C1) n - 1
REM
REM in /home/bkarasulu/work/CARBON/AIRSS/Generating-Clusters/AIREBO/with-SteepDescent/Only-C1/SD-CG-opt/Try1-1.4A-POS3A/HFTN-CG
REM
REM
REM
REM
REM
REM ./C.cell (11c1c37f851c82e70ff6c80c92926a4b)
REM
REM compiler GCC version 9.2.1 20190827 (Red Hat 9.2.1-1)
REM options -cpp -mtune=generic -march=x86-64 -g -O0 -fpre-include=/usr/include/finclude/math-vector-fortran.h
REM seed 1082638975 985255303 12656021 2026077902 -114299872 -2066516705 -2146640761 2101508162 1765084831 -290630743 273543536 829451884 1296368915 780984248 -1107039289 1172286070 745049378 59877625 511516006 475131207 -133643365 -682904921 -1011518930 14009269 1541693870 295989899 502218056 -455842764 -1130611329 398926973 -2098834368 -253698827 309172520
REM
CELL 1.54180   50.00000   50.00000   50.00000   90.00000   90.00000   90.00000
LATT -1
SFAC C  
C      1  0.5644230000000  0.4625810000000  0.5087790000000 1.0
C      1  0.5194170000000  0.4717550000000  0.4939440000000 1.0
C      1  0.5160110000000  0.5113000000000  0.5212650000000 1.0
C      1  0.5619790000000  0.5095650000000  0.4847770000000 1.0
C      1  0.4476110000000  0.4771620000000  0.4453720000000 1.0
C      1  0.4712890000000  0.4512730000000  0.4852470000000 1.0
C      1  0.4683780000000  0.4832730000000  0.4817630000000 1.0
C      1  0.4889720000000  0.4951940000000  0.5195150000000 1.0
C      1  0.4457700000000  0.4692400000000  0.5312620000000 1.0
C      1  0.4993440000000  0.4734260000000  0.4717100000000 1.0
C      1  0.5561410000000  0.5479280000000  0.4753130000000 1.0
C      1  0.5714870000000  0.4895780000000  0.5106040000000 1.0
C      1  0.4244830000000  0.5064860000000  0.5014610000000 1.0
C      1  0.5450460000000  0.5662360000000  0.5017390000000 1.0
C      1  0.5714290000000  0.5368990000000  0.5030380000000 1.0
C      1  0.4842110000000  0.4417820000000  0.5126110000000 1.0
C      1  0.5052290000000  0.4713440000000  0.3907680000000 1.0
C      1  0.5127020000000  0.5403940000000  0.5208150000000 1.0
C      1  0.5391710000000  0.5222330000000  0.4629550000000 1.0
C      1  0.4658390000000  0.5311420000000  0.4294480000000 1.0
C      1  0.4542330000000  0.4495430000000  0.4565010000000 1.0
C      1  0.4517960000000  0.5065260000000  0.5887550000000 1.0
C      1  0.5321950000000  0.4998920000000  0.4980300000000 1.0
C      1  0.4980860000000  0.5204160000000  0.5725820000000 1.0
C      1  0.4270290000000  0.5340770000000  0.5007210000000 1.0
C      1  0.4756010000000  0.5632070000000  0.5644280000000 1.0
C      1  0.5202670000000  0.4835970000000  0.5414640000000 1.0
C      1  0.4958450000000  0.5054980000000  0.4349860000000 1.0
C      1  0.5062830000000  0.5566560000000  0.5002870000000 1.0
C      1  0.5459900000000  0.4577900000000  0.4879730000000 1.0
C      1  0.4275400000000  0.4946170000000  0.5263600000000 1.0
C      1  0.4356950000000  0.4921130000000  0.4804220000000 1.0
C      1  0.4399950000000  0.4407770000000  0.4864570000000 1.0
C      1  0.4930380000000  0.4170110000000  0.4937400000000 1.0
C      1  0.4628940000000  0.5148260000000  0.5110190000000 1.0
C      1  0.5009190000000  0.4866780000000  0.5688340000000 1.0
C      1  0.4511790000000  0.4428490000000  0.5186560000000 1.0
C      1  0.4422920000000  0.4210550000000  0.5343410000000 1.0
C      1  0.5187990000000  0.5550300000000  0.5457030000000 1.0
C      1  0.4486970000000  0.5553370000000  0.4904170000000 1.0
C      1  0.5538660000000  0.4640910000000  0.4624660000000 1.0
C      1  0.5414900000000  0.4902320000000  0.4516690000000 1.0
C      1  0.5388880000000  0.5696150000000  0.5282670000000 1.0
C      1  0.5773290000000  0.5310080000000  0.5285950000000 1.0
C      1  0.4504820000000  0.5446810000000  0.5217690000000 1.0
C      1  0.5900360000000  0.5213230000000  0.4695500000000 1.0
C      1  0.4214620000000  0.4852810000000  0.4549770000000 1.0
C      1  0.5127700000000  0.4812380000000  0.4463040000000 1.0
C      1  0.5603100000000  0.4488830000000  0.5330600000000 1.0
C      1  0.4676120000000  0.5084350000000  0.5678000000000 1.0
C      1  0.4658750000000  0.5016210000000  0.4463200000000 1.0
C      1  0.4684590000000  0.5152460000000  0.4773650000000 1.0
C      1  0.4548920000000  0.5588670000000  0.5475270000000 1.0
C      1  0.5285550000000  0.5055070000000  0.5737900000000 1.0
C      1  0.4873640000000  0.4647400000000  0.5833710000000 1.0
C      1  0.5113420000000  0.5301210000000  0.4493850000000 1.0
C      1  0.5022850000000  0.4645280000000  0.5198020000000 1.0
C      1  0.4723010000000  0.4244730000000  0.4480600000000 1.0
C      1  0.4702990000000  0.5468440000000  0.4754070000000 1.0
C      1  0.5697510000000  0.5043950000000  0.5353110000000 1.0
C      1  0.4844300000000  0.5437420000000  0.4493360000000 1.0
C      1  0.4576960000000  0.4996310000000  0.5410020000000 1.0
C      1  0.5484280000000  0.4999880000000  0.5520200000000 1.0
C      1  0.5775500000000  0.4955800000000  0.4577520000000 1.0
C      1  0.5048080000000  0.4816200000000  0.4138410000000 1.0
C      1  0.4944550000000  0.5786510000000  0.4738840000000 1.0
C      1  0.5702830000000  0.5624250000000  0.4560210000000 1.0
C      1  0.5396930000000  0.4568070000000  0.5492840000000 1.0
C      1  0.4998160000000  0.5492150000000  0.5653620000000 1.0
C      1  0.4901660000000  0.4149280000000  0.4666430000000 1.0
END
