TITL C-2847952-8118-622 0.00029089060190275 125000 -764.180752722637 0 0 144 (C1) n - 1
REM
REM in /home/bkarasulu/work/CARBON/AIRSS/Generating-Clusters/AIREBO/with-SteepDescent/Only-C1/SD-CG-opt/Try1-1.4A-POS3A/HFTN-CG
REM
REM
REM
REM
REM
REM ./C.cell (11c1c37f851c82e70ff6c80c92926a4b)
REM
REM compiler GCC version 9.2.1 20190827 (Red Hat 9.2.1-1)
REM options -cpp -mtune=generic -march=x86-64 -g -O0 -fpre-include=/usr/include/finclude/math-vector-fortran.h
REM seed -1467944002 1574015016 -140593020 -1815152124 1880082191 -30886768 -177371890 -471656526 637110259 908281968 -1868191545 -77424923 236052089 -1462716703 327888893 250130883 -1436674587 321893467 936415386 -334551111 77001417 715642427 -676253383 -131309822 -1970594390 -1962173364 -1663365403 -1327765875 1804421207 -73893554 -787781515 966977692 -834512489
REM
CELL 1.54180   50.00000   50.00000   50.00000   90.00000   90.00000   90.00000
LATT -1
SFAC C  
C      1  0.5428230000000  0.4318580000000  0.5327450000000 1.0
C      1  0.4487600000000  0.5810610000000  0.4778800000000 1.0
C      1  0.4652780000000  0.5707700000000  0.5676640000000 1.0
C      1  0.4035970000000  0.5296190000000  0.5341780000000 1.0
C      1  0.4051780000000  0.5403460000000  0.4863900000000 1.0
C      1  0.4781520000000  0.5801850000000  0.4651210000000 1.0
C      1  0.5543940000000  0.5159550000000  0.5384820000000 1.0
C      1  0.4867130000000  0.5249180000000  0.5711570000000 1.0
C      1  0.4800700000000  0.4864120000000  0.5917370000000 1.0
C      1  0.5088680000000  0.5042620000000  0.3932320000000 1.0
C      1  0.3994520000000  0.4701080000000  0.5302410000000 1.0
C      1  0.6040230000000  0.5004260000000  0.5314300000000 1.0
C      1  0.5352980000000  0.4136480000000  0.4460490000000 1.0
C      1  0.4477950000000  0.5484910000000  0.4322230000000 1.0
C      1  0.4804370000000  0.5150930000000  0.4598940000000 1.0
C      1  0.4503040000000  0.4968110000000  0.4918920000000 1.0
C      1  0.4591730000000  0.4540860000000  0.4677390000000 1.0
C      1  0.4290490000000  0.4461480000000  0.4543000000000 1.0
C      1  0.4216910000000  0.4597600000000  0.4311380000000 1.0
C      1  0.4590210000000  0.4605150000000  0.5848400000000 1.0
C      1  0.4549590000000  0.5231170000000  0.5214770000000 1.0
C      1  0.5156040000000  0.5313580000000  0.4386180000000 1.0
C      1  0.4132160000000  0.5000230000000  0.5302830000000 1.0
C      1  0.5000260000000  0.4267840000000  0.4183190000000 1.0
C      1  0.4654180000000  0.5519130000000  0.4562600000000 1.0
C      1  0.5065460000000  0.4442580000000  0.5428730000000 1.0
C      1  0.5079310000000  0.4408690000000  0.4783950000000 1.0
C      1  0.5204520000000  0.5104810000000  0.4650930000000 1.0
C      1  0.4849600000000  0.5826000000000  0.5169500000000 1.0
C      1  0.5557270000000  0.4864220000000  0.5309560000000 1.0
C      1  0.5033680000000  0.5791600000000  0.5596400000000 1.0
C      1  0.5388660000000  0.4856320000000  0.5886970000000 1.0
C      1  0.4874510000000  0.5435480000000  0.4330720000000 1.0
C      1  0.5133270000000  0.5033610000000  0.5749260000000 1.0
C      1  0.5709200000000  0.5732440000000  0.4882690000000 1.0
C      1  0.5692890000000  0.4631780000000  0.5008090000000 1.0
C      1  0.5289490000000  0.4118320000000  0.4959440000000 1.0
C      1  0.5085970000000  0.5386210000000  0.5932080000000 1.0
C      1  0.5243690000000  0.4763470000000  0.5279370000000 1.0
C      1  0.4988330000000  0.5083680000000  0.6052810000000 1.0
C      1  0.5056080000000  0.5700290000000  0.4694520000000 1.0
C      1  0.5566600000000  0.4591800000000  0.5484840000000 1.0
C      1  0.5677060000000  0.5211350000000  0.4244660000000 1.0
C      1  0.4546520000000  0.5279960000000  0.4779300000000 1.0
C      1  0.4364940000000  0.5343130000000  0.5724430000000 1.0
C      1  0.4379240000000  0.4629940000000  0.5672660000000 1.0
C      1  0.5797500000000  0.4946540000000  0.5083300000000 1.0
C      1  0.4760370000000  0.4173910000000  0.5293570000000 1.0
C      1  0.4294860000000  0.4917340000000  0.5570430000000 1.0
C      1  0.4757360000000  0.4571490000000  0.5462810000000 1.0
C      1  0.4777500000000  0.5048690000000  0.4182330000000 1.0
C      1  0.4275340000000  0.4191090000000  0.5022700000000 1.0
C      1  0.5516730000000  0.5014620000000  0.4903750000000 1.0
C      1  0.5863320000000  0.5249980000000  0.4944340000000 1.0
C      1  0.4565930000000  0.5193920000000  0.5823660000000 1.0
C      1  0.4474030000000  0.5183610000000  0.4256080000000 1.0
C      1  0.5457020000000  0.4622620000000  0.5767890000000 1.0
C      1  0.5015390000000  0.5367860000000  0.4754400000000 1.0
C      1  0.4926540000000  0.4563320000000  0.5821010000000 1.0
C      1  0.5829800000000  0.4209740000000  0.4750520000000 1.0
C      1  0.5785760000000  0.5254210000000  0.4659950000000 1.0
C      1  0.4718280000000  0.6258190000000  0.4949850000000 1.0
C      1  0.4973900000000  0.4066780000000  0.5525970000000 1.0
C      1  0.4496410000000  0.4107580000000  0.4883890000000 1.0
C      1  0.5057120000000  0.4232640000000  0.4516950000000 1.0
C      1  0.4984450000000  0.4098270000000  0.4885240000000 1.0
C      1  0.4382150000000  0.4611290000000  0.5333160000000 1.0
C      1  0.4729070000000  0.5982870000000  0.4930700000000 1.0
C      1  0.4814570000000  0.4962930000000  0.3851040000000 1.0
C      1  0.5553590000000  0.4643850000000  0.4516040000000 1.0
C      1  0.4732800000000  0.4854170000000  0.4449210000000 1.0
C      1  0.5058480000000  0.5186700000000  0.5289440000000 1.0
C      1  0.4841450000000  0.4437160000000  0.5098930000000 1.0
C      1  0.5642430000000  0.5458310000000  0.4348440000000 1.0
C      1  0.5807630000000  0.5496600000000  0.5071280000000 1.0
C      1  0.5594560000000  0.5512790000000  0.4674890000000 1.0
C      1  0.4515570000000  0.4222430000000  0.4606520000000 1.0
C      1  0.5724460000000  0.4443160000000  0.5245130000000 1.0
C      1  0.5206670000000  0.4474290000000  0.4236020000000 1.0
C      1  0.5365150000000  0.5544830000000  0.4349650000000 1.0
C      1  0.5419910000000  0.5023550000000  0.4315870000000 1.0
C      1  0.4229890000000  0.5173230000000  0.4715990000000 1.0
C      1  0.5288710000000  0.4776190000000  0.4683410000000 1.0
C      1  0.5514190000000  0.5904330000000  0.4663330000000 1.0
C      1  0.5292540000000  0.5237430000000  0.4084170000000 1.0
C      1  0.5464880000000  0.5882300000000  0.5052130000000 1.0
C      1  0.5015070000000  0.5494090000000  0.5432310000000 1.0
C      1  0.4740600000000  0.4061950000000  0.5007530000000 1.0
C      1  0.4902520000000  0.4678720000000  0.4685930000000 1.0
C      1  0.5298100000000  0.5496990000000  0.5613130000000 1.0
C      1  0.5477900000000  0.4516040000000  0.4226530000000 1.0
C      1  0.5393810000000  0.5342360000000  0.5138710000000 1.0
C      1  0.6027970000000  0.5161600000000  0.5510230000000 1.0
C      1  0.4749470000000  0.4297580000000  0.4403000000000 1.0
C      1  0.4105980000000  0.4854660000000  0.4338220000000 1.0
C      1  0.4897610000000  0.5631240000000  0.5824260000000 1.0
C      1  0.4319750000000  0.5320920000000  0.5448790000000 1.0
C      1  0.4629960000000  0.5681630000000  0.5345730000000 1.0
C      1  0.5096190000000  0.4742250000000  0.5586450000000 1.0
C      1  0.4529190000000  0.4893380000000  0.5248400000000 1.0
C      1  0.5200470000000  0.5104440000000  0.4991290000000 1.0
C      1  0.4916890000000  0.4746360000000  0.5218590000000 1.0
C      1  0.4622010000000  0.4653010000000  0.4966300000000 1.0
C      1  0.5280750000000  0.4402530000000  0.5688850000000 1.0
C      1  0.5307050000000  0.5754780000000  0.4507310000000 1.0
C      1  0.4067480000000  0.4688170000000  0.4910950000000 1.0
C      1  0.5340150000000  0.5436330000000  0.4828830000000 1.0
C      1  0.5676710000000  0.5383620000000  0.5857040000000 1.0
C      1  0.4714960000000  0.5380800000000  0.5449770000000 1.0
C      1  0.5578320000000  0.4339280000000  0.4569470000000 1.0
C      1  0.5382010000000  0.5609260000000  0.5325340000000 1.0
C      1  0.5231990000000  0.5943790000000  0.4845600000000 1.0
C      1  0.5271610000000  0.5201180000000  0.5515170000000 1.0
C      1  0.4780670000000  0.4302640000000  0.5669800000000 1.0
C      1  0.4368760000000  0.5616130000000  0.5184630000000 1.0
C      1  0.5622810000000  0.4969870000000  0.4583660000000 1.0
C      1  0.4423440000000  0.5570980000000  0.4905070000000 1.0
C      1  0.5179720000000  0.4402490000000  0.5110660000000 1.0
C      1  0.4106970000000  0.5484970000000  0.5133620000000 1.0
C      1  0.5177570000000  0.5846270000000  0.5228430000000 1.0
C      1  0.4717660000000  0.5352000000000  0.4040730000000 1.0
C      1  0.4805500000000  0.5218570000000  0.4990930000000 1.0
C      1  0.5102450000000  0.4693430000000  0.4411260000000 1.0
C      1  0.4929310000000  0.4906230000000  0.4937820000000 1.0
C      1  0.4862300000000  0.5636180000000  0.4066900000000 1.0
C      1  0.4819680000000  0.4999720000000  0.5389590000000 1.0
C      1  0.4518260000000  0.4330080000000  0.5450360000000 1.0
C      1  0.5260530000000  0.4116870000000  0.5543970000000 1.0
C      1  0.4177820000000  0.4952190000000  0.4969220000000 1.0
C      1  0.5916450000000  0.4798450000000  0.4582240000000 1.0
C      1  0.4252560000000  0.5065720000000  0.4421660000000 1.0
C      1  0.4163290000000  0.4460110000000  0.5132400000000 1.0
C      1  0.5878580000000  0.4517700000000  0.4769420000000 1.0
C      1  0.5411450000000  0.5465430000000  0.5896020000000 1.0
C      1  0.5765890000000  0.5313230000000  0.5558510000000 1.0
C      1  0.4628280000000  0.4939910000000  0.5634270000000 1.0
C      1  0.5094070000000  0.4944270000000  0.4249840000000 1.0
C      1  0.5519340000000  0.4131170000000  0.4823960000000 1.0
C      1  0.4674930000000  0.4581910000000  0.4277500000000 1.0
C      1  0.5374890000000  0.4651270000000  0.4985110000000 1.0
C      1  0.6033930000000  0.4797340000000  0.4884730000000 1.0
C      1  0.5695610000000  0.5524020000000  0.5327740000000 1.0
C      1  0.4439640000000  0.4583330000000  0.4135430000000 1.0
C      1  0.5137570000000  0.6037370000000  0.5492960000000 1.0
END
