TITL C-2847944-5688-30 0.00991639265350299 125000 -679.386971612075 0 0 123 (C1) n - 1
REM
REM in /home/bkarasulu/work/CARBON/AIRSS/Generating-Clusters/AIREBO/with-SteepDescent/Only-C1/SD-CG-opt/Try1-1.4A-POS3A/HFTN-CG
REM
REM
REM
REM
REM
REM ./C.cell (11c1c37f851c82e70ff6c80c92926a4b)
REM
REM compiler GCC version 9.2.1 20190827 (Red Hat 9.2.1-1)
REM options -cpp -mtune=generic -march=x86-64 -g -O0 -fpre-include=/usr/include/finclude/math-vector-fortran.h
REM seed -1001254603 -305725122 -1073092497 343116968 1772186274 541808716 324848833 1774938108 -202324400 891191311 1622385325 151027207 -1322492466 -544996853 805241815 -91677690 -60161695 -1210142087 455942131 -580091450 227595708 31915007 -1386823866 -367734884 1743253811 -1109490056 744154861 1559546951 953801379 1477727386 -638575051 626336355 -127619246
REM
CELL 1.54180   50.00000   50.00000   50.00000   90.00000   90.00000   90.00000
LATT -1
SFAC C  
C      1  0.4291960000000  0.5738950000000  0.5039390000000 1.0
C      1  0.5600520000000  0.5592970000000  0.4929100000000 1.0
C      1  0.5116290000000  0.5228650000000  0.4463490000000 1.0
C      1  0.4310790000000  0.5307490000000  0.5393650000000 1.0
C      1  0.5212620000000  0.3844870000000  0.4698520000000 1.0
C      1  0.5677950000000  0.4772880000000  0.4568630000000 1.0
C      1  0.5050860000000  0.4362050000000  0.4985540000000 1.0
C      1  0.5490470000000  0.5503060000000  0.5210870000000 1.0
C      1  0.4312290000000  0.4946690000000  0.4546700000000 1.0
C      1  0.5942570000000  0.5204060000000  0.5548720000000 1.0
C      1  0.5069430000000  0.5543740000000  0.4095210000000 1.0
C      1  0.4344360000000  0.4689720000000  0.4376640000000 1.0
C      1  0.4905350000000  0.5080560000000  0.4241640000000 1.0
C      1  0.5366190000000  0.4329950000000  0.4744730000000 1.0
C      1  0.4254010000000  0.4630380000000  0.4812890000000 1.0
C      1  0.4779560000000  0.4801160000000  0.5925950000000 1.0
C      1  0.4733850000000  0.4643180000000  0.5361600000000 1.0
C      1  0.4082810000000  0.4964820000000  0.5106430000000 1.0
C      1  0.4908160000000  0.5118240000000  0.5915580000000 1.0
C      1  0.5243880000000  0.4922470000000  0.4388550000000 1.0
C      1  0.4078200000000  0.5187820000000  0.5325190000000 1.0
C      1  0.4637160000000  0.5730990000000  0.5556970000000 1.0
C      1  0.5282840000000  0.4151690000000  0.5318100000000 1.0
C      1  0.5062380000000  0.4793100000000  0.5748390000000 1.0
C      1  0.4831970000000  0.5470270000000  0.4241560000000 1.0
C      1  0.5189680000000  0.5224140000000  0.5819800000000 1.0
C      1  0.4984410000000  0.5160520000000  0.4953740000000 1.0
C      1  0.5324750000000  0.5770270000000  0.4548500000000 1.0
C      1  0.5727510000000  0.4836240000000  0.5121860000000 1.0
C      1  0.5264330000000  0.5286890000000  0.3975780000000 1.0
C      1  0.4934440000000  0.5774930000000  0.4691140000000 1.0
C      1  0.5111630000000  0.5819330000000  0.5521180000000 1.0
C      1  0.4410270000000  0.4952230000000  0.5015170000000 1.0
C      1  0.5779870000000  0.5360530000000  0.4518830000000 1.0
C      1  0.5047000000000  0.5977220000000  0.4942260000000 1.0
C      1  0.5530450000000  0.4825270000000  0.4862000000000 1.0
C      1  0.4974500000000  0.4520700000000  0.5930300000000 1.0
C      1  0.5665020000000  0.4395320000000  0.5458760000000 1.0
C      1  0.5023920000000  0.5076890000000  0.3979160000000 1.0
C      1  0.5534730000000  0.5793000000000  0.4761230000000 1.0
C      1  0.5897440000000  0.5136660000000  0.4923110000000 1.0
C      1  0.5854780000000  0.4551850000000  0.5126690000000 1.0
C      1  0.5180250000000  0.5548700000000  0.5716570000000 1.0
C      1  0.5096740000000  0.4794730000000  0.5291270000000 1.0
C      1  0.5213440000000  0.4428510000000  0.5704470000000 1.0
C      1  0.5343730000000  0.4997660000000  0.5172670000000 1.0
C      1  0.5169920000000  0.4145560000000  0.4305860000000 1.0
C      1  0.5393010000000  0.5003130000000  0.4113590000000 1.0
C      1  0.4930890000000  0.5025740000000  0.5589120000000 1.0
C      1  0.4976200000000  0.5109660000000  0.5280920000000 1.0
C      1  0.4783400000000  0.4504080000000  0.4896350000000 1.0
C      1  0.5364540000000  0.5361060000000  0.4284680000000 1.0
C      1  0.4821420000000  0.4184240000000  0.4659770000000 1.0
C      1  0.4960820000000  0.4459490000000  0.4613500000000 1.0
C      1  0.5242460000000  0.5295500000000  0.5236350000000 1.0
C      1  0.4437860000000  0.5323480000000  0.4505500000000 1.0
C      1  0.5272030000000  0.4610070000000  0.4913170000000 1.0
C      1  0.5858300000000  0.5131760000000  0.5229650000000 1.0
C      1  0.4653860000000  0.4944380000000  0.5459940000000 1.0
C      1  0.4894870000000  0.5469800000000  0.4555800000000 1.0
C      1  0.4490930000000  0.4785010000000  0.5792110000000 1.0
C      1  0.4692150000000  0.4767090000000  0.5064370000000 1.0
C      1  0.5629530000000  0.5112550000000  0.5620590000000 1.0
C      1  0.5013790000000  0.4225200000000  0.5356010000000 1.0
C      1  0.4425310000000  0.5775060000000  0.5339680000000 1.0
C      1  0.4829730000000  0.4828970000000  0.4674680000000 1.0
C      1  0.4848800000000  0.5589710000000  0.5784460000000 1.0
C      1  0.5231720000000  0.5654300000000  0.5078870000000 1.0
C      1  0.4472870000000  0.5412750000000  0.5179450000000 1.0
C      1  0.5290930000000  0.5671890000000  0.4296110000000 1.0
C      1  0.5480840000000  0.4656020000000  0.5514550000000 1.0
C      1  0.4601710000000  0.5218200000000  0.4246220000000 1.0
C      1  0.5151300000000  0.4110480000000  0.4619320000000 1.0
C      1  0.4390650000000  0.4652570000000  0.5562680000000 1.0
C      1  0.4478940000000  0.5239930000000  0.4930410000000 1.0
C      1  0.4353940000000  0.4409450000000  0.4569210000000 1.0
C      1  0.4467990000000  0.4452260000000  0.5295930000000 1.0
C      1  0.4568550000000  0.5234680000000  0.5544410000000 1.0
C      1  0.4521960000000  0.5088970000000  0.5823740000000 1.0
C      1  0.5011610000000  0.4823680000000  0.4962040000000 1.0
C      1  0.4634160000000  0.5816130000000  0.4711180000000 1.0
C      1  0.5150740000000  0.4352420000000  0.4166120000000 1.0
C      1  0.4217460000000  0.4517640000000  0.5099100000000 1.0
C      1  0.4457970000000  0.5630130000000  0.4598050000000 1.0
C      1  0.5563250000000  0.4915570000000  0.5388030000000 1.0
C      1  0.5635680000000  0.4941800000000  0.4317150000000 1.0
C      1  0.5192650000000  0.5589180000000  0.4794480000000 1.0
C      1  0.5449620000000  0.5136890000000  0.4880140000000 1.0
C      1  0.5204090000000  0.5278260000000  0.4773290000000 1.0
C      1  0.4566030000000  0.5866160000000  0.4976760000000 1.0
C      1  0.5441780000000  0.4243400000000  0.5046300000000 1.0
C      1  0.5366420000000  0.4715940000000  0.5802560000000 1.0
C      1  0.5695690000000  0.5331830000000  0.4810510000000 1.0
C      1  0.5727410000000  0.5408610000000  0.5377700000000 1.0
C      1  0.4758330000000  0.5276480000000  0.4770580000000 1.0
C      1  0.4013610000000  0.4677160000000  0.5217610000000 1.0
C      1  0.4863800000000  0.4800410000000  0.4363870000000 1.0
C      1  0.4393330000000  0.4842760000000  0.5316430000000 1.0
C      1  0.5415640000000  0.4252830000000  0.5545350000000 1.0
C      1  0.4977580000000  0.5508370000000  0.5252830000000 1.0
C      1  0.4560380000000  0.4640990000000  0.4708390000000 1.0
C      1  0.4565280000000  0.4876760000000  0.4246150000000 1.0
C      1  0.4998350000000  0.4523860000000  0.5459930000000 1.0
C      1  0.4697850000000  0.5347740000000  0.5957000000000 1.0
C      1  0.5374010000000  0.5041310000000  0.5780790000000 1.0
C      1  0.5090530000000  0.4610050000000  0.4268700000000 1.0
C      1  0.5627100000000  0.5237590000000  0.4337620000000 1.0
C      1  0.4687770000000  0.5635970000000  0.5172760000000 1.0
C      1  0.5206310000000  0.4664230000000  0.4583790000000 1.0
C      1  0.4544410000000  0.4226510000000  0.5052630000000 1.0
C      1  0.4265820000000  0.5475370000000  0.4832020000000 1.0
C      1  0.5101280000000  0.5887830000000  0.5252330000000 1.0
C      1  0.4085130000000  0.4924400000000  0.4786590000000 1.0
C      1  0.5446720000000  0.4540150000000  0.5200020000000 1.0
C      1  0.4824280000000  0.4185580000000  0.5134550000000 1.0
C      1  0.5590310000000  0.4454470000000  0.4588460000000 1.0
C      1  0.5760060000000  0.4324650000000  0.5077630000000 1.0
C      1  0.4552750000000  0.4210040000000  0.4758840000000 1.0
C      1  0.5466850000000  0.5410260000000  0.5596930000000 1.0
C      1  0.4604970000000  0.5045190000000  0.4606730000000 1.0
C      1  0.4139520000000  0.5225700000000  0.4638720000000 1.0
C      1  0.4785410000000  0.5437270000000  0.5504020000000 1.0
C      1  0.5911530000000  0.4904060000000  0.4769810000000 1.0
END
