TITL C-2847955-7945-524 0.00335522465270557 125000 -151.912423876641 0 0 31 (C1) n - 1
REM
REM in /home/bkarasulu/work/CARBON/AIRSS/Generating-Clusters/AIREBO/with-SteepDescent/Only-C1/SD-CG-opt/Try1-1.4A-POS3A/HFTN-CG
REM
REM
REM
REM
REM
REM ./C.cell (11c1c37f851c82e70ff6c80c92926a4b)
REM
REM compiler GCC version 9.2.1 20190827 (Red Hat 9.2.1-1)
REM options -cpp -mtune=generic -march=x86-64 -g -O0 -fpre-include=/usr/include/finclude/math-vector-fortran.h
REM seed -589699376 772243291 1547719671 -1989033392 -414712883 -787204125 -1109854046 -630192577 -1808327126 1070763305 1481172059 -1215769917 1362775369 -570552921 -513144990 381226173 -1187398061 1533767430 1142661683 -311373531 2116142652 -382067613 366078852 -603960256 -1188582017 -1766135573 -775974772 777088765 -648818123 614400449 1302024748 1179544147 -310858345
REM
CELL 1.54180   50.00000   50.00000   50.00000   90.00000   90.00000   90.00000
LATT -1
SFAC C  
C      1  0.5182130000000  0.4910820000000  0.5229230000000 1.0
C      1  0.5396510000000  0.5188540000000  0.4300260000000 1.0
C      1  0.4851030000000  0.4855850000000  0.4545660000000 1.0
C      1  0.5285440000000  0.4825960000000  0.4954350000000 1.0
C      1  0.5333190000000  0.5774620000000  0.5282090000000 1.0
C      1  0.5257760000000  0.5343990000000  0.4990460000000 1.0
C      1  0.4761140000000  0.4935590000000  0.5634310000000 1.0
C      1  0.4404240000000  0.5533360000000  0.5142800000000 1.0
C      1  0.5189950000000  0.5101070000000  0.4813880000000 1.0
C      1  0.5235270000000  0.4776690000000  0.5535950000000 1.0
C      1  0.5415320000000  0.5047620000000  0.5435410000000 1.0
C      1  0.5115240000000  0.4557280000000  0.4840270000000 1.0
C      1  0.5015230000000  0.4199220000000  0.5167740000000 1.0
C      1  0.5004290000000  0.4852050000000  0.5728720000000 1.0
C      1  0.4679620000000  0.5267880000000  0.4792930000000 1.0
C      1  0.4537760000000  0.5729560000000  0.4992230000000 1.0
C      1  0.4928300000000  0.4400480000000  0.5008870000000 1.0
C      1  0.4859700000000  0.5024650000000  0.4840750000000 1.0
C      1  0.5299990000000  0.5566340000000  0.5126490000000 1.0
C      1  0.5450220000000  0.4618030000000  0.4748860000000 1.0
C      1  0.4428830000000  0.5285760000000  0.5012040000000 1.0
C      1  0.4618400000000  0.4457480000000  0.4973540000000 1.0
C      1  0.5015910000000  0.4640550000000  0.4535400000000 1.0
C      1  0.4903480000000  0.5023450000000  0.5177930000000 1.0
C      1  0.4744040000000  0.4717490000000  0.4929660000000 1.0
C      1  0.4738770000000  0.5052010000000  0.5386540000000 1.0
C      1  0.5347800000000  0.4525570000000  0.5567120000000 1.0
C      1  0.5309340000000  0.4576710000000  0.4492830000000 1.0
C      1  0.5290180000000  0.5148050000000  0.4528760000000 1.0
C      1  0.4766250000000  0.5459760000000  0.4521980000000 1.0
C      1  0.4634660000000  0.5603580000000  0.4762980000000 1.0
END
