TITL C-2847956-8218-691 0.00031205805581679 125000 -861.096869890389 0 0 158 (C1) n - 1
REM
REM in /home/bkarasulu/work/CARBON/AIRSS/Generating-Clusters/AIREBO/with-SteepDescent/Only-C1/SD-CG-opt/Try1-1.4A-POS3A/HFTN-CG
REM
REM
REM
REM
REM
REM ./C.cell (11c1c37f851c82e70ff6c80c92926a4b)
REM
REM compiler GCC version 9.2.1 20190827 (Red Hat 9.2.1-1)
REM options -cpp -mtune=generic -march=x86-64 -g -O0 -fpre-include=/usr/include/finclude/math-vector-fortran.h
REM seed 1483221559 -2008374747 -1528324728 -1655863897 -1578513190 -1805403887 170355315 1226412763 647395010 38014534 -1802978057 1287682559 496073461 1465505322 96983105 -1804446270 1741170909 1052304235 1061465316 253419020 -731306010 -582818316 844925054 -870237890 259921520 -273343516 -1368909789 -239116801 -1505430776 1899101459 -133861048 -2143658953 155319636
REM
CELL 1.54180   50.00000   50.00000   50.00000   90.00000   90.00000   90.00000
LATT -1
SFAC C  
C      1  0.5402980000000  0.4408610000000  0.4732750000000 1.0
C      1  0.5410490000000  0.4065110000000  0.5438150000000 1.0
C      1  0.4913220000000  0.5791170000000  0.5103150000000 1.0
C      1  0.5762450000000  0.3982890000000  0.5106490000000 1.0
C      1  0.5318900000000  0.4733340000000  0.4693670000000 1.0
C      1  0.5144500000000  0.5301890000000  0.4749020000000 1.0
C      1  0.3948840000000  0.5378170000000  0.4809000000000 1.0
C      1  0.5326660000000  0.5464590000000  0.5233160000000 1.0
C      1  0.5229170000000  0.5645600000000  0.3986450000000 1.0
C      1  0.4314120000000  0.5010800000000  0.4253140000000 1.0
C      1  0.5739770000000  0.4699650000000  0.4491930000000 1.0
C      1  0.4881860000000  0.5682500000000  0.5776320000000 1.0
C      1  0.4333880000000  0.5768100000000  0.4746810000000 1.0
C      1  0.5565580000000  0.4259520000000  0.5609280000000 1.0
C      1  0.5000920000000  0.4580220000000  0.5975540000000 1.0
C      1  0.4667980000000  0.5555800000000  0.5092710000000 1.0
C      1  0.5298650000000  0.5732570000000  0.5025480000000 1.0
C      1  0.4755000000000  0.6001650000000  0.4923870000000 1.0
C      1  0.4921200000000  0.4692350000000  0.4194290000000 1.0
C      1  0.4827000000000  0.5426010000000  0.5475840000000 1.0
C      1  0.4373380000000  0.4374490000000  0.5494730000000 1.0
C      1  0.4730860000000  0.4972020000000  0.4927750000000 1.0
C      1  0.4313560000000  0.4694320000000  0.5225340000000 1.0
C      1  0.5727100000000  0.4506820000000  0.4695630000000 1.0
C      1  0.4484860000000  0.5253240000000  0.4130100000000 1.0
C      1  0.5066890000000  0.4508890000000  0.4987670000000 1.0
C      1  0.4549220000000  0.5476580000000  0.4333530000000 1.0
C      1  0.4910260000000  0.4888260000000  0.3916580000000 1.0
C      1  0.4931930000000  0.5123050000000  0.5236830000000 1.0
C      1  0.5150280000000  0.4856750000000  0.5980570000000 1.0
C      1  0.5018000000000  0.4474480000000  0.4655540000000 1.0
C      1  0.5759330000000  0.5404460000000  0.5590700000000 1.0
C      1  0.4246730000000  0.4270980000000  0.4992460000000 1.0
C      1  0.4499900000000  0.4642900000000  0.5876030000000 1.0
C      1  0.4658400000000  0.4474090000000  0.5433230000000 1.0
C      1  0.5867950000000  0.4264570000000  0.5218640000000 1.0
C      1  0.5027900000000  0.5594250000000  0.5331260000000 1.0
C      1  0.3805000000000  0.5207140000000  0.4979360000000 1.0
C      1  0.5943570000000  0.4874470000000  0.5472820000000 1.0
C      1  0.4258230000000  0.5356840000000  0.5212500000000 1.0
C      1  0.5515030000000  0.5794860000000  0.5353960000000 1.0
C      1  0.4215300000000  0.4397250000000  0.5239800000000 1.0
C      1  0.5331750000000  0.5131650000000  0.5302340000000 1.0
C      1  0.5728060000000  0.5109750000000  0.5038770000000 1.0
C      1  0.4657190000000  0.4089000000000  0.5174510000000 1.0
C      1  0.3938870000000  0.5004370000000  0.5119230000000 1.0
C      1  0.4343700000000  0.5927270000000  0.5038410000000 1.0
C      1  0.5052110000000  0.4906100000000  0.5668980000000 1.0
C      1  0.5407220000000  0.4107800000000  0.4317270000000 1.0
C      1  0.6088330000000  0.5251610000000  0.4968350000000 1.0
C      1  0.4596600000000  0.4624560000000  0.5068590000000 1.0
C      1  0.4684950000000  0.4894640000000  0.5255630000000 1.0
C      1  0.4824990000000  0.5287840000000  0.4958230000000 1.0
C      1  0.4019100000000  0.5271290000000  0.4570270000000 1.0
C      1  0.4630370000000  0.5176670000000  0.5718610000000 1.0
C      1  0.4885980000000  0.5353280000000  0.5862170000000 1.0
C      1  0.5108460000000  0.5444730000000  0.4228340000000 1.0
C      1  0.5530630000000  0.5160340000000  0.4632970000000 1.0
C      1  0.4382810000000  0.5478530000000  0.5801700000000 1.0
C      1  0.5285810000000  0.4527360000000  0.5201310000000 1.0
C      1  0.5540270000000  0.5872620000000  0.4741480000000 1.0
C      1  0.5495610000000  0.5431380000000  0.4430060000000 1.0
C      1  0.5531300000000  0.4730150000000  0.5151860000000 1.0
C      1  0.5387210000000  0.5907760000000  0.4501500000000 1.0
C      1  0.5786710000000  0.5434210000000  0.5301830000000 1.0
C      1  0.4940550000000  0.4296930000000  0.5365180000000 1.0
C      1  0.5513460000000  0.4734780000000  0.5714520000000 1.0
C      1  0.4206650000000  0.4459920000000  0.4711270000000 1.0
C      1  0.4441140000000  0.5118090000000  0.5031380000000 1.0
C      1  0.4498390000000  0.4753840000000  0.4258550000000 1.0
C      1  0.4797240000000  0.4378890000000  0.5078660000000 1.0
C      1  0.6049640000000  0.4426690000000  0.5038940000000 1.0
C      1  0.5525670000000  0.5365300000000  0.4975930000000 1.0
C      1  0.4928760000000  0.4281190000000  0.4317660000000 1.0
C      1  0.5528260000000  0.4289110000000  0.5212400000000 1.0
C      1  0.4272800000000  0.5090500000000  0.4541810000000 1.0
C      1  0.4604140000000  0.5573510000000  0.5687100000000 1.0
C      1  0.5297970000000  0.5683150000000  0.4379820000000 1.0
C      1  0.4840180000000  0.3990310000000  0.4296790000000 1.0
C      1  0.5012400000000  0.5872420000000  0.5526250000000 1.0
C      1  0.4900560000000  0.4971100000000  0.4388100000000 1.0
C      1  0.4170290000000  0.5540040000000  0.4939640000000 1.0
C      1  0.5458990000000  0.4755930000000  0.4399110000000 1.0
C      1  0.5086930000000  0.4423790000000  0.5712660000000 1.0
C      1  0.4438380000000  0.4057370000000  0.4987260000000 1.0
C      1  0.4126910000000  0.5252580000000  0.5490210000000 1.0
C      1  0.5425900000000  0.4861640000000  0.5983970000000 1.0
C      1  0.3967080000000  0.5012220000000  0.5397680000000 1.0
C      1  0.5296340000000  0.5984370000000  0.5376220000000 1.0
C      1  0.3925480000000  0.4772250000000  0.4582310000000 1.0
C      1  0.4530450000000  0.3995520000000  0.4704620000000 1.0
C      1  0.5436420000000  0.5051740000000  0.4328140000000 1.0
C      1  0.5195380000000  0.4657840000000  0.5485680000000 1.0
C      1  0.5147970000000  0.4455830000000  0.4124870000000 1.0
C      1  0.5934730000000  0.5176430000000  0.5568700000000 1.0
C      1  0.5459730000000  0.5543940000000  0.4718120000000 1.0
C      1  0.5948640000000  0.4601910000000  0.4861950000000 1.0
C      1  0.4691410000000  0.3998520000000  0.5440110000000 1.0
C      1  0.5130410000000  0.5621940000000  0.4751010000000 1.0
C      1  0.5191510000000  0.4932690000000  0.4026620000000 1.0
C      1  0.4816760000000  0.4721880000000  0.4603740000000 1.0
C      1  0.5171380000000  0.5422140000000  0.5689970000000 1.0
C      1  0.5295540000000  0.5665040000000  0.5870050000000 1.0
C      1  0.4491750000000  0.5075080000000  0.5424830000000 1.0
C      1  0.5011570000000  0.5163570000000  0.5537540000000 1.0
C      1  0.5807630000000  0.5355270000000  0.4664640000000 1.0
C      1  0.4528170000000  0.5288180000000  0.4596070000000 1.0
C      1  0.5315290000000  0.4703500000000  0.4131670000000 1.0
C      1  0.5972800000000  0.4940930000000  0.4873650000000 1.0
C      1  0.4292630000000  0.5165410000000  0.5756720000000 1.0
C      1  0.5153410000000  0.6010380000000  0.5112510000000 1.0
C      1  0.4684280000000  0.5004090000000  0.4120290000000 1.0
C      1  0.5472840000000  0.4954950000000  0.4900520000000 1.0
C      1  0.5915950000000  0.4906530000000  0.4560610000000 1.0
C      1  0.5228220000000  0.4297640000000  0.4478100000000 1.0
C      1  0.4782340000000  0.4789590000000  0.5839320000000 1.0
C      1  0.5708180000000  0.5169840000000  0.4219290000000 1.0
C      1  0.5463190000000  0.5515260000000  0.5540490000000 1.0
C      1  0.5883690000000  0.5159490000000  0.4445360000000 1.0
C      1  0.4550590000000  0.5376790000000  0.5343990000000 1.0
C      1  0.4206790000000  0.4903310000000  0.5008390000000 1.0
C      1  0.4329240000000  0.5683970000000  0.4436350000000 1.0
C      1  0.5502060000000  0.5602560000000  0.3944770000000 1.0
C      1  0.5789010000000  0.4392640000000  0.5492520000000 1.0
C      1  0.4657540000000  0.5865540000000  0.4707720000000 1.0
C      1  0.4824240000000  0.4210800000000  0.5673090000000 1.0
C      1  0.5405870000000  0.4439210000000  0.5742620000000 1.0
C      1  0.5219170000000  0.5896560000000  0.5795100000000 1.0
C      1  0.4290060000000  0.4826180000000  0.5801180000000 1.0
C      1  0.4533810000000  0.5842960000000  0.5215840000000 1.0
C      1  0.5393810000000  0.4933390000000  0.5465740000000 1.0
C      1  0.4680980000000  0.4481340000000  0.4234430000000 1.0
C      1  0.4534720000000  0.4354500000000  0.5788950000000 1.0
C      1  0.4509140000000  0.4318900000000  0.4694460000000 1.0
C      1  0.5986190000000  0.5093220000000  0.5241960000000 1.0
C      1  0.4732670000000  0.4729280000000  0.5508410000000 1.0
C      1  0.5340950000000  0.4215810000000  0.4956720000000 1.0
C      1  0.5152410000000  0.5154930000000  0.4252040000000 1.0
C      1  0.4252060000000  0.4874820000000  0.5485890000000 1.0
C      1  0.4773980000000  0.5075990000000  0.6009890000000 1.0
C      1  0.4707480000000  0.5959940000000  0.5401230000000 1.0
C      1  0.5638000000000  0.5751600000000  0.5037450000000 1.0
C      1  0.5843130000000  0.5487260000000  0.4976010000000 1.0
C      1  0.5710820000000  0.4694000000000  0.5440480000000 1.0
C      1  0.5169340000000  0.4133290000000  0.5241100000000 1.0
C      1  0.4877010000000  0.5730200000000  0.4583510000000 1.0
C      1  0.5549460000000  0.3964820000000  0.4972510000000 1.0
C      1  0.5639290000000  0.5443880000000  0.4130290000000 1.0
C      1  0.4823330000000  0.5605160000000  0.4314300000000 1.0
C      1  0.4237980000000  0.4798550000000  0.4712890000000 1.0
C      1  0.4956390000000  0.5758350000000  0.4041330000000 1.0
C      1  0.4555030000000  0.4652110000000  0.4744390000000 1.0
C      1  0.4756460000000  0.3749280000000  0.4302650000000 1.0
C      1  0.4454960000000  0.5409360000000  0.4871800000000 1.0
C      1  0.4841310000000  0.5206100000000  0.4628230000000 1.0
C      1  0.5176370000000  0.5085890000000  0.5003390000000 1.0
C      1  0.4400900000000  0.4471740000000  0.4422590000000 1.0
C      1  0.5026190000000  0.4820580000000  0.4852760000000 1.0
END
