TITL C-2848499-1157-410 -0.00107192593203167 125000 -763.451272966885 0 0 145 (C1) n - 1
REM
REM in /home/bkarasulu/work/CARBON/AIRSS/Generating-Clusters/AIREBO/with-SteepDescent/Only-C1/SD-CG-opt/Try1-1.4A-POS3A/HFTN-CG
REM
REM
REM
REM
REM
REM ./C.cell (11c1c37f851c82e70ff6c80c92926a4b)
REM
REM compiler GCC version 9.2.1 20190827 (Red Hat 9.2.1-1)
REM options -cpp -mtune=generic -march=x86-64 -g -O0 -fpre-include=/usr/include/finclude/math-vector-fortran.h
REM seed -1733559453 -1405473738 929982681 -1168069520 -685297107 2082722074 -1667881024 -1813249155 -329861753 -890013636 657710170 -2027735085 -1820574600 -175132944 1006711520 -352297730 -39635515 -998491421 495351538 694006725 2020299262 -1330000611 1089163093 408609861 -1606860093 1183125821 -1824494729 -1273023821 445541735 2032709961 1488224644 1777680512 -39293817
REM
CELL 1.54180   50.00000   50.00000   50.00000   90.00000   90.00000   90.00000
LATT -1
SFAC C  
C      1  0.5129780000000  0.5468700000000  0.5443260000000 1.0
C      1  0.5341280000000  0.4443390000000  0.4610970000000 1.0
C      1  0.4328660000000  0.4785950000000  0.4218740000000 1.0
C      1  0.5041200000000  0.5595640000000  0.4145550000000 1.0
C      1  0.5494470000000  0.4881670000000  0.4762450000000 1.0
C      1  0.4887410000000  0.4587270000000  0.4196570000000 1.0
C      1  0.4572870000000  0.5465270000000  0.5790440000000 1.0
C      1  0.4365850000000  0.4172380000000  0.5000990000000 1.0
C      1  0.5298700000000  0.5205070000000  0.4024590000000 1.0
C      1  0.6004180000000  0.5010440000000  0.4770150000000 1.0
C      1  0.4311700000000  0.5484430000000  0.4594170000000 1.0
C      1  0.5560230000000  0.4993640000000  0.5743090000000 1.0
C      1  0.5208850000000  0.4956310000000  0.5921540000000 1.0
C      1  0.5085220000000  0.5120260000000  0.4373330000000 1.0
C      1  0.5237810000000  0.5964120000000  0.5273600000000 1.0
C      1  0.5157860000000  0.5279160000000  0.4735280000000 1.0
C      1  0.5022590000000  0.4361580000000  0.5595050000000 1.0
C      1  0.4615020000000  0.4055310000000  0.4941730000000 1.0
C      1  0.4389910000000  0.4878480000000  0.5766440000000 1.0
C      1  0.4837480000000  0.5386100000000  0.5596490000000 1.0
C      1  0.4129690000000  0.4908210000000  0.5122920000000 1.0
C      1  0.4028040000000  0.4930410000000  0.5427720000000 1.0
C      1  0.4308650000000  0.5363150000000  0.5449680000000 1.0
C      1  0.4583470000000  0.5174470000000  0.5516890000000 1.0
C      1  0.5318900000000  0.4574320000000  0.5033090000000 1.0
C      1  0.4404370000000  0.4373970000000  0.5263500000000 1.0
C      1  0.4650020000000  0.4217530000000  0.5382440000000 1.0
C      1  0.5405650000000  0.5417590000000  0.5871320000000 1.0
C      1  0.5905420000000  0.5295120000000  0.5277440000000 1.0
C      1  0.5226240000000  0.5918860000000  0.4936710000000 1.0
C      1  0.4284700000000  0.5121920000000  0.4190150000000 1.0
C      1  0.4897220000000  0.4713310000000  0.5958660000000 1.0
C      1  0.5550840000000  0.4222980000000  0.5176440000000 1.0
C      1  0.4737800000000  0.4968230000000  0.5968670000000 1.0
C      1  0.4702050000000  0.5915570000000  0.4981090000000 1.0
C      1  0.5060890000000  0.4129300000000  0.4976300000000 1.0
C      1  0.4767230000000  0.4915450000000  0.5639780000000 1.0
C      1  0.5171340000000  0.5848910000000  0.4144990000000 1.0
C      1  0.5263840000000  0.5175290000000  0.5041320000000 1.0
C      1  0.5083560000000  0.5383430000000  0.5830030000000 1.0
C      1  0.5919280000000  0.4555050000000  0.5362050000000 1.0
C      1  0.5809000000000  0.5061550000000  0.5444030000000 1.0
C      1  0.4806020000000  0.3921710000000  0.4486990000000 1.0
C      1  0.5754130000000  0.4564650000000  0.4348770000000 1.0
C      1  0.4657410000000  0.5457100000000  0.5250550000000 1.0
C      1  0.4315700000000  0.5265880000000  0.5862190000000 1.0
C      1  0.4708820000000  0.4512630000000  0.4544170000000 1.0
C      1  0.5721630000000  0.5525150000000  0.5127540000000 1.0
C      1  0.5683250000000  0.5361000000000  0.4735880000000 1.0
C      1  0.5144350000000  0.4979960000000  0.4006050000000 1.0
C      1  0.5635800000000  0.5635540000000  0.4589240000000 1.0
C      1  0.6010880000000  0.4511940000000  0.5108710000000 1.0
C      1  0.5762280000000  0.5171480000000  0.4291460000000 1.0
C      1  0.4595950000000  0.5199270000000  0.6005570000000 1.0
C      1  0.5963900000000  0.5257210000000  0.4647330000000 1.0
C      1  0.5906900000000  0.4809420000000  0.5548690000000 1.0
C      1  0.5680160000000  0.4621230000000  0.5669490000000 1.0
C      1  0.5307630000000  0.4074860000000  0.5210600000000 1.0
C      1  0.5237180000000  0.5949890000000  0.4416720000000 1.0
C      1  0.4171170000000  0.5150990000000  0.4943800000000 1.0
C      1  0.4975270000000  0.5736550000000  0.5075920000000 1.0
C      1  0.4825640000000  0.5215420000000  0.4699900000000 1.0
C      1  0.4592390000000  0.4624810000000  0.5665080000000 1.0
C      1  0.5032090000000  0.5766390000000  0.4557780000000 1.0
C      1  0.4706420000000  0.5316450000000  0.4396470000000 1.0
C      1  0.5635440000000  0.5767410000000  0.4904950000000 1.0
C      1  0.5361130000000  0.5377750000000  0.4242960000000 1.0
C      1  0.4520360000000  0.5625500000000  0.5495140000000 1.0
C      1  0.5227480000000  0.5510410000000  0.5129550000000 1.0
C      1  0.5143690000000  0.4595350000000  0.5767060000000 1.0
C      1  0.4316120000000  0.5709050000000  0.5236440000000 1.0
C      1  0.4374160000000  0.4502110000000  0.4582810000000 1.0
C      1  0.5244030000000  0.4065710000000  0.4695770000000 1.0
C      1  0.4464930000000  0.5412110000000  0.5013570000000 1.0
C      1  0.5437010000000  0.5165020000000  0.4681060000000 1.0
C      1  0.4817640000000  0.4878620000000  0.4704170000000 1.0
C      1  0.4903690000000  0.5265130000000  0.5185050000000 1.0
C      1  0.4635910000000  0.4972790000000  0.5266670000000 1.0
C      1  0.4427950000000  0.5349550000000  0.4347500000000 1.0
C      1  0.4386040000000  0.4773150000000  0.5262830000000 1.0
C      1  0.4201690000000  0.5100390000000  0.5608720000000 1.0
C      1  0.5100070000000  0.5451680000000  0.4448030000000 1.0
C      1  0.5109730000000  0.4261710000000  0.5350330000000 1.0
C      1  0.4167550000000  0.5416200000000  0.5142680000000 1.0
C      1  0.5612820000000  0.5399420000000  0.4345640000000 1.0
C      1  0.5164420000000  0.5141000000000  0.5364850000000 1.0
C      1  0.5057060000000  0.4452190000000  0.5082780000000 1.0
C      1  0.4880620000000  0.4261530000000  0.4289190000000 1.0
C      1  0.4933990000000  0.5745070000000  0.5413330000000 1.0
C      1  0.5401630000000  0.5858590000000  0.4675530000000 1.0
C      1  0.5249990000000  0.4409920000000  0.4285080000000 1.0
C      1  0.5371320000000  0.5574350000000  0.5629060000000 1.0
C      1  0.4294710000000  0.5784310000000  0.4758090000000 1.0
C      1  0.4423120000000  0.5860370000000  0.5023250000000 1.0
C      1  0.4581910000000  0.5601940000000  0.4764110000000 1.0
C      1  0.5271610000000  0.5863570000000  0.5589000000000 1.0
C      1  0.4860890000000  0.5477520000000  0.4913640000000 1.0
C      1  0.4838580000000  0.4178340000000  0.4723650000000 1.0
C      1  0.5532390000000  0.4386740000000  0.4886590000000 1.0
C      1  0.5886310000000  0.5041940000000  0.5054670000000 1.0
C      1  0.4850000000000  0.5029770000000  0.4158900000000 1.0
C      1  0.5065110000000  0.5073750000000  0.5683320000000 1.0
C      1  0.4311140000000  0.4465250000000  0.4886820000000 1.0
C      1  0.5805770000000  0.4795810000000  0.4669880000000 1.0
C      1  0.4018990000000  0.4668790000000  0.5538980000000 1.0
C      1  0.4609870000000  0.4401130000000  0.4133850000000 1.0
C      1  0.4669730000000  0.5930250000000  0.5520720000000 1.0
C      1  0.4664290000000  0.5141620000000  0.4990180000000 1.0
C      1  0.5181960000000  0.4694840000000  0.4159420000000 1.0
C      1  0.4044010000000  0.4638590000000  0.4965570000000 1.0
C      1  0.5133240000000  0.4145680000000  0.4444590000000 1.0
C      1  0.5172280000000  0.4708420000000  0.5465260000000 1.0
C      1  0.4605190000000  0.4195920000000  0.4476580000000 1.0
C      1  0.4373650000000  0.4512190000000  0.4250450000000 1.0
C      1  0.5297390000000  0.4886030000000  0.4396970000000 1.0
C      1  0.4717710000000  0.4813570000000  0.4385710000000 1.0
C      1  0.4491550000000  0.4785620000000  0.4729440000000 1.0
C      1  0.4311180000000  0.4560020000000  0.5507470000000 1.0
C      1  0.5585620000000  0.5211320000000  0.5899360000000 1.0
C      1  0.4859320000000  0.5362720000000  0.4143690000000 1.0
C      1  0.4749250000000  0.4362750000000  0.5598400000000 1.0
C      1  0.4854210000000  0.4679280000000  0.5072710000000 1.0
C      1  0.5646730000000  0.4363320000000  0.4494040000000 1.0
C      1  0.4813000000000  0.5838890000000  0.4695520000000 1.0
C      1  0.4794090000000  0.4069980000000  0.5180750000000 1.0
C      1  0.4260090000000  0.5187770000000  0.4684510000000 1.0
C      1  0.5479200000000  0.5025410000000  0.5427320000000 1.0
C      1  0.5653890000000  0.4829580000000  0.5037780000000 1.0
C      1  0.4913710000000  0.4808070000000  0.5359190000000 1.0
C      1  0.5540650000000  0.4107020000000  0.4690700000000 1.0
C      1  0.5003360000000  0.4469160000000  0.4661110000000 1.0
C      1  0.5056930000000  0.4919880000000  0.4942340000000 1.0
C      1  0.5202420000000  0.4743450000000  0.4690700000000 1.0
C      1  0.5013720000000  0.5707350000000  0.5741930000000 1.0
C      1  0.4163060000000  0.4804190000000  0.4738180000000 1.0
C      1  0.5613170000000  0.4443060000000  0.5392650000000 1.0
C      1  0.4968180000000  0.6081550000000  0.5449030000000 1.0
C      1  0.5464480000000  0.5724550000000  0.5189480000000 1.0
C      1  0.4570540000000  0.4594000000000  0.5065280000000 1.0
C      1  0.5793690000000  0.4559440000000  0.4883970000000 1.0
C      1  0.5600240000000  0.5225550000000  0.5036580000000 1.0
C      1  0.5436020000000  0.4711740000000  0.5856090000000 1.0
C      1  0.5637450000000  0.4881640000000  0.4388080000000 1.0
C      1  0.4423880000000  0.4973140000000  0.4476500000000 1.0
C      1  0.5449830000000  0.4722180000000  0.5287660000000 1.0
END
