TITL C-2848504-8560-27 0.000486746798423438 125000 -370.310503841112 0 0 70 (C1) n - 1
REM
REM in /home/bkarasulu/work/CARBON/AIRSS/Generating-Clusters/AIREBO/with-SteepDescent/Only-C1/SD-CG-opt/Try1-1.4A-POS3A/HFTN-CG
REM
REM
REM
REM
REM
REM ./C.cell (11c1c37f851c82e70ff6c80c92926a4b)
REM
REM compiler GCC version 9.2.1 20190827 (Red Hat 9.2.1-1)
REM options -cpp -mtune=generic -march=x86-64 -g -O0 -fpre-include=/usr/include/finclude/math-vector-fortran.h
REM seed -1484991764 -698532869 -1221010192 -2020551150 -1801085986 61004167 974979474 -921494308 79981492 -548630979 1278873505 1354814924 -1845978463 612435542 876396400 -1439699663 794474530 -390133541 -1209784114 -1207884942 -2054098874 -88601818 2046314416 -521369953 1274011496 -776066295 -1600467683 -1542820171 -1720264703 -731119611 326557372 -412345872 -676460847
REM
CELL 1.54180   50.00000   50.00000   50.00000   90.00000   90.00000   90.00000
LATT -1
SFAC C  
C      1  0.5662320000000  0.5144670000000  0.5232510000000 1.0
C      1  0.4661290000000  0.4526200000000  0.4651500000000 1.0
C      1  0.4963900000000  0.5583570000000  0.4568320000000 1.0
C      1  0.5627030000000  0.4897610000000  0.4999500000000 1.0
C      1  0.5343530000000  0.5087130000000  0.5208190000000 1.0
C      1  0.5152320000000  0.4258530000000  0.4589480000000 1.0
C      1  0.5133170000000  0.5174870000000  0.4289610000000 1.0
C      1  0.5536850000000  0.4596700000000  0.5433930000000 1.0
C      1  0.5028510000000  0.5625640000000  0.5510610000000 1.0
C      1  0.5288690000000  0.5049060000000  0.4549710000000 1.0
C      1  0.4702930000000  0.5149090000000  0.4650040000000 1.0
C      1  0.4967630000000  0.4980940000000  0.4164090000000 1.0
C      1  0.4710270000000  0.5060040000000  0.5565250000000 1.0
C      1  0.4421890000000  0.4394300000000  0.4626780000000 1.0
C      1  0.5389080000000  0.5614390000000  0.5415100000000 1.0
C      1  0.4545960000000  0.4983430000000  0.4404550000000 1.0
C      1  0.4846070000000  0.5113740000000  0.5280120000000 1.0
C      1  0.5628240000000  0.5768490000000  0.4766630000000 1.0
C      1  0.5300850000000  0.4715500000000  0.4510520000000 1.0
C      1  0.4602750000000  0.5564270000000  0.5535120000000 1.0
C      1  0.4260440000000  0.4899780000000  0.4474160000000 1.0
C      1  0.5595710000000  0.4995820000000  0.4685880000000 1.0
C      1  0.4723570000000  0.4792190000000  0.5627960000000 1.0
C      1  0.4982690000000  0.5036270000000  0.4697580000000 1.0
C      1  0.4241550000000  0.5143930000000  0.4899640000000 1.0
C      1  0.5459780000000  0.4237370000000  0.4976270000000 1.0
C      1  0.5185580000000  0.5087500000000  0.4946550000000 1.0
C      1  0.5178610000000  0.5395680000000  0.4999200000000 1.0
C      1  0.4604570000000  0.5313540000000  0.4378090000000 1.0
C      1  0.4790540000000  0.5623530000000  0.5278120000000 1.0
C      1  0.4189200000000  0.5680790000000  0.4954190000000 1.0
C      1  0.4670220000000  0.5310520000000  0.5730420000000 1.0
C      1  0.5363980000000  0.4472940000000  0.4747130000000 1.0
C      1  0.5197480000000  0.4605080000000  0.5432320000000 1.0
C      1  0.5007280000000  0.4815530000000  0.4940050000000 1.0
C      1  0.5134400000000  0.5142810000000  0.5432440000000 1.0
C      1  0.4160860000000  0.4950720000000  0.4723570000000 1.0
C      1  0.4510670000000  0.5280950000000  0.5957690000000 1.0
C      1  0.4786400000000  0.4274180000000  0.4935280000000 1.0
C      1  0.4936530000000  0.5497070000000  0.4822280000000 1.0
C      1  0.4793120000000  0.5365100000000  0.5101250000000 1.0
C      1  0.5147700000000  0.5425490000000  0.5290550000000 1.0
C      1  0.5216340000000  0.5096120000000  0.5721210000000 1.0
C      1  0.5063500000000  0.5448490000000  0.4343980000000 1.0
C      1  0.4933130000000  0.5510960000000  0.5752650000000 1.0
C      1  0.5098800000000  0.4512600000000  0.4450360000000 1.0
C      1  0.5445740000000  0.5346640000000  0.4598800000000 1.0
C      1  0.5770020000000  0.4778040000000  0.4559330000000 1.0
C      1  0.4749070000000  0.5863710000000  0.5141200000000 1.0
C      1  0.4785020000000  0.4107280000000  0.5231210000000 1.0
C      1  0.4891590000000  0.4587860000000  0.5443150000000 1.0
C      1  0.4298950000000  0.5443230000000  0.4931880000000 1.0
C      1  0.5370400000000  0.4655840000000  0.5714480000000 1.0
C      1  0.4945880000000  0.4136210000000  0.4712110000000 1.0
C      1  0.5321450000000  0.4880820000000  0.5849840000000 1.0
C      1  0.4955260000000  0.4384440000000  0.5205740000000 1.0
C      1  0.4174010000000  0.4793880000000  0.5336800000000 1.0
C      1  0.4828710000000  0.4592390000000  0.4430870000000 1.0
C      1  0.5149840000000  0.4550850000000  0.4999480000000 1.0
C      1  0.5655700000000  0.4622750000000  0.4800610000000 1.0
C      1  0.4756990000000  0.4612820000000  0.4944040000000 1.0
C      1  0.4765770000000  0.4820520000000  0.4283460000000 1.0
C      1  0.5536270000000  0.5436220000000  0.5197520000000 1.0
C      1  0.5458380000000  0.5505610000000  0.4899580000000 1.0
C      1  0.4730590000000  0.4798010000000  0.5228160000000 1.0
C      1  0.4424750000000  0.4796880000000  0.5288990000000 1.0
C      1  0.5607050000000  0.5580240000000  0.4537100000000 1.0
C      1  0.4579790000000  0.5284490000000  0.4888680000000 1.0
C      1  0.5688040000000  0.4814220000000  0.5308410000000 1.0
C      1  0.5364780000000  0.4403900000000  0.5218170000000 1.0
END
