TITL C-2847953-8112-182 -0.0142776577787164 125000 -223.833098889269 0 0 40 (C1) n - 1
REM
REM in /home/bkarasulu/work/CARBON/AIRSS/Generating-Clusters/AIREBO/with-SteepDescent/Only-C1/SD-CG-opt/Try1-1.4A-POS3A/HFTN-CG
REM
REM
REM
REM
REM
REM ./C.cell (11c1c37f851c82e70ff6c80c92926a4b)
REM
REM compiler GCC version 9.2.1 20190827 (Red Hat 9.2.1-1)
REM options -cpp -mtune=generic -march=x86-64 -g -O0 -fpre-include=/usr/include/finclude/math-vector-fortran.h
REM seed 887757403 916869071 -1321520320 967740863 1369633835 510751205 -186768621 853793284 925444537 1672069324 -1090140978 1870956515 -1802024748 -1603951277 -783247987 732149100 -578733624 -1638121910 -530556491 -1818220684 -131560627 -1490088848 -153951448 -1127347096 592370804 -227742460 -97631482 -1615005686 -1191640787 606929400 -1458087783 2021648412 -502159569
REM
CELL 1.54180   50.00000   50.00000   50.00000   90.00000   90.00000   90.00000
LATT -1
SFAC C  
C      1  0.4721050000000  0.5438810000000  0.4434790000000 1.0
C      1  0.4870810000000  0.5237780000000  0.4312590000000 1.0
C      1  0.5505980000000  0.5325310000000  0.4805720000000 1.0
C      1  0.4510190000000  0.4276060000000  0.5038710000000 1.0
C      1  0.4836960000000  0.4567070000000  0.5265240000000 1.0
C      1  0.5037390000000  0.4605570000000  0.4599760000000 1.0
C      1  0.5386090000000  0.5551300000000  0.4690560000000 1.0
C      1  0.4988580000000  0.4803270000000  0.5203470000000 1.0
C      1  0.4494440000000  0.5203510000000  0.4922780000000 1.0
C      1  0.5110050000000  0.5685320000000  0.4574960000000 1.0
C      1  0.4815310000000  0.4263580000000  0.5653320000000 1.0
C      1  0.5273300000000  0.5479910000000  0.4392980000000 1.0
C      1  0.4875560000000  0.5183910000000  0.5250740000000 1.0
C      1  0.4602550000000  0.5188060000000  0.5198570000000 1.0
C      1  0.5163870000000  0.4970900000000  0.5729820000000 1.0
C      1  0.4588890000000  0.4524990000000  0.5128770000000 1.0
C      1  0.4964210000000  0.4994400000000  0.5472860000000 1.0
C      1  0.4454520000000  0.5432700000000  0.4777170000000 1.0
C      1  0.5536840000000  0.5115710000000  0.4614940000000 1.0
C      1  0.5159350000000  0.4836020000000  0.4684490000000 1.0
C      1  0.4439490000000  0.5647430000000  0.4627590000000 1.0
C      1  0.5592340000000  0.4643170000000  0.5276360000000 1.0
C      1  0.4959350000000  0.4731150000000  0.5679790000000 1.0
C      1  0.5194600000000  0.4896080000000  0.4976970000000 1.0
C      1  0.4401570000000  0.4931610000000  0.4864260000000 1.0
C      1  0.5345950000000  0.5171420000000  0.5769910000000 1.0
C      1  0.4869760000000  0.4502690000000  0.5544980000000 1.0
C      1  0.4447150000000  0.4045620000000  0.4930920000000 1.0
C      1  0.5084070000000  0.5197410000000  0.5068740000000 1.0
C      1  0.5412300000000  0.5217580000000  0.5071640000000 1.0
C      1  0.5287860000000  0.5018590000000  0.4512310000000 1.0
C      1  0.4449370000000  0.4963250000000  0.5311530000000 1.0
C      1  0.5795620000000  0.4749610000000  0.5079910000000 1.0
C      1  0.4898800000000  0.4398860000000  0.4517640000000 1.0
C      1  0.4426970000000  0.4757110000000  0.5100980000000 1.0
C      1  0.5514650000000  0.5361140000000  0.5326760000000 1.0
C      1  0.5149040000000  0.5218960000000  0.4366190000000 1.0
C      1  0.5511170000000  0.5290510000000  0.5588040000000 1.0
C      1  0.5492860000000  0.4905390000000  0.5084130000000 1.0
C      1  0.4831160000000  0.5668240000000  0.4549110000000 1.0
END
