TITL C-2847946-5639-25 -0.0023929008404084 125000 -991.585410364128 0 0 187 (C1) n - 1
REM
REM in /home/bkarasulu/work/CARBON/AIRSS/Generating-Clusters/AIREBO/with-SteepDescent/Only-C1/SD-CG-opt/Try1-1.4A-POS3A/HFTN-CG
REM
REM
REM
REM
REM
REM ./C.cell (11c1c37f851c82e70ff6c80c92926a4b)
REM
REM compiler GCC version 9.2.1 20190827 (Red Hat 9.2.1-1)
REM options -cpp -mtune=generic -march=x86-64 -g -O0 -fpre-include=/usr/include/finclude/math-vector-fortran.h
REM seed -917552757 -1363335153 149427428 751151771 -2074478632 838249439 1358261945 455432455 180961199 2103343125 -476046811 1983428732 -1650318103 1956713394 -191828556 -1955908582 -2026999075 1557942516 -291279413 -391062965 -594612531 1869981746 772223261 94414051 244446266 2072833032 -1634211410 737994086 -114143639 -1237565689 599495692 -1946249417 -2057719510
REM
CELL 1.54180   50.00000   50.00000   50.00000   90.00000   90.00000   90.00000
LATT -1
SFAC C  
C      1  0.5612450000000  0.4996990000000  0.5374230000000 1.0
C      1  0.4255240000000  0.5185950000000  0.3998720000000 1.0
C      1  0.5754340000000  0.4390940000000  0.4671020000000 1.0
C      1  0.5006030000000  0.5679540000000  0.5374960000000 1.0
C      1  0.5064780000000  0.3919780000000  0.5730340000000 1.0
C      1  0.4893880000000  0.4391790000000  0.3935080000000 1.0
C      1  0.5848030000000  0.5311210000000  0.5059340000000 1.0
C      1  0.4864150000000  0.5219860000000  0.6050860000000 1.0
C      1  0.5016590000000  0.5991560000000  0.4185920000000 1.0
C      1  0.5326990000000  0.5239090000000  0.4859130000000 1.0
C      1  0.4719740000000  0.4765940000000  0.6027070000000 1.0
C      1  0.5158160000000  0.4377640000000  0.5521870000000 1.0
C      1  0.4934700000000  0.4632710000000  0.5915180000000 1.0
C      1  0.4545590000000  0.5953020000000  0.4942630000000 1.0
C      1  0.5341520000000  0.4680100000000  0.4376260000000 1.0
C      1  0.4355700000000  0.4489160000000  0.5090560000000 1.0
C      1  0.5288210000000  0.5619550000000  0.5194910000000 1.0
C      1  0.4463690000000  0.4507610000000  0.4122310000000 1.0
C      1  0.5555730000000  0.4149830000000  0.5097350000000 1.0
C      1  0.4163480000000  0.4395610000000  0.5515760000000 1.0
C      1  0.4999620000000  0.4901790000000  0.5587080000000 1.0
C      1  0.5981850000000  0.4568690000000  0.4538640000000 1.0
C      1  0.5582070000000  0.6072940000000  0.5387570000000 1.0
C      1  0.4445060000000  0.5000170000000  0.5313440000000 1.0
C      1  0.5620870000000  0.5951030000000  0.5145790000000 1.0
C      1  0.4979100000000  0.5382420000000  0.4288280000000 1.0
C      1  0.5131480000000  0.5900460000000  0.4492710000000 1.0
C      1  0.5773020000000  0.4466280000000  0.4992760000000 1.0
C      1  0.5390280000000  0.4616510000000  0.5579330000000 1.0
C      1  0.4099250000000  0.5313670000000  0.5141550000000 1.0
C      1  0.4653870000000  0.3955950000000  0.4808470000000 1.0
C      1  0.5511870000000  0.5063970000000  0.4101750000000 1.0
C      1  0.4248220000000  0.5792440000000  0.4731890000000 1.0
C      1  0.5028780000000  0.6136970000000  0.4714490000000 1.0
C      1  0.5790320000000  0.5553340000000  0.4828870000000 1.0
C      1  0.4885700000000  0.5979010000000  0.5382530000000 1.0
C      1  0.5164330000000  0.4531450000000  0.4701960000000 1.0
C      1  0.4784270000000  0.4881450000000  0.4080780000000 1.0
C      1  0.5477730000000  0.5510510000000  0.4955710000000 1.0
C      1  0.4525390000000  0.4781530000000  0.4097750000000 1.0
C      1  0.5254110000000  0.5392280000000  0.6329820000000 1.0
C      1  0.5248750000000  0.4409820000000  0.5195490000000 1.0
C      1  0.4947670000000  0.5010710000000  0.4908260000000 1.0
C      1  0.4790080000000  0.5563450000000  0.4072410000000 1.0
C      1  0.4326180000000  0.5554050000000  0.4519440000000 1.0
C      1  0.5057290000000  0.5106800000000  0.4472390000000 1.0
C      1  0.5725670000000  0.5214110000000  0.4320660000000 1.0
C      1  0.5446090000000  0.4665390000000  0.5087320000000 1.0
C      1  0.6075750000000  0.4629110000000  0.5195330000000 1.0
C      1  0.5689940000000  0.4799050000000  0.4129330000000 1.0
C      1  0.4291160000000  0.4246670000000  0.6037920000000 1.0
C      1  0.5029560000000  0.5299380000000  0.5506590000000 1.0
C      1  0.4449550000000  0.4678100000000  0.4567220000000 1.0
C      1  0.5123090000000  0.6125730000000  0.4974210000000 1.0
C      1  0.4700670000000  0.4114600000000  0.5429510000000 1.0
C      1  0.5006450000000  0.4089630000000  0.5517200000000 1.0
C      1  0.4183700000000  0.4257210000000  0.4582520000000 1.0
C      1  0.4058980000000  0.4565330000000  0.4634960000000 1.0
C      1  0.3985650000000  0.4660450000000  0.5160590000000 1.0
C      1  0.4661210000000  0.4570660000000  0.5457420000000 1.0
C      1  0.5178280000000  0.5315500000000  0.6050170000000 1.0
C      1  0.5134020000000  0.3832920000000  0.4958390000000 1.0
C      1  0.6055270000000  0.4379840000000  0.5261840000000 1.0
C      1  0.5075210000000  0.5372430000000  0.4673570000000 1.0
C      1  0.5954720000000  0.5311900000000  0.5457470000000 1.0
C      1  0.4483220000000  0.4337140000000  0.5566630000000 1.0
C      1  0.5537600000000  0.4407290000000  0.4436490000000 1.0
C      1  0.4897620000000  0.5087460000000  0.3903050000000 1.0
C      1  0.5304480000000  0.4007040000000  0.4818270000000 1.0
C      1  0.3959980000000  0.5026280000000  0.5259680000000 1.0
C      1  0.5019590000000  0.4087770000000  0.4408500000000 1.0
C      1  0.5381800000000  0.5044460000000  0.6022400000000 1.0
C      1  0.5542940000000  0.5446770000000  0.4454850000000 1.0
C      1  0.5202670000000  0.5295200000000  0.5251570000000 1.0
C      1  0.5016080000000  0.5808490000000  0.6075640000000 1.0
C      1  0.4920420000000  0.5631110000000  0.4516160000000 1.0
C      1  0.5593020000000  0.5114600000000  0.4992960000000 1.0
C      1  0.5678610000000  0.5490920000000  0.5371360000000 1.0
C      1  0.5848590000000  0.4841720000000  0.4394520000000 1.0
C      1  0.4444820000000  0.5934770000000  0.4535710000000 1.0
C      1  0.4678070000000  0.4328640000000  0.4103840000000 1.0
C      1  0.5543590000000  0.5625370000000  0.5593870000000 1.0
C      1  0.4864370000000  0.3747750000000  0.4841070000000 1.0
C      1  0.5763760000000  0.4760800000000  0.5162800000000 1.0
C      1  0.4779310000000  0.4995060000000  0.6177400000000 1.0
C      1  0.5973660000000  0.5025410000000  0.5123300000000 1.0
C      1  0.5418420000000  0.4717370000000  0.6051270000000 1.0
C      1  0.5135890000000  0.5629200000000  0.5925850000000 1.0
C      1  0.5350310000000  0.5886680000000  0.4993690000000 1.0
C      1  0.5217170000000  0.5688030000000  0.5642200000000 1.0
C      1  0.4423090000000  0.5849990000000  0.5309200000000 1.0
C      1  0.4561240000000  0.5472420000000  0.4306970000000 1.0
C      1  0.4286160000000  0.5024340000000  0.5834180000000 1.0
C      1  0.5183900000000  0.5510790000000  0.4054600000000 1.0
C      1  0.5143940000000  0.4403620000000  0.4387390000000 1.0
C      1  0.5999600000000  0.4973540000000  0.5458640000000 1.0
C      1  0.4994220000000  0.4237310000000  0.4715240000000 1.0
C      1  0.5455650000000  0.5924700000000  0.5585730000000 1.0
C      1  0.5816460000000  0.4795610000000  0.4729850000000 1.0
C      1  0.5656190000000  0.4899100000000  0.5883690000000 1.0
C      1  0.4657090000000  0.5277980000000  0.4564200000000 1.0
C      1  0.5976180000000  0.5060280000000  0.4784860000000 1.0
C      1  0.5754120000000  0.5113860000000  0.5647590000000 1.0
C      1  0.4922900000000  0.4365870000000  0.5194030000000 1.0
C      1  0.4682060000000  0.4975030000000  0.4700430000000 1.0
C      1  0.5369110000000  0.4818100000000  0.5344060000000 1.0
C      1  0.4618980000000  0.5666660000000  0.4651490000000 1.0
C      1  0.4169500000000  0.4818560000000  0.4450720000000 1.0
C      1  0.4226110000000  0.5225090000000  0.5444310000000 1.0
C      1  0.5692380000000  0.4110690000000  0.4833910000000 1.0
C      1  0.5678890000000  0.4513640000000  0.5538760000000 1.0
C      1  0.5620010000000  0.4525430000000  0.4135620000000 1.0
C      1  0.5080540000000  0.5721230000000  0.4869260000000 1.0
C      1  0.4782110000000  0.4466190000000  0.4613680000000 1.0
C      1  0.5011520000000  0.6172690000000  0.5225380000000 1.0
C      1  0.5377870000000  0.5841360000000  0.4265780000000 1.0
C      1  0.4585850000000  0.5627700000000  0.4987900000000 1.0
C      1  0.4773310000000  0.4754280000000  0.4496590000000 1.0
C      1  0.4533860000000  0.5222720000000  0.4997610000000 1.0
C      1  0.4233750000000  0.5527590000000  0.5537250000000 1.0
C      1  0.4304190000000  0.4964460000000  0.4203930000000 1.0
C      1  0.5866770000000  0.5287180000000  0.4622060000000 1.0
C      1  0.5014540000000  0.5776280000000  0.4017270000000 1.0
C      1  0.5192860000000  0.4967610000000  0.4031030000000 1.0
C      1  0.4121300000000  0.5324100000000  0.4595990000000 1.0
C      1  0.5843600000000  0.4732860000000  0.5653370000000 1.0
C      1  0.5510230000000  0.5265640000000  0.5267290000000 1.0
C      1  0.4462570000000  0.4897340000000  0.4928130000000 1.0
C      1  0.4740500000000  0.5310610000000  0.3867970000000 1.0
C      1  0.4752450000000  0.5120980000000  0.5560850000000 1.0
C      1  0.5088790000000  0.4974920000000  0.5280520000000 1.0
C      1  0.4694330000000  0.5293890000000  0.5823100000000 1.0
C      1  0.4226770000000  0.4689580000000  0.5639520000000 1.0
C      1  0.5289800000000  0.4907180000000  0.5725000000000 1.0
C      1  0.4269810000000  0.4726730000000  0.5318670000000 1.0
C      1  0.5043310000000  0.4721160000000  0.5058710000000 1.0
C      1  0.4915510000000  0.4603030000000  0.5601510000000 1.0
C      1  0.4813330000000  0.4526660000000  0.4921420000000 1.0
C      1  0.4591220000000  0.4290840000000  0.5186150000000 1.0
C      1  0.4243020000000  0.5826700000000  0.5032630000000 1.0
C      1  0.4057170000000  0.4979740000000  0.5584210000000 1.0
C      1  0.5489190000000  0.4854040000000  0.4814920000000 1.0
C      1  0.4401730000000  0.4427260000000  0.4780530000000 1.0
C      1  0.4439780000000  0.4728360000000  0.5901770000000 1.0
C      1  0.4725340000000  0.4223970000000  0.4388780000000 1.0
C      1  0.5604470000000  0.5730930000000  0.4364010000000 1.0
C      1  0.3900370000000  0.4911230000000  0.4960650000000 1.0
C      1  0.4611180000000  0.5983300000000  0.5437520000000 1.0
C      1  0.4809190000000  0.5319280000000  0.4865560000000 1.0
C      1  0.3984300000000  0.4410530000000  0.5311330000000 1.0
C      1  0.4025710000000  0.5025390000000  0.4663380000000 1.0
C      1  0.5364950000000  0.4334500000000  0.4884940000000 1.0
C      1  0.5203300000000  0.4548630000000  0.5988660000000 1.0
C      1  0.4396160000000  0.4408170000000  0.5863600000000 1.0
C      1  0.4766500000000  0.5512640000000  0.5537120000000 1.0
C      1  0.5040250000000  0.4817100000000  0.4295170000000 1.0
C      1  0.5742710000000  0.5805420000000  0.4631290000000 1.0
C      1  0.5394190000000  0.4084410000000  0.5907440000000 1.0
C      1  0.5434520000000  0.5173280000000  0.4580240000000 1.0
C      1  0.3989500000000  0.5376640000000  0.4882640000000 1.0
C      1  0.5357210000000  0.5325290000000  0.3962240000000 1.0
C      1  0.4267400000000  0.5517000000000  0.5806790000000 1.0
C      1  0.4402320000000  0.5278070000000  0.5883130000000 1.0
C      1  0.5807360000000  0.5700640000000  0.5135020000000 1.0
C      1  0.5180010000000  0.4394870000000  0.4068320000000 1.0
C      1  0.5523320000000  0.4893570000000  0.4478900000000 1.0
C      1  0.5739670000000  0.4320490000000  0.5298270000000 1.0
C      1  0.4370210000000  0.5160410000000  0.4465990000000 1.0
C      1  0.4869180000000  0.4129030000000  0.4959850000000 1.0
C      1  0.6061840000000  0.5571870000000  0.5320490000000 1.0
C      1  0.4462160000000  0.5358840000000  0.4000710000000 1.0
C      1  0.4595510000000  0.5305180000000  0.5321820000000 1.0
C      1  0.5208900000000  0.5231530000000  0.5722130000000 1.0
C      1  0.4192180000000  0.4796420000000  0.4847150000000 1.0
C      1  0.4893560000000  0.5577280000000  0.5070570000000 1.0
C      1  0.4326570000000  0.4461960000000  0.4361310000000 1.0
C      1  0.5337600000000  0.4160840000000  0.4526110000000 1.0
C      1  0.5171950000000  0.4872000000000  0.4693560000000 1.0
C      1  0.5094980000000  0.4664190000000  0.3924960000000 1.0
C      1  0.4504580000000  0.4144310000000  0.4622430000000 1.0
C      1  0.4983250000000  0.3972770000000  0.5226660000000 1.0
C      1  0.5424710000000  0.5922190000000  0.4663830000000 1.0
C      1  0.4763760000000  0.4969280000000  0.5197000000000 1.0
C      1  0.4623150000000  0.4686290000000  0.5141040000000 1.0
C      1  0.5332910000000  0.5595080000000  0.4677460000000 1.0
C      1  0.5267720000000  0.4314860000000  0.5837580000000 1.0
C      1  0.4358830000000  0.5527850000000  0.5220950000000 1.0
END
