TITL C-2848498-1409-322 -4094.52271340855 125000 -953.307214833232 0 0 176 (C1) n - 1
REM
REM in /home/bkarasulu/work/CARBON/AIRSS/Generating-Clusters/AIREBO/with-SteepDescent/Only-C1/SD-CG-opt/Try1-1.4A-POS3A/HFTN-CG
REM
REM
REM
REM
REM
REM ./C.cell (11c1c37f851c82e70ff6c80c92926a4b)
REM
REM compiler GCC version 9.2.1 20190827 (Red Hat 9.2.1-1)
REM options -cpp -mtune=generic -march=x86-64 -g -O0 -fpre-include=/usr/include/finclude/math-vector-fortran.h
REM seed 1715919312 -373405152 2095521400 1304865835 2114046806 1695066714 -1947949872 -32117928 -1516447580 1619533160 616118662 1227152406 420424746 251079444 633353443 99883062 207493289 -127952658 -1993663589 414938100 1794384566 605726174 -14565188 2024786783 1797492701 58467947 -864176192 -557140669 -670426860 555528783 -484748459 -1964382946 -1571137730
REM
CELL 1.54180   50.00000   50.00000   50.00000   90.00000   90.00000   90.00000
LATT -1
SFAC C  
C      1  0.5219230000000  0.4386230000000  0.4074380000000 1.0
C      1  0.5560100000000  0.5151710000000  0.4358450000000 1.0
C      1  0.5789140000000  0.5517600000000  0.5791690000000 1.0
C      1  0.4488550000000  0.4598530000000  0.4043930000000 1.0
C      1  0.5064940000000  0.5500090000000  0.5469910000000 1.0
C      1  0.3885530000000  0.4526840000000  0.4998790000000 1.0
C      1  0.5632430000000  0.5272680000000  0.4804540000000 1.0
C      1  0.4927630000000  0.5044560000000  0.5463080000000 1.0
C      1  0.5897500000000  0.5090470000000  0.4858610000000 1.0
C      1  0.5860320000000  0.4628380000000  0.5363690000000 1.0
C      1  0.4355730000000  0.4508040000000  0.5719890000000 1.0
C      1  0.3955510000000  0.5521370000000  0.4969520000000 1.0
C      1  0.4357890000000  0.4679450000000  0.4794040000000 1.0
C      1  0.4723210000000  0.5107690000000  0.5028190000000 1.0
C      1  0.3834030000000  0.5266860000000  0.5020300000000 1.0
C      1  0.5360550000000  0.4446130000000  0.5391070000000 1.0
C      1  0.5054080000000  0.4635430000000  0.5805160000000 1.0
C      1  0.4496830000000  0.5320970000000  0.5533820000000 1.0
C      1  0.5694410000000  0.4242320000000  0.5332280000000 1.0
C      1  0.5038250000000  0.5238760000000  0.4307060000000 1.0
C      1  0.4359660000000  0.5877260000000  0.5769200000000 1.0
C      1  0.5967220000000  0.4732500000000  0.4551740000000 1.0
C      1  0.4313680000000  0.5808860000000  0.4661490000000 1.0
C      1  0.4815430000000  0.5523950000000  0.4665010000000 1.0
C      1  0.5495670000000  0.5653240000000  0.5412820000000 1.0
C      1  0.4055270000000  0.4494930000000  0.5459030000000 1.0
C      1  0.5226050000000  0.5830890000000  0.4996990000000 1.0
C      1  0.4468580000000  0.5655440000000  0.4430530000000 1.0
C      1  0.5013420000000  0.4526380000000  0.3957070000000 1.0
C      1  0.5189090000000  0.4143860000000  0.4473460000000 1.0
C      1  0.4580240000000  0.4898250000000  0.4658730000000 1.0
C      1  0.4705650000000  0.5543590000000  0.5155410000000 1.0
C      1  0.5812750000000  0.5179860000000  0.5759520000000 1.0
C      1  0.4280820000000  0.5317030000000  0.5080630000000 1.0
C      1  0.6191000000000  0.5442310000000  0.4654380000000 1.0
C      1  0.4905850000000  0.3982480000000  0.5344750000000 1.0
C      1  0.4773570000000  0.5113800000000  0.4480240000000 1.0
C      1  0.5226130000000  0.3966370000000  0.5245130000000 1.0
C      1  0.5228190000000  0.4836420000000  0.4547880000000 1.0
C      1  0.5683310000000  0.5420640000000  0.4516100000000 1.0
C      1  0.4238870000000  0.5308590000000  0.4546510000000 1.0
C      1  0.4136790000000  0.5044420000000  0.5841560000000 1.0
C      1  0.6008020000000  0.5002500000000  0.4581460000000 1.0
C      1  0.5358970000000  0.4695100000000  0.5943670000000 1.0
C      1  0.5978550000000  0.4584990000000  0.4794720000000 1.0
C      1  0.4418230000000  0.4996940000000  0.5563700000000 1.0
C      1  0.4004500000000  0.5629580000000  0.5227960000000 1.0
C      1  0.4246170000000  0.5014500000000  0.5207620000000 1.0
C      1  0.5123450000000  0.4774510000000  0.5502740000000 1.0
C      1  0.4571450000000  0.4470570000000  0.5974520000000 1.0
C      1  0.4558840000000  0.6034900000000  0.4801020000000 1.0
C      1  0.5361150000000  0.4455120000000  0.4732420000000 1.0
C      1  0.4833160000000  0.5417190000000  0.5841030000000 1.0
C      1  0.4581950000000  0.5484710000000  0.4865090000000 1.0
C      1  0.5263990000000  0.5871640000000  0.4475150000000 1.0
C      1  0.4888950000000  0.4898050000000  0.5940670000000 1.0
C      1  0.5719990000000  0.5366900000000  0.5080750000000 1.0
C      1  0.4146010000000  0.4404980000000  0.5080610000000 1.0
C      1  0.4398510000000  0.4628440000000  0.5115780000000 1.0
C      1  0.5249770000000  0.4464600000000  0.4403890000000 1.0
C      1  0.5143920000000  0.5086050000000  0.5219250000000 1.0
C      1  0.5919760000000  0.5619750000000  0.5048190000000 1.0
C      1  0.6166580000000  0.5470080000000  0.4921900000000 1.0
C      1  0.4814260000000  0.5990560000000  0.4635280000000 1.0
C      1  0.4923050000000  0.4818880000000  0.4400680000000 1.0
C      1  0.5413760000000  0.5459350000000  0.6139980000000 1.0
C      1  0.4734760000000  0.4765860000000  0.5417090000000 1.0
C      1  0.5581900000000  0.4874090000000  0.4163210000000 1.0
C      1  0.4249020000000  0.5504340000000  0.4798530000000 1.0
C      1  0.5360210000000  0.4875130000000  0.5062980000000 1.0
C      1  0.5827090000000  0.4344740000000  0.4846630000000 1.0
C      1  0.4257590000000  0.4395020000000  0.4633500000000 1.0
C      1  0.5066780000000  0.6091560000000  0.4927530000000 1.0
C      1  0.4532190000000  0.4796220000000  0.5757510000000 1.0
C      1  0.4774380000000  0.5758980000000  0.4422780000000 1.0
C      1  0.5400720000000  0.4117360000000  0.4734160000000 1.0
C      1  0.4950240000000  0.5226810000000  0.4723730000000 1.0
C      1  0.5211750000000  0.5415570000000  0.5170020000000 1.0
C      1  0.5397650000000  0.4974670000000  0.5822660000000 1.0
C      1  0.5891470000000  0.4742650000000  0.5052800000000 1.0
C      1  0.4935430000000  0.5369770000000  0.5011980000000 1.0
C      1  0.4330400000000  0.4164600000000  0.5196050000000 1.0
C      1  0.5710450000000  0.4660750000000  0.4383630000000 1.0
C      1  0.5632340000000  0.5703120000000  0.4886740000000 1.0
C      1  0.5559840000000  0.5666990000000  0.5724370000000 1.0
C      1  0.4353360000000  0.4885350000000  0.4110810000000 1.0
C      1  0.4746480000000  0.5547780000000  0.5583210000000 1.0
C      1  0.5372000000000  0.5556030000000  0.4538450000000 1.0
C      1  0.5193160000000  0.5534340000000  0.4241640000000 1.0
C      1  0.4958420000000  0.3947730000000  0.5658360000000 1.0
C      1  0.5280710000000  0.5146340000000  0.4485390000000 1.0
C      1  0.5119800000000  0.6139670000000  0.4629940000000 1.0
C      1  0.4760880000000  0.3942190000000  0.5067980000000 1.0
C      1  0.4055080000000  0.4635550000000  0.4537100000000 1.0
C      1  0.4667150000000  0.4979770000000  0.4018240000000 1.0
C      1  0.4544290000000  0.4511600000000  0.4564490000000 1.0
C      1  0.5270790000000  0.5811670000000  0.5296600000000 1.0
C      1  0.5051510000000  0.4518100000000  0.5053070000000 1.0
C      1  0.4132240000000  0.4231200000000  0.5440530000000 1.0
C      1  0.4389050000000  0.5828820000000  0.4984080000000 1.0
C      1  0.4527820000000  0.4750870000000  0.4355240000000 1.0
C      1  0.5818710000000  0.4951790000000  0.5311780000000 1.0
C      1  0.4609170000000  0.5499100000000  0.4163300000000 1.0
C      1  0.5189540000000  0.4371230000000  0.5654620000000 1.0
C      1  0.4136490000000  0.4852160000000  0.4370640000000 1.0
C      1  0.5338260000000  0.5201950000000  0.4799370000000 1.0
C      1  0.4900260000000  0.4191430000000  0.4299790000000 1.0
C      1  0.4286070000000  0.4959560000000  0.6025640000000 1.0
C      1  0.5694770000000  0.4219160000000  0.4634610000000 1.0
C      1  0.5982970000000  0.5175480000000  0.5462790000000 1.0
C      1  0.4600860000000  0.4311590000000  0.5251100000000 1.0
C      1  0.5636430000000  0.4879550000000  0.4877410000000 1.0
C      1  0.5273290000000  0.4751070000000  0.4221820000000 1.0
C      1  0.5110410000000  0.4952340000000  0.4845040000000 1.0
C      1  0.4967050000000  0.5135540000000  0.5775500000000 1.0
C      1  0.5397250000000  0.5432370000000  0.3989380000000 1.0
C      1  0.5827410000000  0.5670590000000  0.5359390000000 1.0
C      1  0.4827260000000  0.4763020000000  0.4838810000000 1.0
C      1  0.5965670000000  0.5485020000000  0.5552690000000 1.0
C      1  0.4507480000000  0.4039140000000  0.4973990000000 1.0
C      1  0.5373610000000  0.4535170000000  0.5062850000000 1.0
C      1  0.3848210000000  0.4621300000000  0.4736590000000 1.0
C      1  0.3942270000000  0.5147360000000  0.5233710000000 1.0
C      1  0.5655830000000  0.4492490000000  0.5559280000000 1.0
C      1  0.5525930000000  0.5030380000000  0.5316270000000 1.0
C      1  0.4957190000000  0.4464950000000  0.4739080000000 1.0
C      1  0.5512650000000  0.5346110000000  0.5286340000000 1.0
C      1  0.4449880000000  0.4133890000000  0.4706710000000 1.0
C      1  0.4692930000000  0.5283140000000  0.3914770000000 1.0
C      1  0.5747620000000  0.4336580000000  0.4390020000000 1.0
C      1  0.4809670000000  0.4275480000000  0.5483930000000 1.0
C      1  0.5338090000000  0.5612160000000  0.5887730000000 1.0
C      1  0.4971570000000  0.4534680000000  0.5347510000000 1.0
C      1  0.5505240000000  0.5252600000000  0.5885910000000 1.0
C      1  0.4451410000000  0.5838560000000  0.5239190000000 1.0
C      1  0.4750620000000  0.4547630000000  0.5679090000000 1.0
C      1  0.4722690000000  0.5248800000000  0.5324990000000 1.0
C      1  0.5001430000000  0.5818200000000  0.5435760000000 1.0
C      1  0.6025810000000  0.5243860000000  0.5134120000000 1.0
C      1  0.4315800000000  0.4695650000000  0.5438840000000 1.0
C      1  0.4073060000000  0.5118140000000  0.4454310000000 1.0
C      1  0.4968830000000  0.3948060000000  0.4881250000000 1.0
C      1  0.4665260000000  0.4110040000000  0.4531630000000 1.0
C      1  0.5138390000000  0.4128090000000  0.5757130000000 1.0
C      1  0.3834330000000  0.4560620000000  0.5290190000000 1.0
C      1  0.5484200000000  0.5183780000000  0.4059920000000 1.0
C      1  0.5810210000000  0.4866230000000  0.5859110000000 1.0
C      1  0.4593600000000  0.4821490000000  0.6070750000000 1.0
C      1  0.4914690000000  0.5514040000000  0.4044860000000 1.0
C      1  0.4533010000000  0.5319440000000  0.4421350000000 1.0
C      1  0.5760220000000  0.5743620000000  0.4589520000000 1.0
C      1  0.5337670000000  0.5533230000000  0.4876310000000 1.0
C      1  0.4469480000000  0.5164940000000  0.4838570000000 1.0
C      1  0.5636340000000  0.4655210000000  0.5816320000000 1.0
C      1  0.4968290000000  0.4833430000000  0.4077970000000 1.0
C      1  0.5998840000000  0.5291350000000  0.4507130000000 1.0
C      1  0.4083230000000  0.5010840000000  0.5507290000000 1.0
C      1  0.5236880000000  0.3951430000000  0.4964130000000 1.0
C      1  0.5361910000000  0.4946970000000  0.5549220000000 1.0
C      1  0.4830880000000  0.4499860000000  0.4425330000000 1.0
C      1  0.5212580000000  0.5349500000000  0.5736960000000 1.0
C      1  0.4767280000000  0.5860990000000  0.5255490000000 1.0
C      1  0.4802950000000  0.6069730000000  0.5026040000000 1.0
C      1  0.5049380000000  0.5757020000000  0.4712690000000 1.0
C      1  0.5518920000000  0.4721990000000  0.4634040000000 1.0
C      1  0.4711490000000  0.4515240000000  0.5045550000000 1.0
C      1  0.4553590000000  0.4909350000000  0.5199200000000 1.0
C      1  0.5688410000000  0.5904480000000  0.5154920000000 1.0
C      1  0.5414630000000  0.4110650000000  0.5379100000000 1.0
C      1  0.5016630000000  0.5197400000000  0.3974520000000 1.0
C      1  0.4274140000000  0.5496190000000  0.5355080000000 1.0
C      1  0.5669230000000  0.4367320000000  0.5077290000000 1.0
C      1  0.4752640000000  0.4498210000000  0.4094420000000 1.0
C      1  0.4936220000000  0.4155470000000  0.4686870000000 1.0
C      1  0.4458030000000  0.5716010000000  0.5535780000000 1.0
C      1  0.5023670000000  0.5828280000000  0.4263680000000 1.0
END
