TITL C-2847954-6904-714 -0.00226065189317449 125000 -494.522836846488 0 0 93 (C1) n - 1
REM
REM in /home/bkarasulu/work/CARBON/AIRSS/Generating-Clusters/AIREBO/with-SteepDescent/Only-C1/SD-CG-opt/Try1-1.4A-POS3A/HFTN-CG
REM
REM
REM
REM
REM
REM ./C.cell (11c1c37f851c82e70ff6c80c92926a4b)
REM
REM compiler GCC version 9.2.1 20190827 (Red Hat 9.2.1-1)
REM options -cpp -mtune=generic -march=x86-64 -g -O0 -fpre-include=/usr/include/finclude/math-vector-fortran.h
REM seed -455667763 -1319732254 1799509094 1414463252 -1465639611 -1976687919 -623528151 -840954863 -1175147680 618578130 -856977822 599468604 -504869163 2015821490 -1850241095 437531441 -543564090 1462174527 730101681 1838909732 705968272 -219137458 -328022740 439284473 -1784144420 -469030249 -2140165349 1789331617 318605673 -1892633915 571166120 -1898410038 -948889643
REM
CELL 1.54180   50.00000   50.00000   50.00000   90.00000   90.00000   90.00000
LATT -1
SFAC C  
C      1  0.4485250000000  0.4919680000000  0.5502750000000 1.0
C      1  0.4461520000000  0.4366850000000  0.4969520000000 1.0
C      1  0.4305610000000  0.5558590000000  0.4949760000000 1.0
C      1  0.5373270000000  0.4368280000000  0.4543870000000 1.0
C      1  0.5025580000000  0.5415840000000  0.4905410000000 1.0
C      1  0.5502620000000  0.5524480000000  0.5269060000000 1.0
C      1  0.4930550000000  0.5637020000000  0.4472540000000 1.0
C      1  0.4383610000000  0.5081960000000  0.5246030000000 1.0
C      1  0.4914600000000  0.4425220000000  0.5217160000000 1.0
C      1  0.4733780000000  0.4763590000000  0.5107710000000 1.0
C      1  0.5489450000000  0.4965970000000  0.5129770000000 1.0
C      1  0.4528470000000  0.5708590000000  0.5499850000000 1.0
C      1  0.5608230000000  0.5101510000000  0.4432890000000 1.0
C      1  0.4571720000000  0.5420910000000  0.5080030000000 1.0
C      1  0.4757960000000  0.5828800000000  0.5071050000000 1.0
C      1  0.5078460000000  0.5339870000000  0.4388380000000 1.0
C      1  0.5014280000000  0.4804150000000  0.5295820000000 1.0
C      1  0.4624050000000  0.5026120000000  0.4791480000000 1.0
C      1  0.5791430000000  0.4841310000000  0.4543210000000 1.0
C      1  0.4314380000000  0.4863460000000  0.4510540000000 1.0
C      1  0.5203430000000  0.4819630000000  0.4326400000000 1.0
C      1  0.4391770000000  0.4992880000000  0.5758820000000 1.0
C      1  0.4230040000000  0.4982780000000  0.4755150000000 1.0
C      1  0.4009210000000  0.4441380000000  0.5108270000000 1.0
C      1  0.5984910000000  0.4984010000000  0.5272720000000 1.0
C      1  0.4755340000000  0.4739190000000  0.4710300000000 1.0
C      1  0.5256510000000  0.5025990000000  0.5384480000000 1.0
C      1  0.5748970000000  0.5083700000000  0.5409420000000 1.0
C      1  0.5319420000000  0.4860020000000  0.4854750000000 1.0
C      1  0.4567590000000  0.5761840000000  0.4872880000000 1.0
C      1  0.5171800000000  0.4236770000000  0.4912480000000 1.0
C      1  0.4838210000000  0.4604210000000  0.5692180000000 1.0
C      1  0.5209840000000  0.5780160000000  0.4560330000000 1.0
C      1  0.5028530000000  0.5047540000000  0.5058700000000 1.0
C      1  0.5266930000000  0.4865180000000  0.5766770000000 1.0
C      1  0.5395380000000  0.5257850000000  0.4245680000000 1.0
C      1  0.4978160000000  0.5343040000000  0.5723190000000 1.0
C      1  0.5203010000000  0.4665590000000  0.5542670000000 1.0
C      1  0.5183980000000  0.4250340000000  0.5453470000000 1.0
C      1  0.4745300000000  0.4686040000000  0.4407390000000 1.0
C      1  0.4425800000000  0.4870300000000  0.5010630000000 1.0
C      1  0.4736500000000  0.5315320000000  0.4863400000000 1.0
C      1  0.5018370000000  0.4619520000000  0.4319140000000 1.0
C      1  0.4599150000000  0.5275010000000  0.4554950000000 1.0
C      1  0.4915920000000  0.4379440000000  0.5520790000000 1.0
C      1  0.4293570000000  0.4588960000000  0.4409960000000 1.0
C      1  0.4668590000000  0.5477440000000  0.4368190000000 1.0
C      1  0.4918500000000  0.5053990000000  0.4479920000000 1.0
C      1  0.4933950000000  0.5330670000000  0.5221650000000 1.0
C      1  0.5425110000000  0.5726720000000  0.5052090000000 1.0
C      1  0.5786390000000  0.4770270000000  0.4812990000000 1.0
C      1  0.5695570000000  0.5351750000000  0.4578330000000 1.0
C      1  0.5543670000000  0.5534910000000  0.4819830000000 1.0
C      1  0.4661230000000  0.5787500000000  0.4615640000000 1.0
C      1  0.5079790000000  0.4354410000000  0.4454670000000 1.0
C      1  0.4242910000000  0.5223630000000  0.4972250000000 1.0
C      1  0.4548410000000  0.4450250000000  0.4374390000000 1.0
C      1  0.5436340000000  0.4460770000000  0.5485990000000 1.0
C      1  0.4273750000000  0.4598260000000  0.5048970000000 1.0
C      1  0.5586530000000  0.4272300000000  0.4432700000000 1.0
C      1  0.4743340000000  0.4822750000000  0.5500660000000 1.0
C      1  0.4836880000000  0.5629080000000  0.5625450000000 1.0
C      1  0.4201010000000  0.4208410000000  0.5028380000000 1.0
C      1  0.4914650000000  0.4279500000000  0.4737700000000 1.0
C      1  0.5344920000000  0.4521110000000  0.4842440000000 1.0
C      1  0.4414060000000  0.5667240000000  0.5253440000000 1.0
C      1  0.4596360000000  0.4979530000000  0.4398580000000 1.0
C      1  0.5597280000000  0.5273120000000  0.5228900000000 1.0
C      1  0.5798750000000  0.5017240000000  0.4997930000000 1.0
C      1  0.4972610000000  0.4868890000000  0.5824320000000 1.0
C      1  0.5196420000000  0.4556660000000  0.5149830000000 1.0
C      1  0.5140500000000  0.5290070000000  0.5472500000000 1.0
C      1  0.5099030000000  0.5827170000000  0.5075460000000 1.0
C      1  0.5005970000000  0.4923980000000  0.4754940000000 1.0
C      1  0.4754290000000  0.4243600000000  0.4444190000000 1.0
C      1  0.5650560000000  0.4547210000000  0.4989160000000 1.0
C      1  0.5457380000000  0.4340430000000  0.5177790000000 1.0
C      1  0.4592010000000  0.5406440000000  0.5641520000000 1.0
C      1  0.4921390000000  0.5659600000000  0.5306820000000 1.0
C      1  0.5258300000000  0.5456440000000  0.4652360000000 1.0
C      1  0.4562900000000  0.5192870000000  0.5861980000000 1.0
C      1  0.4746460000000  0.4476430000000  0.4926080000000 1.0
C      1  0.4849250000000  0.5129930000000  0.5850150000000 1.0
C      1  0.5277810000000  0.5916520000000  0.4811500000000 1.0
C      1  0.4629630000000  0.5263620000000  0.5358770000000 1.0
C      1  0.5341180000000  0.5525950000000  0.5484650000000 1.0
C      1  0.5394910000000  0.4877910000000  0.4523660000000 1.0
C      1  0.5132340000000  0.5076480000000  0.4180050000000 1.0
C      1  0.5777570000000  0.5292600000000  0.4874060000000 1.0
C      1  0.5599780000000  0.4690780000000  0.5296290000000 1.0
C      1  0.5279240000000  0.5192820000000  0.4866070000000 1.0
C      1  0.5520970000000  0.4908920000000  0.5544900000000 1.0
C      1  0.5219090000000  0.4104880000000  0.5180070000000 1.0
END
