TITL C-2847946-5639-366 0.0122403799631506 125000 -181.721022805226 0 0 32 (C1) n - 1
REM
REM in /home/bkarasulu/work/CARBON/AIRSS/Generating-Clusters/AIREBO/with-SteepDescent/Only-C1/SD-CG-opt/Try1-1.4A-POS3A/HFTN-CG
REM
REM
REM
REM
REM
REM ./C.cell (11c1c37f851c82e70ff6c80c92926a4b)
REM
REM compiler GCC version 9.2.1 20190827 (Red Hat 9.2.1-1)
REM options -cpp -mtune=generic -march=x86-64 -g -O0 -fpre-include=/usr/include/finclude/math-vector-fortran.h
REM seed 1945440895 -1690699229 -475047196 1067055222 -533864644 389133513 -786966820 -1903960869 1283009545 -344517332 -1062646285 -595121668 2041477316 2028247094 2083827936 1509334206 -781441924 -806666850 -813178099 -28207793 -796913622 -1650326736 1634089712 584947794 -194881344 -1932600601 755057554 -1926035976 -1583717765 1648381040 -836016678 2081962511 824758816
REM
CELL 1.54180   50.00000   50.00000   50.00000   90.00000   90.00000   90.00000
LATT -1
SFAC C  
C      1  0.4972700000000  0.5000860000000  0.4084100000000 1.0
C      1  0.5089430000000  0.4636970000000  0.5434640000000 1.0
C      1  0.5096300000000  0.5309090000000  0.4785480000000 1.0
C      1  0.5360050000000  0.4432710000000  0.4859140000000 1.0
C      1  0.5080060000000  0.5255580000000  0.4481340000000 1.0
C      1  0.4958200000000  0.5599470000000  0.5205350000000 1.0
C      1  0.5568070000000  0.4524000000000  0.5021730000000 1.0
C      1  0.4511870000000  0.5310100000000  0.5385310000000 1.0
C      1  0.4627350000000  0.5128810000000  0.4754280000000 1.0
C      1  0.4377150000000  0.4641400000000  0.4837980000000 1.0
C      1  0.4430390000000  0.4460470000000  0.5036850000000 1.0
C      1  0.5125990000000  0.5592270000000  0.4945450000000 1.0
C      1  0.4682900000000  0.4394010000000  0.5143950000000 1.0
C      1  0.4917720000000  0.5073600000000  0.4337430000000 1.0
C      1  0.5069770000000  0.4780180000000  0.5032190000000 1.0
C      1  0.4693660000000  0.4982840000000  0.4477430000000 1.0
C      1  0.5411080000000  0.5624590000000  0.5063440000000 1.0
C      1  0.5534080000000  0.5371300000000  0.5011380000000 1.0
C      1  0.4503500000000  0.4839460000000  0.4700450000000 1.0
C      1  0.4801520000000  0.5280440000000  0.4894720000000 1.0
C      1  0.5493730000000  0.4739670000000  0.5194550000000 1.0
C      1  0.4872520000000  0.4844360000000  0.5286090000000 1.0
C      1  0.5319560000000  0.4925210000000  0.5048550000000 1.0
C      1  0.5365440000000  0.4663910000000  0.5442290000000 1.0
C      1  0.4731440000000  0.5082650000000  0.5353950000000 1.0
C      1  0.5340830000000  0.5173820000000  0.4939230000000 1.0
C      1  0.5093540000000  0.4518730000000  0.4917320000000 1.0
C      1  0.4792410000000  0.4529380000000  0.5364790000000 1.0
C      1  0.5289930000000  0.5862150000000  0.5523590000000 1.0
C      1  0.4882120000000  0.4334590000000  0.4951230000000 1.0
C      1  0.5229850000000  0.5721770000000  0.5305680000000 1.0
C      1  0.4776840000000  0.5365620000000  0.5180070000000 1.0
END
