TITL C-2848503-6230-132 0.00182949002657278 125000 -550.086159698884 0 0 102 (C1) n - 1
REM
REM in /home/bkarasulu/work/CARBON/AIRSS/Generating-Clusters/AIREBO/with-SteepDescent/Only-C1/SD-CG-opt/Try1-1.4A-POS3A/HFTN-CG
REM
REM
REM
REM
REM
REM ./C.cell (11c1c37f851c82e70ff6c80c92926a4b)
REM
REM compiler GCC version 9.2.1 20190827 (Red Hat 9.2.1-1)
REM options -cpp -mtune=generic -march=x86-64 -g -O0 -fpre-include=/usr/include/finclude/math-vector-fortran.h
REM seed 95379660 1444810795 -1476895789 484772428 996592627 1858633882 1252982379 -473171642 -1743682625 2127853011 609155986 -2025039219 -1550960718 -1599726499 522969545 -475495894 -1940977795 1302378710 -1554443376 125897328 1811233208 2126930909 -1634892073 1858274855 1262583122 -460456629 -105186150 1664179472 -1466938853 -1473486423 -322693598 -144947597 -894921687
REM
CELL 1.54180   50.00000   50.00000   50.00000   90.00000   90.00000   90.00000
LATT -1
SFAC C  
C      1  0.5028250000000  0.5225720000000  0.5708360000000 1.0
C      1  0.5326040000000  0.5089580000000  0.5739580000000 1.0
C      1  0.5269560000000  0.5649260000000  0.5597860000000 1.0
C      1  0.4505050000000  0.4720290000000  0.5478800000000 1.0
C      1  0.5007420000000  0.5483670000000  0.5515900000000 1.0
C      1  0.4540700000000  0.4812410000000  0.5168790000000 1.0
C      1  0.5748240000000  0.4806460000000  0.5367980000000 1.0
C      1  0.5905690000000  0.4904760000000  0.5155180000000 1.0
C      1  0.5782470000000  0.5384910000000  0.5257940000000 1.0
C      1  0.5123380000000  0.4272920000000  0.4861470000000 1.0
C      1  0.5307400000000  0.5435180000000  0.4424390000000 1.0
C      1  0.4767200000000  0.4557790000000  0.5226200000000 1.0
C      1  0.5229730000000  0.5763970000000  0.4462870000000 1.0
C      1  0.4934480000000  0.5459970000000  0.4915770000000 1.0
C      1  0.4230950000000  0.5547940000000  0.5283420000000 1.0
C      1  0.4812820000000  0.5860360000000  0.5120540000000 1.0
C      1  0.4553980000000  0.5417890000000  0.4472750000000 1.0
C      1  0.4911100000000  0.4875610000000  0.4926860000000 1.0
C      1  0.4610880000000  0.4243200000000  0.4882620000000 1.0
C      1  0.5394700000000  0.4927790000000  0.4212690000000 1.0
C      1  0.5234460000000  0.4738620000000  0.4651710000000 1.0
C      1  0.5091560000000  0.5074640000000  0.4163460000000 1.0
C      1  0.4465680000000  0.5477440000000  0.5447130000000 1.0
C      1  0.4275980000000  0.4969390000000  0.5035220000000 1.0
C      1  0.5162630000000  0.5350630000000  0.4688630000000 1.0
C      1  0.5491450000000  0.4853780000000  0.4842870000000 1.0
C      1  0.5308630000000  0.4808940000000  0.5884810000000 1.0
C      1  0.4442610000000  0.4261020000000  0.4600860000000 1.0
C      1  0.5638000000000  0.4511880000000  0.4537350000000 1.0
C      1  0.5477510000000  0.5579230000000  0.5428750000000 1.0
C      1  0.5086810000000  0.5581440000000  0.5194530000000 1.0
C      1  0.5253960000000  0.5871220000000  0.4712670000000 1.0
C      1  0.4730810000000  0.5853090000000  0.4801740000000 1.0
C      1  0.5477630000000  0.4643480000000  0.4267640000000 1.0
C      1  0.5601990000000  0.5018530000000  0.5552740000000 1.0
C      1  0.5279840000000  0.4624690000000  0.5397020000000 1.0
C      1  0.5432300000000  0.4178700000000  0.4889080000000 1.0
C      1  0.4923150000000  0.5317640000000  0.5985880000000 1.0
C      1  0.5512960000000  0.5266480000000  0.5394570000000 1.0
C      1  0.5591950000000  0.4585300000000  0.4993460000000 1.0
C      1  0.5714830000000  0.5052950000000  0.4417010000000 1.0
C      1  0.5465370000000  0.4733120000000  0.5639330000000 1.0
C      1  0.4744110000000  0.4198250000000  0.4456590000000 1.0
C      1  0.5413310000000  0.5659150000000  0.5140040000000 1.0
C      1  0.5081100000000  0.4429600000000  0.5276600000000 1.0
C      1  0.5300270000000  0.4408510000000  0.4110120000000 1.0
C      1  0.5027250000000  0.5947560000000  0.4862780000000 1.0
C      1  0.4621130000000  0.5202550000000  0.4224830000000 1.0
C      1  0.4744290000000  0.5347690000000  0.5247710000000 1.0
C      1  0.4707330000000  0.5193300000000  0.4645230000000 1.0
C      1  0.4323890000000  0.4510130000000  0.5312970000000 1.0
C      1  0.5572640000000  0.4614790000000  0.5271100000000 1.0
C      1  0.4415780000000  0.5417200000000  0.5729680000000 1.0
C      1  0.4907750000000  0.4721050000000  0.4558680000000 1.0
C      1  0.5066680000000  0.4240630000000  0.4555640000000 1.0
C      1  0.4455910000000  0.4917020000000  0.4290260000000 1.0
C      1  0.4827080000000  0.4341450000000  0.5458080000000 1.0
C      1  0.5503060000000  0.5229040000000  0.4327250000000 1.0
C      1  0.5282750000000  0.4885300000000  0.5099850000000 1.0
C      1  0.4624600000000  0.4869090000000  0.5669520000000 1.0
C      1  0.4703250000000  0.5877460000000  0.5618850000000 1.0
C      1  0.5137160000000  0.4084460000000  0.5468830000000 1.0
C      1  0.4698000000000  0.4917900000000  0.4493450000000 1.0
C      1  0.4488840000000  0.4970680000000  0.5885600000000 1.0
C      1  0.4472560000000  0.4631410000000  0.4176880000000 1.0
C      1  0.5106260000000  0.4205980000000  0.5710260000000 1.0
C      1  0.4418090000000  0.4379360000000  0.5085030000000 1.0
C      1  0.4923910000000  0.4905040000000  0.5662620000000 1.0
C      1  0.4156940000000  0.4756620000000  0.5264460000000 1.0
C      1  0.5478890000000  0.5779710000000  0.4851870000000 1.0
C      1  0.4332470000000  0.5239340000000  0.4920620000000 1.0
C      1  0.4641580000000  0.5289470000000  0.4945180000000 1.0
C      1  0.5196720000000  0.5018110000000  0.4469010000000 1.0
C      1  0.5280310000000  0.5198150000000  0.5173840000000 1.0
C      1  0.5075270000000  0.4578580000000  0.4905870000000 1.0
C      1  0.4366940000000  0.4538190000000  0.4788780000000 1.0
C      1  0.5046110000000  0.4699660000000  0.5866490000000 1.0
C      1  0.4365140000000  0.5341810000000  0.5968620000000 1.0
C      1  0.5788450000000  0.5321060000000  0.4979510000000 1.0
C      1  0.4215720000000  0.5051320000000  0.4445090000000 1.0
C      1  0.5192900000000  0.5643980000000  0.4179050000000 1.0
C      1  0.4306210000000  0.5255740000000  0.4611910000000 1.0
C      1  0.4668460000000  0.4637660000000  0.4910760000000 1.0
C      1  0.5619590000000  0.5494550000000  0.4841050000000 1.0
C      1  0.4992670000000  0.5084250000000  0.4702060000000 1.0
C      1  0.5106250000000  0.4910200000000  0.5389600000000 1.0
C      1  0.4161890000000  0.4762900000000  0.4816400000000 1.0
C      1  0.5124930000000  0.5910130000000  0.5245880000000 1.0
C      1  0.4746090000000  0.5658450000000  0.5386070000000 1.0
C      1  0.4711250000000  0.5589690000000  0.4693110000000 1.0
C      1  0.5600430000000  0.4385010000000  0.4797790000000 1.0
C      1  0.5240070000000  0.4472090000000  0.4440260000000 1.0
C      1  0.4952550000000  0.5093070000000  0.5167680000000 1.0
C      1  0.4779060000000  0.4461580000000  0.4665720000000 1.0
C      1  0.4860440000000  0.5183050000000  0.4100660000000 1.0
C      1  0.5017550000000  0.4419890000000  0.5858370000000 1.0
C      1  0.5759120000000  0.5039030000000  0.4946780000000 1.0
C      1  0.4596240000000  0.4455830000000  0.4301480000000 1.0
C      1  0.5227680000000  0.4157120000000  0.5161080000000 1.0
C      1  0.5329030000000  0.5399210000000  0.4936840000000 1.0
C      1  0.5675980000000  0.4820080000000  0.4564410000000 1.0
C      1  0.4169940000000  0.5458030000000  0.5058860000000 1.0
END
