TITL C-2848496-4490-589 0.00425227635490529 125000 -677.450597972903 0 0 128 (C1) n - 1
REM
REM in /home/bkarasulu/work/CARBON/AIRSS/Generating-Clusters/AIREBO/with-SteepDescent/Only-C1/SD-CG-opt/Try1-1.4A-POS3A/HFTN-CG
REM
REM
REM
REM
REM
REM ./C.cell (11c1c37f851c82e70ff6c80c92926a4b)
REM
REM compiler GCC version 9.2.1 20190827 (Red Hat 9.2.1-1)
REM options -cpp -mtune=generic -march=x86-64 -g -O0 -fpre-include=/usr/include/finclude/math-vector-fortran.h
REM seed 1891119761 1463147113 764619433 -156825168 1130337921 -1122164488 1573494414 -1540030815 -1279897615 683216209 2036842529 -629539800 1648837262 -238108877 -1072481454 -925404035 1402247860 818679377 -1107530661 -759710984 -431579870 -1441803645 511905484 889507587 -193117005 -1819051386 -2140149926 123964299 -1901871647 -202215557 469611027 1323517321 -1886452007
REM
CELL 1.54180   50.00000   50.00000   50.00000   90.00000   90.00000   90.00000
LATT -1
SFAC C  
C      1  0.5370910000000  0.5754230000000  0.5454540000000 1.0
C      1  0.4223980000000  0.4497450000000  0.4761740000000 1.0
C      1  0.5716710000000  0.5028150000000  0.4353310000000 1.0
C      1  0.4671570000000  0.5344320000000  0.4155380000000 1.0
C      1  0.5289650000000  0.4583200000000  0.6071120000000 1.0
C      1  0.4673540000000  0.5015200000000  0.4820400000000 1.0
C      1  0.4348500000000  0.5309680000000  0.5583180000000 1.0
C      1  0.4900830000000  0.4173910000000  0.5473340000000 1.0
C      1  0.5060370000000  0.5806210000000  0.5332770000000 1.0
C      1  0.4877540000000  0.5217500000000  0.5002350000000 1.0
C      1  0.4619750000000  0.4772770000000  0.6081600000000 1.0
C      1  0.4357940000000  0.5007750000000  0.4934050000000 1.0
C      1  0.4823380000000  0.4713830000000  0.4772100000000 1.0
C      1  0.5655490000000  0.5624220000000  0.5369730000000 1.0
C      1  0.5691210000000  0.4616720000000  0.4668200000000 1.0
C      1  0.5193410000000  0.5118530000000  0.4681250000000 1.0
C      1  0.5372300000000  0.5506140000000  0.4103950000000 1.0
C      1  0.4630060000000  0.4277950000000  0.4518430000000 1.0
C      1  0.4135150000000  0.4850020000000  0.4734760000000 1.0
C      1  0.4353630000000  0.5569190000000  0.4948930000000 1.0
C      1  0.5350270000000  0.5664420000000  0.5749010000000 1.0
C      1  0.4651210000000  0.5002220000000  0.4526390000000 1.0
C      1  0.5436010000000  0.5340760000000  0.5803010000000 1.0
C      1  0.5860610000000  0.5154310000000  0.5276050000000 1.0
C      1  0.5203130000000  0.5306720000000  0.4960690000000 1.0
C      1  0.5582390000000  0.5094420000000  0.4718760000000 1.0
C      1  0.5244050000000  0.4704390000000  0.4992600000000 1.0
C      1  0.5031290000000  0.4439770000000  0.5651400000000 1.0
C      1  0.4104390000000  0.5161850000000  0.5434770000000 1.0
C      1  0.5991890000000  0.4666520000000  0.5381970000000 1.0
C      1  0.5517840000000  0.4446570000000  0.4875180000000 1.0
C      1  0.4571540000000  0.4650280000000  0.4127880000000 1.0
C      1  0.5145920000000  0.3914060000000  0.4987320000000 1.0
C      1  0.5612910000000  0.5553360000000  0.4780050000000 1.0
C      1  0.4113710000000  0.5346540000000  0.4908970000000 1.0
C      1  0.5026220000000  0.4846480000000  0.4210980000000 1.0
C      1  0.4323490000000  0.4935750000000  0.4464850000000 1.0
C      1  0.5659700000000  0.5352220000000  0.5395170000000 1.0
C      1  0.5871890000000  0.5121680000000  0.4739370000000 1.0
C      1  0.4543480000000  0.4657180000000  0.4940040000000 1.0
C      1  0.4322220000000  0.4768590000000  0.5173200000000 1.0
C      1  0.4926620000000  0.5289650000000  0.5797010000000 1.0
C      1  0.5270570000000  0.5248120000000  0.4192630000000 1.0
C      1  0.5014250000000  0.4922500000000  0.5102350000000 1.0
C      1  0.5016560000000  0.5042910000000  0.5581410000000 1.0
C      1  0.5565080000000  0.5061410000000  0.5847400000000 1.0
C      1  0.4147330000000  0.4748190000000  0.5638170000000 1.0
C      1  0.4388960000000  0.4986980000000  0.5653960000000 1.0
C      1  0.5082920000000  0.4164910000000  0.4349810000000 1.0
C      1  0.4490960000000  0.5229670000000  0.5103700000000 1.0
C      1  0.5729170000000  0.5353410000000  0.4452080000000 1.0
C      1  0.4118020000000  0.4885310000000  0.5380210000000 1.0
C      1  0.5279740000000  0.4028030000000  0.5200860000000 1.0
C      1  0.5173250000000  0.4631150000000  0.4074830000000 1.0
C      1  0.5147750000000  0.5391460000000  0.5369030000000 1.0
C      1  0.4593100000000  0.5260410000000  0.5857900000000 1.0
C      1  0.4461980000000  0.4661040000000  0.4609870000000 1.0
C      1  0.4491020000000  0.4523330000000  0.5337580000000 1.0
C      1  0.5287350000000  0.4945360000000  0.5303690000000 1.0
C      1  0.4664020000000  0.4147450000000  0.4970240000000 1.0
C      1  0.5920670000000  0.5436880000000  0.4720720000000 1.0
C      1  0.5411890000000  0.5763180000000  0.4644380000000 1.0
C      1  0.4788190000000  0.4560320000000  0.6074030000000 1.0
C      1  0.4804800000000  0.5522490000000  0.3994930000000 1.0
C      1  0.5405550000000  0.5124500000000  0.4429830000000 1.0
C      1  0.5528000000000  0.5348800000000  0.5018110000000 1.0
C      1  0.5260650000000  0.4340790000000  0.4460970000000 1.0
C      1  0.5488500000000  0.5015410000000  0.5036290000000 1.0
C      1  0.4572660000000  0.4439550000000  0.5656880000000 1.0
C      1  0.5198530000000  0.4789310000000  0.4665030000000 1.0
C      1  0.5426070000000  0.5845500000000  0.5131070000000 1.0
C      1  0.5153720000000  0.4245480000000  0.5325380000000 1.0
C      1  0.4758550000000  0.5718950000000  0.5267510000000 1.0
C      1  0.5242540000000  0.4326690000000  0.4768190000000 1.0
C      1  0.4724780000000  0.4537350000000  0.3919530000000 1.0
C      1  0.5217460000000  0.5590400000000  0.5123750000000 1.0
C      1  0.5084950000000  0.5770970000000  0.4593190000000 1.0
C      1  0.4812380000000  0.4559520000000  0.5442830000000 1.0
C      1  0.5050040000000  0.5102360000000  0.4111200000000 1.0
C      1  0.4713620000000  0.5532980000000  0.5721160000000 1.0
C      1  0.5440910000000  0.4844590000000  0.5954580000000 1.0
C      1  0.5464340000000  0.5519150000000  0.4413380000000 1.0
C      1  0.5036000000000  0.4520540000000  0.5189510000000 1.0
C      1  0.5877550000000  0.5709750000000  0.5209900000000 1.0
C      1  0.4004020000000  0.5143760000000  0.4811510000000 1.0
C      1  0.5399990000000  0.5202050000000  0.5496110000000 1.0
C      1  0.4351180000000  0.5264340000000  0.4548200000000 1.0
C      1  0.5591830000000  0.6116500000000  0.4659070000000 1.0
C      1  0.4873250000000  0.5331660000000  0.4681830000000 1.0
C      1  0.4601160000000  0.5705700000000  0.4521550000000 1.0
C      1  0.5000610000000  0.4498940000000  0.3896640000000 1.0
C      1  0.4612070000000  0.5456140000000  0.5425960000000 1.0
C      1  0.4861910000000  0.4120330000000  0.4522070000000 1.0
C      1  0.4840030000000  0.5849610000000  0.4522740000000 1.0
C      1  0.4994300000000  0.5880870000000  0.5014970000000 1.0
C      1  0.5316520000000  0.4635990000000  0.4383250000000 1.0
C      1  0.5536360000000  0.4640480000000  0.5154620000000 1.0
C      1  0.4928830000000  0.4725050000000  0.4468090000000 1.0
C      1  0.4420680000000  0.4888800000000  0.4152470000000 1.0
C      1  0.5716270000000  0.4786620000000  0.4927830000000 1.0
C      1  0.5029100000000  0.4485810000000  0.5956210000000 1.0
C      1  0.4664860000000  0.4561060000000  0.4403710000000 1.0
C      1  0.4511060000000  0.5137210000000  0.4051080000000 1.0
C      1  0.4561440000000  0.5051260000000  0.5367710000000 1.0
C      1  0.5366090000000  0.4627110000000  0.5750200000000 1.0
C      1  0.4346510000000  0.5574150000000  0.4634280000000 1.0
C      1  0.4971830000000  0.4129030000000  0.4826770000000 1.0
C      1  0.4850530000000  0.5228590000000  0.5341590000000 1.0
C      1  0.5652230000000  0.4981040000000  0.5569890000000 1.0
C      1  0.4716270000000  0.4826580000000  0.5164740000000 1.0
C      1  0.4673250000000  0.5487790000000  0.5032090000000 1.0
C      1  0.5155010000000  0.5441080000000  0.5910670000000 1.0
C      1  0.4413560000000  0.5675470000000  0.5258100000000 1.0
C      1  0.4675780000000  0.4165010000000  0.5283580000000 1.0
C      1  0.5961350000000  0.4976070000000  0.4970640000000 1.0
C      1  0.5179380000000  0.5444960000000  0.4586660000000 1.0
C      1  0.5502390000000  0.5968870000000  0.4899650000000 1.0
C      1  0.4208210000000  0.4459590000000  0.5064770000000 1.0
C      1  0.4365260000000  0.4243110000000  0.5217400000000 1.0
C      1  0.4527210000000  0.4973210000000  0.5937150000000 1.0
C      1  0.4483630000000  0.4276220000000  0.4766510000000 1.0
C      1  0.4948650000000  0.4461920000000  0.4892110000000 1.0
C      1  0.4783620000000  0.4860100000000  0.5506750000000 1.0
C      1  0.5765620000000  0.4830000000000  0.5320840000000 1.0
C      1  0.5859530000000  0.5414640000000  0.5055600000000 1.0
C      1  0.5606480000000  0.4741680000000  0.4432660000000 1.0
C      1  0.5158390000000  0.4735550000000  0.5538980000000 1.0
C      1  0.4652670000000  0.5394180000000  0.4458900000000 1.0
END
