TITL C-2847953-8112-702 -0.000907047303874717 125000 -1017.62050940831 0 0 190 (C1) n - 1
REM
REM in /home/bkarasulu/work/CARBON/AIRSS/Generating-Clusters/AIREBO/with-SteepDescent/Only-C1/SD-CG-opt/Try1-1.4A-POS3A/HFTN-CG
REM
REM
REM
REM
REM
REM ./C.cell (11c1c37f851c82e70ff6c80c92926a4b)
REM
REM compiler GCC version 9.2.1 20190827 (Red Hat 9.2.1-1)
REM options -cpp -mtune=generic -march=x86-64 -g -O0 -fpre-include=/usr/include/finclude/math-vector-fortran.h
REM seed 1031244089 -1944495791 -1580072282 -349495357 306281335 180816525 -1701499999 640867352 2066419624 -2093695716 2088746244 -999231008 1456722244 1165168259 1716493982 -1401981011 1243966699 -2023322792 1287113843 704749972 -672100229 694253984 2099418499 808492433 -1526906206 1406404280 1814154170 370082418 -1211026356 1408062456 -484436967 284579624 564695919
REM
CELL 1.54180   50.00000   50.00000   50.00000   90.00000   90.00000   90.00000
LATT -1
SFAC C  
C      1  0.4597860000000  0.4531650000000  0.5832130000000 1.0
C      1  0.5086660000000  0.5935680000000  0.4254310000000 1.0
C      1  0.4613430000000  0.5753820000000  0.5500590000000 1.0
C      1  0.4280000000000  0.3945610000000  0.4998080000000 1.0
C      1  0.5056760000000  0.5450660000000  0.5757820000000 1.0
C      1  0.5404550000000  0.4930520000000  0.5157580000000 1.0
C      1  0.5167470000000  0.5676230000000  0.3843650000000 1.0
C      1  0.4070530000000  0.5453820000000  0.4484300000000 1.0
C      1  0.4675910000000  0.5032390000000  0.6017260000000 1.0
C      1  0.5103890000000  0.3828840000000  0.5023000000000 1.0
C      1  0.4662560000000  0.4296510000000  0.5558650000000 1.0
C      1  0.5884480000000  0.4837040000000  0.5080020000000 1.0
C      1  0.5105260000000  0.4214280000000  0.4922010000000 1.0
C      1  0.5629740000000  0.5626360000000  0.4530790000000 1.0
C      1  0.4939300000000  0.4434900000000  0.4636890000000 1.0
C      1  0.5438630000000  0.4538840000000  0.5087380000000 1.0
C      1  0.4701660000000  0.4347510000000  0.4866440000000 1.0
C      1  0.4413040000000  0.4066050000000  0.5285330000000 1.0
C      1  0.5967960000000  0.4706470000000  0.5666460000000 1.0
C      1  0.4900480000000  0.5556090000000  0.5020670000000 1.0
C      1  0.5436800000000  0.4209510000000  0.4845750000000 1.0
C      1  0.4460510000000  0.5383550000000  0.5143060000000 1.0
C      1  0.4414660000000  0.4484600000000  0.4218280000000 1.0
C      1  0.5175520000000  0.5702880000000  0.6175020000000 1.0
C      1  0.5008620000000  0.5078050000000  0.5378430000000 1.0
C      1  0.5534280000000  0.5587190000000  0.5542160000000 1.0
C      1  0.4764630000000  0.6200570000000  0.5234960000000 1.0
C      1  0.5485150000000  0.5199010000000  0.5269830000000 1.0
C      1  0.5079330000000  0.5239520000000  0.4622950000000 1.0
C      1  0.6060850000000  0.4490090000000  0.4995370000000 1.0
C      1  0.5802640000000  0.5044180000000  0.4840600000000 1.0
C      1  0.5072820000000  0.3851350000000  0.5301980000000 1.0
C      1  0.5400000000000  0.4916660000000  0.4113450000000 1.0
C      1  0.5964020000000  0.4345520000000  0.5229630000000 1.0
C      1  0.3639350000000  0.5031590000000  0.4648610000000 1.0
C      1  0.5449240000000  0.5968720000000  0.5458500000000 1.0
C      1  0.4973670000000  0.4342220000000  0.5208190000000 1.0
C      1  0.4873350000000  0.4098340000000  0.5416460000000 1.0
C      1  0.4085320000000  0.4816210000000  0.5192470000000 1.0
C      1  0.4304760000000  0.4368180000000  0.4591960000000 1.0
C      1  0.4148760000000  0.4914220000000  0.5794190000000 1.0
C      1  0.5638690000000  0.5884580000000  0.4717130000000 1.0
C      1  0.3890560000000  0.4643370000000  0.4973840000000 1.0
C      1  0.5613340000000  0.4765200000000  0.4796290000000 1.0
C      1  0.4406490000000  0.4789720000000  0.4317310000000 1.0
C      1  0.4374300000000  0.5322260000000  0.5580580000000 1.0
C      1  0.5147640000000  0.5121120000000  0.4345380000000 1.0
C      1  0.5157870000000  0.4790520000000  0.5275150000000 1.0
C      1  0.5199460000000  0.4258360000000  0.4528660000000 1.0
C      1  0.5479630000000  0.4441490000000  0.5410570000000 1.0
C      1  0.5858920000000  0.5443000000000  0.4649880000000 1.0
C      1  0.4354350000000  0.5712110000000  0.5661450000000 1.0
C      1  0.5267210000000  0.4655630000000  0.5567520000000 1.0
C      1  0.4483590000000  0.5165040000000  0.4430160000000 1.0
C      1  0.5705710000000  0.4513670000000  0.4135780000000 1.0
C      1  0.5342330000000  0.4462110000000  0.6180240000000 1.0
C      1  0.5134120000000  0.5460100000000  0.4297300000000 1.0
C      1  0.4858930000000  0.5317990000000  0.5514690000000 1.0
C      1  0.5401020000000  0.5624110000000  0.3711080000000 1.0
C      1  0.5261080000000  0.5511750000000  0.5988230000000 1.0
C      1  0.4866800000000  0.3984740000000  0.4843670000000 1.0
C      1  0.4835040000000  0.6012960000000  0.5509660000000 1.0
C      1  0.4848200000000  0.4822130000000  0.4652090000000 1.0
C      1  0.4886070000000  0.5828310000000  0.5166440000000 1.0
C      1  0.5676570000000  0.4445890000000  0.4895170000000 1.0
C      1  0.5478680000000  0.4371900000000  0.4549830000000 1.0
C      1  0.5067700000000  0.4698100000000  0.4076020000000 1.0
C      1  0.4766330000000  0.4946590000000  0.5179350000000 1.0
C      1  0.5338850000000  0.5250910000000  0.4810630000000 1.0
C      1  0.4841720000000  0.4605980000000  0.4390630000000 1.0
C      1  0.4408260000000  0.4942440000000  0.6009890000000 1.0
C      1  0.4655400000000  0.4983010000000  0.4234070000000 1.0
C      1  0.4268260000000  0.4238020000000  0.4855800000000 1.0
C      1  0.4325810000000  0.5903300000000  0.5062550000000 1.0
C      1  0.4596190000000  0.5357190000000  0.3928590000000 1.0
C      1  0.4760070000000  0.4588420000000  0.5471750000000 1.0
C      1  0.4612030000000  0.5169270000000  0.5647810000000 1.0
C      1  0.5626860000000  0.5387320000000  0.4075750000000 1.0
C      1  0.6163280000000  0.5118020000000  0.5044100000000 1.0
C      1  0.3932090000000  0.5198370000000  0.4661320000000 1.0
C      1  0.5016820000000  0.4476350000000  0.5581340000000 1.0
C      1  0.5654100000000  0.4753140000000  0.5195150000000 1.0
C      1  0.5600490000000  0.5306370000000  0.5943230000000 1.0
C      1  0.5773040000000  0.4414650000000  0.4431040000000 1.0
C      1  0.4936350000000  0.5722140000000  0.4725960000000 1.0
C      1  0.4164960000000  0.4419150000000  0.5621630000000 1.0
C      1  0.5400200000000  0.6041180000000  0.4708100000000 1.0
C      1  0.4377110000000  0.5123020000000  0.4939340000000 1.0
C      1  0.5470750000000  0.5506910000000  0.4286530000000 1.0
C      1  0.4744700000000  0.5115920000000  0.3962740000000 1.0
C      1  0.5792250000000  0.5414120000000  0.5402310000000 1.0
C      1  0.5341310000000  0.5207250000000  0.6116970000000 1.0
C      1  0.4689380000000  0.5148560000000  0.4915140000000 1.0
C      1  0.4552110000000  0.4692840000000  0.5252710000000 1.0
C      1  0.4120550000000  0.5768090000000  0.5494090000000 1.0
C      1  0.5852610000000  0.5235380000000  0.5117750000000 1.0
C      1  0.5281690000000  0.5858280000000  0.5109830000000 1.0
C      1  0.4768200000000  0.6143500000000  0.4930280000000 1.0
C      1  0.4388130000000  0.5802350000000  0.4779880000000 1.0
C      1  0.5799820000000  0.4109160000000  0.5189700000000 1.0
C      1  0.6045070000000  0.5016930000000  0.4629570000000 1.0
C      1  0.4909960000000  0.4654300000000  0.5081480000000 1.0
C      1  0.5516580000000  0.4167400000000  0.5608400000000 1.0
C      1  0.5366890000000  0.5111660000000  0.5791200000000 1.0
C      1  0.5238630000000  0.3986480000000  0.5567930000000 1.0
C      1  0.5557880000000  0.5583690000000  0.5841790000000 1.0
C      1  0.4733320000000  0.4115320000000  0.4325730000000 1.0
C      1  0.5729530000000  0.4931690000000  0.5713020000000 1.0
C      1  0.5532570000000  0.4137160000000  0.5151350000000 1.0
C      1  0.6057940000000  0.5426270000000  0.4925350000000 1.0
C      1  0.4597090000000  0.4058930000000  0.4995580000000 1.0
C      1  0.4778390000000  0.3940200000000  0.4535450000000 1.0
C      1  0.4668530000000  0.4385730000000  0.4266120000000 1.0
C      1  0.4464040000000  0.5497180000000  0.4835090000000 1.0
C      1  0.4256600000000  0.5153500000000  0.4668080000000 1.0
C      1  0.4089630000000  0.5204330000000  0.5702980000000 1.0
C      1  0.4914310000000  0.4908690000000  0.5851570000000 1.0
C      1  0.5810720000000  0.4479960000000  0.5468370000000 1.0
C      1  0.5205670000000  0.4646360000000  0.4641280000000 1.0
C      1  0.4064870000000  0.4728190000000  0.5520650000000 1.0
C      1  0.5109870000000  0.4349720000000  0.5993020000000 1.0
C      1  0.4997290000000  0.5034350000000  0.4866440000000 1.0
C      1  0.4140590000000  0.5660420000000  0.5060130000000 1.0
C      1  0.4375450000000  0.4832550000000  0.5015810000000 1.0
C      1  0.5672940000000  0.5788860000000  0.5326090000000 1.0
C      1  0.5205380000000  0.5579320000000  0.5503100000000 1.0
C      1  0.4365170000000  0.4814320000000  0.5477510000000 1.0
C      1  0.4742630000000  0.5971830000000  0.4718760000000 1.0
C      1  0.5243950000000  0.4831950000000  0.3830420000000 1.0
C      1  0.5737100000000  0.4802930000000  0.4295440000000 1.0
C      1  0.4186080000000  0.5000060000000  0.4221670000000 1.0
C      1  0.4502200000000  0.5909680000000  0.4492180000000 1.0
C      1  0.4426880000000  0.5504690000000  0.4104570000000 1.0
C      1  0.4300780000000  0.4610760000000  0.5815280000000 1.0
C      1  0.4935960000000  0.4976580000000  0.3822930000000 1.0
C      1  0.5319510000000  0.6088730000000  0.4971800000000 1.0
C      1  0.4113250000000  0.4453370000000  0.5030990000000 1.0
C      1  0.5259140000000  0.4202930000000  0.5308800000000 1.0
C      1  0.6007430000000  0.4820320000000  0.4446840000000 1.0
C      1  0.4447790000000  0.4417710000000  0.5081870000000 1.0
C      1  0.5929990000000  0.4429190000000  0.4690030000000 1.0
C      1  0.4191360000000  0.4315070000000  0.4322850000000 1.0
C      1  0.4513810000000  0.4117200000000  0.5878570000000 1.0
C      1  0.5156360000000  0.5913020000000  0.4550500000000 1.0
C      1  0.4901880000000  0.5479060000000  0.4545830000000 1.0
C      1  0.6120270000000  0.5276390000000  0.4560540000000 1.0
C      1  0.5477790000000  0.5091650000000  0.4395040000000 1.0
C      1  0.4195350000000  0.5477490000000  0.5334090000000 1.0
C      1  0.4634690000000  0.4830840000000  0.5674640000000 1.0
C      1  0.5374430000000  0.4532870000000  0.5865330000000 1.0
C      1  0.4192420000000  0.5761660000000  0.4510590000000 1.0
C      1  0.5321900000000  0.5654440000000  0.4646580000000 1.0
C      1  0.4712350000000  0.5496600000000  0.5301150000000 1.0
C      1  0.6188960000000  0.4799020000000  0.5045420000000 1.0
C      1  0.4644600000000  0.5329600000000  0.4641250000000 1.0
C      1  0.4360830000000  0.4181790000000  0.5581530000000 1.0
C      1  0.4792950000000  0.5304270000000  0.5902090000000 1.0
C      1  0.4648680000000  0.4683390000000  0.4865120000000 1.0
C      1  0.4958820000000  0.4896920000000  0.4275960000000 1.0
C      1  0.3964130000000  0.5252300000000  0.5394200000000 1.0
C      1  0.3869820000000  0.4951120000000  0.4886350000000 1.0
C      1  0.5456800000000  0.4620810000000  0.4001920000000 1.0
C      1  0.5600730000000  0.5437200000000  0.5045750000000 1.0
C      1  0.5654300000000  0.4602190000000  0.5750180000000 1.0
C      1  0.5189320000000  0.4531180000000  0.4931760000000 1.0
C      1  0.5307270000000  0.4906770000000  0.4834940000000 1.0
C      1  0.5127000000000  0.5875860000000  0.5401790000000 1.0
C      1  0.5680810000000  0.5762840000000  0.4989570000000 1.0
C      1  0.5614450000000  0.5175380000000  0.5566800000000 1.0
C      1  0.5507620000000  0.4706030000000  0.4493830000000 1.0
C      1  0.5676400000000  0.5092270000000  0.4127360000000 1.0
C      1  0.5263430000000  0.5407640000000  0.5256980000000 1.0
C      1  0.5010080000000  0.4177840000000  0.5717060000000 1.0
C      1  0.3921270000000  0.5110900000000  0.5165040000000 1.0
C      1  0.4455020000000  0.4610750000000  0.4595080000000 1.0
C      1  0.4451740000000  0.5755390000000  0.4206660000000 1.0
C      1  0.4127900000000  0.5504140000000  0.4806650000000 1.0
C      1  0.4239030000000  0.5479250000000  0.5843640000000 1.0
C      1  0.5296180000000  0.5556790000000  0.4953130000000 1.0
C      1  0.5623780000000  0.5512400000000  0.3826850000000 1.0
C      1  0.5095650000000  0.5705360000000  0.4110060000000 1.0
C      1  0.5152200000000  0.4954090000000  0.5666540000000 1.0
C      1  0.5930960000000  0.5622580000000  0.5172220000000 1.0
C      1  0.5205810000000  0.3986810000000  0.4564130000000 1.0
C      1  0.4569620000000  0.5932910000000  0.5224490000000 1.0
C      1  0.4246170000000  0.5319990000000  0.4274040000000 1.0
C      1  0.5318740000000  0.3891050000000  0.4825680000000 1.0
C      1  0.5597970000000  0.5225040000000  0.4642640000000 1.0
C      1  0.4775420000000  0.4281500000000  0.5940260000000 1.0
C      1  0.5036850000000  0.5267370000000  0.5097350000000 1.0
END
