TITL C-2848501-3133-367 0.000210197281015066 125000 -243.099828832906 0 0 45 (C1) n - 1
REM
REM in /home/bkarasulu/work/CARBON/AIRSS/Generating-Clusters/AIREBO/with-SteepDescent/Only-C1/SD-CG-opt/Try1-1.4A-POS3A/HFTN-CG
REM
REM
REM
REM
REM
REM ./C.cell (11c1c37f851c82e70ff6c80c92926a4b)
REM
REM compiler GCC version 9.2.1 20190827 (Red Hat 9.2.1-1)
REM options -cpp -mtune=generic -march=x86-64 -g -O0 -fpre-include=/usr/include/finclude/math-vector-fortran.h
REM seed -259614854 -330448702 -82855365 1190429602 663967094 -1223519282 -1080845491 1741859022 783362184 -1286902300 1261170757 -1768881983 -2036407762 -1413140737 -1534913041 -963060699 1446866733 -313491505 -1176270154 -14663342 36580719 454910983 -2080390926 -1907364236 -990274936 368580076 -2142630025 1979837749 618655167 -1821968555 -406422031 264023497 -441862992
REM
CELL 1.54180   50.00000   50.00000   50.00000   90.00000   90.00000   90.00000
LATT -1
SFAC C  
C      1  0.5571250000000  0.5175910000000  0.4694900000000 1.0
C      1  0.5621850000000  0.5460420000000  0.5054330000000 1.0
C      1  0.4828820000000  0.5354420000000  0.5442910000000 1.0
C      1  0.4756770000000  0.5144130000000  0.5686030000000 1.0
C      1  0.4488940000000  0.4537640000000  0.5282860000000 1.0
C      1  0.4397190000000  0.5612500000000  0.5090090000000 1.0
C      1  0.4745190000000  0.4650070000000  0.4876460000000 1.0
C      1  0.5400490000000  0.4212050000000  0.4927070000000 1.0
C      1  0.4889750000000  0.5463910000000  0.4694230000000 1.0
C      1  0.4476160000000  0.5360980000000  0.4908080000000 1.0
C      1  0.4771510000000  0.4347640000000  0.4975870000000 1.0
C      1  0.5110080000000  0.4977440000000  0.4627540000000 1.0
C      1  0.5226620000000  0.5228870000000  0.5063620000000 1.0
C      1  0.4865510000000  0.4564060000000  0.4507150000000 1.0
C      1  0.4917800000000  0.5625820000000  0.4961390000000 1.0
C      1  0.5508780000000  0.5080310000000  0.4446970000000 1.0
C      1  0.5287630000000  0.4445330000000  0.4817800000000 1.0
C      1  0.5342930000000  0.4809100000000  0.4444920000000 1.0
C      1  0.4589220000000  0.4652230000000  0.4592390000000 1.0
C      1  0.5493080000000  0.5414910000000  0.4814120000000 1.0
C      1  0.4981600000000  0.5108260000000  0.5264720000000 1.0
C      1  0.5132810000000  0.5451550000000  0.5539180000000 1.0
C      1  0.5373580000000  0.5390020000000  0.5527550000000 1.0
C      1  0.5183440000000  0.5456610000000  0.4853230000000 1.0
C      1  0.5135360000000  0.4951250000000  0.4931810000000 1.0
C      1  0.5486970000000  0.5276390000000  0.5270630000000 1.0
C      1  0.5708100000000  0.4684780000000  0.4733440000000 1.0
C      1  0.5477820000000  0.4589660000000  0.4603290000000 1.0
C      1  0.4853650000000  0.4861930000000  0.5068220000000 1.0
C      1  0.4706900000000  0.4740790000000  0.5343100000000 1.0
C      1  0.4684950000000  0.5611310000000  0.5534700000000 1.0
C      1  0.5239580000000  0.4981700000000  0.5377520000000 1.0
C      1  0.4713890000000  0.5584200000000  0.5137280000000 1.0
C      1  0.4635580000000  0.5345800000000  0.4677560000000 1.0
C      1  0.5637820000000  0.4950990000000  0.4891070000000 1.0
C      1  0.4315480000000  0.4786870000000  0.5247270000000 1.0
C      1  0.4348010000000  0.4700390000000  0.4496980000000 1.0
C      1  0.5482420000000  0.4951070000000  0.5192080000000 1.0
C      1  0.4585020000000  0.4298800000000  0.5168070000000 1.0
C      1  0.4436100000000  0.5033810000000  0.5337590000000 1.0
C      1  0.4623410000000  0.4934470000000  0.5556290000000 1.0
C      1  0.4995840000000  0.4415500000000  0.4749460000000 1.0
C      1  0.4579900000000  0.5282990000000  0.5222350000000 1.0
C      1  0.5368930000000  0.4728640000000  0.4961320000000 1.0
C      1  0.5023260000000  0.4764480000000  0.4406600000000 1.0
END
