TITL C-2847944-5688-485 0.00342745534312777 125000 -985.347766203456 0 0 185 (C1) n - 1
REM
REM in /home/bkarasulu/work/CARBON/AIRSS/Generating-Clusters/AIREBO/with-SteepDescent/Only-C1/SD-CG-opt/Try1-1.4A-POS3A/HFTN-CG
REM
REM
REM
REM
REM
REM ./C.cell (11c1c37f851c82e70ff6c80c92926a4b)
REM
REM compiler GCC version 9.2.1 20190827 (Red Hat 9.2.1-1)
REM options -cpp -mtune=generic -march=x86-64 -g -O0 -fpre-include=/usr/include/finclude/math-vector-fortran.h
REM seed 663277595 1209797335 -116920520 707404471 -819537580 -1539177337 1690128138 -1900538450 -1238379576 -900563594 -1378633866 2059171599 -296464320 -216874917 -1141855798 1778457675 1730166108 1836330031 280133411 242460190 -1374857349 1172709562 -1091707495 1780074953 360227587 -375108197 -58106501 3576305 -893842441 372890380 1320379937 -632087649 1981466952
REM
CELL 1.54180   50.00000   50.00000   50.00000   90.00000   90.00000   90.00000
LATT -1
SFAC C  
C      1  0.4711840000000  0.4240390000000  0.5079460000000 1.0
C      1  0.5284730000000  0.4643470000000  0.4578880000000 1.0
C      1  0.4906420000000  0.5810540000000  0.4299540000000 1.0
C      1  0.5176020000000  0.5687100000000  0.5887990000000 1.0
C      1  0.4740890000000  0.4372100000000  0.5902920000000 1.0
C      1  0.5641120000000  0.4315070000000  0.5529200000000 1.0
C      1  0.4347310000000  0.5450940000000  0.4613450000000 1.0
C      1  0.4320710000000  0.5764680000000  0.4367490000000 1.0
C      1  0.5881040000000  0.4852570000000  0.5591400000000 1.0
C      1  0.4987180000000  0.4305470000000  0.5793380000000 1.0
C      1  0.5382910000000  0.4142750000000  0.4681110000000 1.0
C      1  0.5434000000000  0.4268560000000  0.4405830000000 1.0
C      1  0.5299180000000  0.4943870000000  0.4136980000000 1.0
C      1  0.5552980000000  0.5606000000000  0.4900910000000 1.0
C      1  0.4857240000000  0.4930290000000  0.6003100000000 1.0
C      1  0.4578670000000  0.5783110000000  0.5509770000000 1.0
C      1  0.4745000000000  0.3923360000000  0.4958090000000 1.0
C      1  0.4578310000000  0.4503890000000  0.4909490000000 1.0
C      1  0.6242090000000  0.4910900000000  0.4406440000000 1.0
C      1  0.5003800000000  0.4934340000000  0.5089660000000 1.0
C      1  0.5310380000000  0.5540160000000  0.5102180000000 1.0
C      1  0.6135120000000  0.4800870000000  0.5366780000000 1.0
C      1  0.5506430000000  0.5002950000000  0.4720890000000 1.0
C      1  0.4874980000000  0.4668730000000  0.4933800000000 1.0
C      1  0.4811810000000  0.5171040000000  0.4354570000000 1.0
C      1  0.6037690000000  0.4924930000000  0.4572960000000 1.0
C      1  0.5164770000000  0.4540170000000  0.4879840000000 1.0
C      1  0.5680380000000  0.4538780000000  0.4982060000000 1.0
C      1  0.5899080000000  0.5140650000000  0.5693540000000 1.0
C      1  0.5567270000000  0.5470980000000  0.4519370000000 1.0
C      1  0.4571990000000  0.5407640000000  0.5647670000000 1.0
C      1  0.4330710000000  0.4200430000000  0.5190710000000 1.0
C      1  0.5592310000000  0.4843100000000  0.5081190000000 1.0
C      1  0.4979290000000  0.4896960000000  0.4242960000000 1.0
C      1  0.4958870000000  0.4401470000000  0.4171920000000 1.0
C      1  0.4238260000000  0.5159250000000  0.5252330000000 1.0
C      1  0.4776130000000  0.4866680000000  0.5542790000000 1.0
C      1  0.4823470000000  0.4310470000000  0.4537120000000 1.0
C      1  0.5630190000000  0.4771070000000  0.5749110000000 1.0
C      1  0.5647420000000  0.5309130000000  0.4766240000000 1.0
C      1  0.5027260000000  0.4130460000000  0.5143770000000 1.0
C      1  0.5390090000000  0.5746700000000  0.5360350000000 1.0
C      1  0.4760100000000  0.5949550000000  0.4707060000000 1.0
C      1  0.5135920000000  0.4758990000000  0.3902730000000 1.0
C      1  0.5368020000000  0.5151330000000  0.5181860000000 1.0
C      1  0.5958780000000  0.5455900000000  0.4577820000000 1.0
C      1  0.5517450000000  0.4935630000000  0.6018750000000 1.0
C      1  0.3920810000000  0.5373770000000  0.5911230000000 1.0
C      1  0.5440140000000  0.5839580000000  0.4589420000000 1.0
C      1  0.4517540000000  0.5010180000000  0.4387530000000 1.0
C      1  0.5392210000000  0.4589970000000  0.3982230000000 1.0
C      1  0.4659020000000  0.5881720000000  0.5001690000000 1.0
C      1  0.4531710000000  0.4263000000000  0.4673890000000 1.0
C      1  0.4941930000000  0.5251270000000  0.3944820000000 1.0
C      1  0.4407800000000  0.4684470000000  0.5141190000000 1.0
C      1  0.4672440000000  0.4225660000000  0.4172060000000 1.0
C      1  0.4707140000000  0.4090310000000  0.5379820000000 1.0
C      1  0.4308840000000  0.5526670000000  0.5653850000000 1.0
C      1  0.5150400000000  0.5817590000000  0.4429460000000 1.0
C      1  0.5943360000000  0.4454400000000  0.4261780000000 1.0
C      1  0.5173070000000  0.4143220000000  0.4227320000000 1.0
C      1  0.4730110000000  0.6011320000000  0.5500590000000 1.0
C      1  0.6036780000000  0.4705320000000  0.4833070000000 1.0
C      1  0.5707070000000  0.5304950000000  0.5589710000000 1.0
C      1  0.4968600000000  0.5477070000000  0.5620990000000 1.0
C      1  0.4702660000000  0.4624720000000  0.6049430000000 1.0
C      1  0.4757220000000  0.5620700000000  0.4617410000000 1.0
C      1  0.4019870000000  0.4991610000000  0.4837980000000 1.0
C      1  0.4525990000000  0.4672370000000  0.4348590000000 1.0
C      1  0.5598390000000  0.4677660000000  0.4682700000000 1.0
C      1  0.5815990000000  0.4754500000000  0.5289680000000 1.0
C      1  0.4819990000000  0.5091750000000  0.4673610000000 1.0
C      1  0.4922620000000  0.6050430000000  0.5248740000000 1.0
C      1  0.5473480000000  0.5896180000000  0.5064830000000 1.0
C      1  0.4952450000000  0.5150910000000  0.5507820000000 1.0
C      1  0.4621460000000  0.5570890000000  0.5287420000000 1.0
C      1  0.4390510000000  0.4636880000000  0.4658620000000 1.0
C      1  0.5245340000000  0.4605360000000  0.5359120000000 1.0
C      1  0.5021560000000  0.6065030000000  0.4715060000000 1.0
C      1  0.5745930000000  0.5710980000000  0.4503330000000 1.0
C      1  0.4338850000000  0.5459340000000  0.5128090000000 1.0
C      1  0.4990080000000  0.4096770000000  0.4465280000000 1.0
C      1  0.5218960000000  0.5834910000000  0.4847850000000 1.0
C      1  0.4203380000000  0.4905040000000  0.4385160000000 1.0
C      1  0.4036850000000  0.5220030000000  0.5022190000000 1.0
C      1  0.5167750000000  0.4550010000000  0.5745440000000 1.0
C      1  0.4407160000000  0.4066580000000  0.5485360000000 1.0
C      1  0.4376110000000  0.5907870000000  0.5193210000000 1.0
C      1  0.4284490000000  0.4928450000000  0.4704290000000 1.0
C      1  0.4658180000000  0.5241500000000  0.5363430000000 1.0
C      1  0.4291580000000  0.4845360000000  0.3935800000000 1.0
C      1  0.4104980000000  0.4834200000000  0.4147130000000 1.0
C      1  0.3806770000000  0.4844680000000  0.4804550000000 1.0
C      1  0.5087600000000  0.5179340000000  0.6029500000000 1.0
C      1  0.4403560000000  0.4694120000000  0.5977750000000 1.0
C      1  0.4126820000000  0.5619090000000  0.5310980000000 1.0
C      1  0.4888020000000  0.5222850000000  0.5113480000000 1.0
C      1  0.4178400000000  0.4424130000000  0.4763720000000 1.0
C      1  0.5455310000000  0.4531320000000  0.5616250000000 1.0
C      1  0.5539140000000  0.4133100000000  0.5297780000000 1.0
C      1  0.4857240000000  0.4623610000000  0.4408640000000 1.0
C      1  0.4265640000000  0.4493570000000  0.5831280000000 1.0
C      1  0.5262750000000  0.4524960000000  0.4270280000000 1.0
C      1  0.4451710000000  0.5342170000000  0.4367600000000 1.0
C      1  0.5121750000000  0.4937190000000  0.4646610000000 1.0
C      1  0.4740720000000  0.5506960000000  0.4297400000000 1.0
C      1  0.5817040000000  0.5151340000000  0.4517380000000 1.0
C      1  0.5453060000000  0.5676730000000  0.3972870000000 1.0
C      1  0.5329480000000  0.4907230000000  0.5667600000000 1.0
C      1  0.5033260000000  0.3904970000000  0.4906610000000 1.0
C      1  0.5326990000000  0.5527250000000  0.4138450000000 1.0
C      1  0.5289460000000  0.5218000000000  0.4870720000000 1.0
C      1  0.4450860000000  0.4401100000000  0.5442160000000 1.0
C      1  0.5702630000000  0.5131900000000  0.5223080000000 1.0
C      1  0.4130800000000  0.4642730000000  0.5333890000000 1.0
C      1  0.5162710000000  0.5503150000000  0.4797990000000 1.0
C      1  0.5792590000000  0.5447520000000  0.5311770000000 1.0
C      1  0.6018420000000  0.5391960000000  0.4888990000000 1.0
C      1  0.5183590000000  0.5253160000000  0.4122250000000 1.0
C      1  0.4512430000000  0.5008510000000  0.5162520000000 1.0
C      1  0.5572610000000  0.4832590000000  0.3952040000000 1.0
C      1  0.5657870000000  0.5683030000000  0.5484150000000 1.0
C      1  0.5819780000000  0.4446050000000  0.5280390000000 1.0
C      1  0.4790450000000  0.5480300000000  0.3977630000000 1.0
C      1  0.4772670000000  0.5002780000000  0.3994510000000 1.0
C      1  0.4476820000000  0.4335940000000  0.4346360000000 1.0
C      1  0.6035880000000  0.4297800000000  0.5482370000000 1.0
C      1  0.4503330000000  0.5374930000000  0.4856150000000 1.0
C      1  0.5777090000000  0.5815630000000  0.5673780000000 1.0
C      1  0.5289620000000  0.4839310000000  0.4925980000000 1.0
C      1  0.4526270000000  0.5063990000000  0.4842790000000 1.0
C      1  0.5150290000000  0.3989930000000  0.4675210000000 1.0
C      1  0.5786880000000  0.5832290000000  0.4999450000000 1.0
C      1  0.4359220000000  0.5328110000000  0.4056370000000 1.0
C      1  0.4459800000000  0.5092310000000  0.3938820000000 1.0
C      1  0.3796440000000  0.5461590000000  0.5017920000000 1.0
C      1  0.4976040000000  0.5444420000000  0.5941790000000 1.0
C      1  0.5006460000000  0.4103780000000  0.5540560000000 1.0
C      1  0.4841810000000  0.5395380000000  0.4830470000000 1.0
C      1  0.5959960000000  0.4372300000000  0.4883440000000 1.0
C      1  0.4176050000000  0.5719770000000  0.4651880000000 1.0
C      1  0.4961490000000  0.4637330000000  0.5514170000000 1.0
C      1  0.4486720000000  0.4293890000000  0.5762830000000 1.0
C      1  0.4068560000000  0.4527740000000  0.5641520000000 1.0
C      1  0.5463330000000  0.4280420000000  0.4934720000000 1.0
C      1  0.4153750000000  0.5329940000000  0.5785600000000 1.0
C      1  0.5409950000000  0.5238290000000  0.5634560000000 1.0
C      1  0.4680810000000  0.5390250000000  0.5907950000000 1.0
C      1  0.5211990000000  0.5171570000000  0.4451160000000 1.0
C      1  0.4956910000000  0.5509670000000  0.5282610000000 1.0
C      1  0.5228900000000  0.4378920000000  0.5132290000000 1.0
C      1  0.4303020000000  0.4214830000000  0.4921060000000 1.0
C      1  0.5749830000000  0.4149490000000  0.5031400000000 1.0
C      1  0.5975280000000  0.4491290000000  0.4576150000000 1.0
C      1  0.5921700000000  0.5583840000000  0.5077950000000 1.0
C      1  0.4582120000000  0.4914210000000  0.5803700000000 1.0
C      1  0.4265880000000  0.5829710000000  0.5505460000000 1.0
C      1  0.4762530000000  0.4770560000000  0.4675800000000 1.0
C      1  0.5038780000000  0.6020600000000  0.5539320000000 1.0
C      1  0.5262260000000  0.5501130000000  0.4472720000000 1.0
C      1  0.3828770000000  0.4578150000000  0.5427210000000 1.0
C      1  0.5367020000000  0.4756540000000  0.6199700000000 1.0
C      1  0.6120830000000  0.4887770000000  0.5068770000000 1.0
C      1  0.4283190000000  0.5075180000000  0.5766840000000 1.0
C      1  0.4595590000000  0.5854100000000  0.4430300000000 1.0
C      1  0.4848750000000  0.4381530000000  0.5426360000000 1.0
C      1  0.5156800000000  0.4786450000000  0.5937880000000 1.0
C      1  0.5166240000000  0.5752340000000  0.5566690000000 1.0
C      1  0.4645820000000  0.5180810000000  0.6093710000000 1.0
C      1  0.5368280000000  0.5172390000000  0.5959010000000 1.0
C      1  0.4583450000000  0.4721150000000  0.4016930000000 1.0
C      1  0.4275030000000  0.5617730000000  0.4139940000000 1.0
C      1  0.5667530000000  0.4466700000000  0.4441490000000 1.0
C      1  0.4338630000000  0.5848410000000  0.4892470000000 1.0
C      1  0.4493960000000  0.4738200000000  0.5455720000000 1.0
C      1  0.4294960000000  0.4971760000000  0.5494880000000 1.0
C      1  0.5274680000000  0.4049820000000  0.5353610000000 1.0
C      1  0.6000310000000  0.5140410000000  0.5055960000000 1.0
C      1  0.5519540000000  0.5043320000000  0.4383490000000 1.0
C      1  0.4975970000000  0.5784630000000  0.5080780000000 1.0
C      1  0.4889810000000  0.4623530000000  0.3946260000000 1.0
C      1  0.5903960000000  0.4190220000000  0.5704080000000 1.0
C      1  0.5254940000000  0.5371980000000  0.5372140000000 1.0
C      1  0.4090930000000  0.5535120000000  0.4906420000000 1.0
C      1  0.5180670000000  0.4939210000000  0.5370510000000 1.0
END
