TITL C-2847948-6138-76 -0.000768177254191264 125000 -431.552007673397 0 0 80 (C1) n - 1
REM
REM in /home/bkarasulu/work/CARBON/AIRSS/Generating-Clusters/AIREBO/with-SteepDescent/Only-C1/SD-CG-opt/Try1-1.4A-POS3A/HFTN-CG
REM
REM
REM
REM
REM
REM ./C.cell (11c1c37f851c82e70ff6c80c92926a4b)
REM
REM compiler GCC version 9.2.1 20190827 (Red Hat 9.2.1-1)
REM options -cpp -mtune=generic -march=x86-64 -g -O0 -fpre-include=/usr/include/finclude/math-vector-fortran.h
REM seed 1779962565 125247975 1783708405 1807040429 942016933 1159723390 1764181650 -430176438 2107695167 -1043885280 -359770818 1244641608 -1213571304 -705238349 -148588778 -691723174 -1096727814 1041501443 638881171 -774147630 233168875 683359436 -1227093576 -391005864 1775630419 240264350 1446833543 -959494172 -728051340 174653745 1910296911 1876784474 -358837178
REM
CELL 1.54180   50.00000   50.00000   50.00000   90.00000   90.00000   90.00000
LATT -1
SFAC C  
C      1  0.4193280000000  0.4948890000000  0.4700520000000 1.0
C      1  0.5523580000000  0.4391900000000  0.4743360000000 1.0
C      1  0.4515640000000  0.5580430000000  0.5326900000000 1.0
C      1  0.5000430000000  0.4606340000000  0.5636960000000 1.0
C      1  0.4954160000000  0.4695210000000  0.4779850000000 1.0
C      1  0.5449230000000  0.4603450000000  0.4492450000000 1.0
C      1  0.5271020000000  0.4593700000000  0.4850310000000 1.0
C      1  0.4949110000000  0.4543160000000  0.4164260000000 1.0
C      1  0.4384300000000  0.4973000000000  0.4973020000000 1.0
C      1  0.5158910000000  0.5053090000000  0.5100520000000 1.0
C      1  0.5169560000000  0.5618290000000  0.5232970000000 1.0
C      1  0.5329270000000  0.5237430000000  0.4897700000000 1.0
C      1  0.5017400000000  0.5386950000000  0.5266430000000 1.0
C      1  0.4707460000000  0.5095890000000  0.5717110000000 1.0
C      1  0.4774300000000  0.4274600000000  0.5466900000000 1.0
C      1  0.5725200000000  0.4877300000000  0.4920370000000 1.0
C      1  0.4583580000000  0.5556150000000  0.5615490000000 1.0
C      1  0.4670680000000  0.4792490000000  0.4940560000000 1.0
C      1  0.4875040000000  0.4838360000000  0.5280300000000 1.0
C      1  0.4850840000000  0.5080550000000  0.4958440000000 1.0
C      1  0.5476160000000  0.5707160000000  0.4992950000000 1.0
C      1  0.5205200000000  0.4562820000000  0.4259420000000 1.0
C      1  0.4560350000000  0.4805410000000  0.5733770000000 1.0
C      1  0.5010990000000  0.4366210000000  0.4844990000000 1.0
C      1  0.4974710000000  0.4187240000000  0.5051460000000 1.0
C      1  0.5134570000000  0.4715830000000  0.5136840000000 1.0
C      1  0.5579560000000  0.5383270000000  0.4996940000000 1.0
C      1  0.4478180000000  0.5112800000000  0.4613530000000 1.0
C      1  0.4677570000000  0.5200050000000  0.4394430000000 1.0
C      1  0.5022770000000  0.4285410000000  0.5322140000000 1.0
C      1  0.4392700000000  0.4762770000000  0.4530910000000 1.0
C      1  0.5485370000000  0.5478140000000  0.4457550000000 1.0
C      1  0.5334170000000  0.5068720000000  0.4654550000000 1.0
C      1  0.5766430000000  0.4408090000000  0.4866230000000 1.0
C      1  0.4469180000000  0.5280310000000  0.4912550000000 1.0
C      1  0.5487270000000  0.4829190000000  0.4736650000000 1.0
C      1  0.5179750000000  0.5211640000000  0.5685630000000 1.0
C      1  0.4435110000000  0.4410710000000  0.5167700000000 1.0
C      1  0.4852830000000  0.5327480000000  0.4130550000000 1.0
C      1  0.5053540000000  0.4779500000000  0.5840250000000 1.0
C      1  0.5567710000000  0.5621670000000  0.4677170000000 1.0
C      1  0.4743480000000  0.4008640000000  0.5085370000000 1.0
C      1  0.5821350000000  0.5572330000000  0.4847970000000 1.0
C      1  0.4992380000000  0.5056910000000  0.5820130000000 1.0
C      1  0.4946120000000  0.5514350000000  0.4675520000000 1.0
C      1  0.5544320000000  0.5545280000000  0.5557330000000 1.0
C      1  0.4809900000000  0.5695130000000  0.4828550000000 1.0
C      1  0.5164250000000  0.5148050000000  0.5417230000000 1.0
C      1  0.4679910000000  0.5076980000000  0.5398900000000 1.0
C      1  0.5878810000000  0.4652600000000  0.4941270000000 1.0
C      1  0.4586590000000  0.5369720000000  0.5783320000000 1.0
C      1  0.4796030000000  0.4996940000000  0.4158920000000 1.0
C      1  0.4447790000000  0.4333480000000  0.4770810000000 1.0
C      1  0.5342630000000  0.5056330000000  0.4185030000000 1.0
C      1  0.5157890000000  0.5828930000000  0.5011750000000 1.0
C      1  0.4082720000000  0.5684970000000  0.4874660000000 1.0
C      1  0.4506520000000  0.4586370000000  0.4739960000000 1.0
C      1  0.5414760000000  0.5212890000000  0.4408070000000 1.0
C      1  0.5049320000000  0.4963540000000  0.4634670000000 1.0
C      1  0.4603080000000  0.4638440000000  0.5237990000000 1.0
C      1  0.5458230000000  0.5608470000000  0.5317870000000 1.0
C      1  0.4477110000000  0.4676550000000  0.4260200000000 1.0
C      1  0.4719700000000  0.5644070000000  0.5074280000000 1.0
C      1  0.4249170000000  0.5639120000000  0.5278500000000 1.0
C      1  0.4249560000000  0.5493130000000  0.4898920000000 1.0
C      1  0.5473660000000  0.5284670000000  0.5730700000000 1.0
C      1  0.5570770000000  0.5268480000000  0.5990340000000 1.0
C      1  0.5185220000000  0.4531930000000  0.5397790000000 1.0
C      1  0.5694170000000  0.5132450000000  0.5135570000000 1.0
C      1  0.4618640000000  0.4069120000000  0.5336130000000 1.0
C      1  0.5456670000000  0.4710610000000  0.5371750000000 1.0
C      1  0.5458580000000  0.4935920000000  0.5210970000000 1.0
C      1  0.5420150000000  0.4784450000000  0.4204140000000 1.0
C      1  0.5099360000000  0.5119240000000  0.4065210000000 1.0
C      1  0.5655030000000  0.5172120000000  0.5466920000000 1.0
C      1  0.4728380000000  0.4716720000000  0.4161980000000 1.0
C      1  0.4703760000000  0.5314460000000  0.5156630000000 1.0
C      1  0.4687220000000  0.4571100000000  0.5560530000000 1.0
C      1  0.4862360000000  0.5214580000000  0.4648430000000 1.0
C      1  0.4417350000000  0.4919330000000  0.5285050000000 1.0
END
