TITL C-2848509-3138-486 0.00217445271566649 125000 -685.30439833096 0 0 127 (C1) n - 1
REM
REM in /home/bkarasulu/work/CARBON/AIRSS/Generating-Clusters/AIREBO/with-SteepDescent/Only-C1/SD-CG-opt/Try1-1.4A-POS3A/HFTN-CG
REM
REM
REM
REM
REM
REM ./C.cell (11c1c37f851c82e70ff6c80c92926a4b)
REM
REM compiler GCC version 9.2.1 20190827 (Red Hat 9.2.1-1)
REM options -cpp -mtune=generic -march=x86-64 -g -O0 -fpre-include=/usr/include/finclude/math-vector-fortran.h
REM seed -1151298649 420670949 1580212545 -1566642167 -2127902047 -618028385 1181122440 -1482260621 -582495683 444366121 2050122600 1350546771 -1859903790 -2044666035 2143491968 -1433276359 -1048456015 1385895446 -110247080 -201670650 -1249471946 688240451 1308052369 -727939671 493268074 -1610084542 -132180685 -1120727881 80220700 -124996272 -947303289 312186069 222578106
REM
CELL 1.54180   50.00000   50.00000   50.00000   90.00000   90.00000   90.00000
LATT -1
SFAC C  
C      1  0.4594300000000  0.4276290000000  0.5287590000000 1.0
C      1  0.4827420000000  0.5839530000000  0.5437590000000 1.0
C      1  0.4526950000000  0.4357980000000  0.4811550000000 1.0
C      1  0.5060860000000  0.5664440000000  0.5069890000000 1.0
C      1  0.5400850000000  0.5438590000000  0.5320650000000 1.0
C      1  0.4745170000000  0.4374210000000  0.5576350000000 1.0
C      1  0.4547330000000  0.5618200000000  0.5119300000000 1.0
C      1  0.4050830000000  0.5253310000000  0.4995090000000 1.0
C      1  0.4592590000000  0.5199610000000  0.5384860000000 1.0
C      1  0.4287170000000  0.5648560000000  0.5309560000000 1.0
C      1  0.4390790000000  0.5623720000000  0.4832010000000 1.0
C      1  0.5716270000000  0.5214510000000  0.4390790000000 1.0
C      1  0.5653680000000  0.5149960000000  0.5768120000000 1.0
C      1  0.4496990000000  0.5196000000000  0.4538110000000 1.0
C      1  0.5817150000000  0.4664790000000  0.4687520000000 1.0
C      1  0.5792580000000  0.5186480000000  0.5100660000000 1.0
C      1  0.4331660000000  0.5547380000000  0.4445820000000 1.0
C      1  0.4167380000000  0.4429060000000  0.4605130000000 1.0
C      1  0.5254550000000  0.5457010000000  0.4245490000000 1.0
C      1  0.4826530000000  0.4050210000000  0.4459060000000 1.0
C      1  0.4877940000000  0.5031100000000  0.5461200000000 1.0
C      1  0.4183880000000  0.5254800000000  0.4418620000000 1.0
C      1  0.5199030000000  0.4674090000000  0.4368000000000 1.0
C      1  0.4850830000000  0.5923110000000  0.4990660000000 1.0
C      1  0.5246910000000  0.4065270000000  0.4881120000000 1.0
C      1  0.5121410000000  0.5260390000000  0.5399350000000 1.0
C      1  0.4786880000000  0.5609330000000  0.4876120000000 1.0
C      1  0.4670050000000  0.4958090000000  0.4119860000000 1.0
C      1  0.5291030000000  0.4730390000000  0.4770530000000 1.0
C      1  0.4873800000000  0.4917630000000  0.5150990000000 1.0
C      1  0.4820670000000  0.5662700000000  0.4251410000000 1.0
C      1  0.5650160000000  0.5005670000000  0.4208650000000 1.0
C      1  0.4891120000000  0.5127020000000  0.5780740000000 1.0
C      1  0.4194840000000  0.5381470000000  0.4734140000000 1.0
C      1  0.4654970000000  0.5080380000000  0.4979130000000 1.0
C      1  0.5698580000000  0.4574690000000  0.4399880000000 1.0
C      1  0.4281490000000  0.4727860000000  0.5559850000000 1.0
C      1  0.4759630000000  0.4223170000000  0.4998900000000 1.0
C      1  0.5465630000000  0.5378240000000  0.4450300000000 1.0
C      1  0.4643760000000  0.4238270000000  0.4527870000000 1.0
C      1  0.4321130000000  0.5326180000000  0.5538120000000 1.0
C      1  0.4649790000000  0.5540670000000  0.5436770000000 1.0
C      1  0.4881500000000  0.5147220000000  0.4136180000000 1.0
C      1  0.5002880000000  0.4631100000000  0.4115880000000 1.0
C      1  0.5125340000000  0.4100700000000  0.4565550000000 1.0
C      1  0.5593880000000  0.4323560000000  0.4353750000000 1.0
C      1  0.5507490000000  0.4512990000000  0.5160480000000 1.0
C      1  0.4745990000000  0.4697950000000  0.4185970000000 1.0
C      1  0.4387860000000  0.5648020000000  0.5625170000000 1.0
C      1  0.5152280000000  0.5752690000000  0.5488320000000 1.0
C      1  0.5541010000000  0.4514120000000  0.5468760000000 1.0
C      1  0.4631440000000  0.5432360000000  0.4334000000000 1.0
C      1  0.5996470000000  0.4723180000000  0.5205300000000 1.0
C      1  0.5302390000000  0.4424680000000  0.4716440000000 1.0
C      1  0.4555350000000  0.4687360000000  0.4784130000000 1.0
C      1  0.5110130000000  0.4742640000000  0.5322020000000 1.0
C      1  0.4618380000000  0.5242020000000  0.5927100000000 1.0
C      1  0.3936760000000  0.5104990000000  0.5281930000000 1.0
C      1  0.5672830000000  0.4307760000000  0.5591850000000 1.0
C      1  0.5838620000000  0.4970690000000  0.4837590000000 1.0
C      1  0.5731630000000  0.5414240000000  0.5349340000000 1.0
C      1  0.5528640000000  0.5630920000000  0.4632990000000 1.0
C      1  0.4583820000000  0.5344620000000  0.4810360000000 1.0
C      1  0.5094310000000  0.4414080000000  0.5225740000000 1.0
C      1  0.5060310000000  0.5618900000000  0.4375070000000 1.0
C      1  0.4591920000000  0.4636290000000  0.5118290000000 1.0
C      1  0.5508250000000  0.5064510000000  0.5241670000000 1.0
C      1  0.4955620000000  0.5490930000000  0.5570910000000 1.0
C      1  0.5555730000000  0.4873420000000  0.4701760000000 1.0
C      1  0.5223000000000  0.5186300000000  0.5715330000000 1.0
C      1  0.4106500000000  0.4905420000000  0.5390060000000 1.0
C      1  0.4088010000000  0.5400370000000  0.5299420000000 1.0
C      1  0.5832360000000  0.4563780000000  0.5073790000000 1.0
C      1  0.4432100000000  0.4550700000000  0.5406000000000 1.0
C      1  0.4315270000000  0.5078420000000  0.4963410000000 1.0
C      1  0.4393010000000  0.4923170000000  0.4711360000000 1.0
C      1  0.4773800000000  0.6017590000000  0.5237350000000 1.0
C      1  0.4346000000000  0.5822120000000  0.4599300000000 1.0
C      1  0.4842490000000  0.4610050000000  0.5699380000000 1.0
C      1  0.4984610000000  0.5359280000000  0.5117340000000 1.0
C      1  0.4938970000000  0.4000610000000  0.4840940000000 1.0
C      1  0.5264310000000  0.5523860000000  0.5717220000000 1.0
C      1  0.5764680000000  0.5000620000000  0.5976040000000 1.0
C      1  0.4413800000000  0.5056090000000  0.4239130000000 1.0
C      1  0.4865220000000  0.4937340000000  0.4753400000000 1.0
C      1  0.4394960000000  0.4955760000000  0.5253190000000 1.0
C      1  0.5726800000000  0.5648750000000  0.4831970000000 1.0
C      1  0.5511420000000  0.5421450000000  0.5860990000000 1.0
C      1  0.5819980000000  0.5160160000000  0.5498510000000 1.0
C      1  0.5130490000000  0.4998570000000  0.4443880000000 1.0
C      1  0.4883730000000  0.4601270000000  0.5035350000000 1.0
C      1  0.5332520000000  0.5748370000000  0.5202800000000 1.0
C      1  0.5968130000000  0.4980000000000  0.5306010000000 1.0
C      1  0.5113310000000  0.4662220000000  0.5641580000000 1.0
C      1  0.5776360000000  0.4097800000000  0.5709610000000 1.0
C      1  0.5399260000000  0.4715570000000  0.5594420000000 1.0
C      1  0.4977210000000  0.4652340000000  0.4625140000000 1.0
C      1  0.5022620000000  0.5181710000000  0.4864890000000 1.0
C      1  0.4676640000000  0.4571810000000  0.4487480000000 1.0
C      1  0.5453160000000  0.5006550000000  0.5540920000000 1.0
C      1  0.5304770000000  0.4766440000000  0.5076880000000 1.0
C      1  0.4386690000000  0.5157030000000  0.5793020000000 1.0
C      1  0.5875830000000  0.5405180000000  0.4853970000000 1.0
C      1  0.4328550000000  0.4339890000000  0.5087530000000 1.0
C      1  0.5009070000000  0.5458380000000  0.4667570000000 1.0
C      1  0.5313980000000  0.4245730000000  0.5078500000000 1.0
C      1  0.4431720000000  0.4880880000000  0.5745740000000 1.0
C      1  0.5519470000000  0.4768320000000  0.4293340000000 1.0
C      1  0.5134230000000  0.5273210000000  0.4058660000000 1.0
C      1  0.5328120000000  0.5082650000000  0.4953800000000 1.0
C      1  0.4960650000000  0.4236600000000  0.5439580000000 1.0
C      1  0.5284450000000  0.4347870000000  0.4413480000000 1.0
C      1  0.4339500000000  0.4582400000000  0.4443800000000 1.0
C      1  0.5643140000000  0.5778280000000  0.5078630000000 1.0
C      1  0.4883450000000  0.5232930000000  0.4446130000000 1.0
C      1  0.4274470000000  0.4696160000000  0.5068620000000 1.0
C      1  0.4709240000000  0.4839290000000  0.5771510000000 1.0
C      1  0.5296300000000  0.5541560000000  0.4773450000000 1.0
C      1  0.5367530000000  0.5110950000000  0.4617050000000 1.0
C      1  0.5816480000000  0.5705210000000  0.5288390000000 1.0
C      1  0.5336870000000  0.5091860000000  0.6005200000000 1.0
C      1  0.5365040000000  0.5401570000000  0.5007220000000 1.0
C      1  0.5009030000000  0.4387790000000  0.4836420000000 1.0
C      1  0.5605380000000  0.4454100000000  0.4840200000000 1.0
C      1  0.4125740000000  0.4468450000000  0.4868100000000 1.0
C      1  0.4263260000000  0.4863780000000  0.4430930000000 1.0
C      1  0.5890920000000  0.5213120000000  0.4612110000000 1.0
END
