TITL C-2848502-4955-130 0.000483501156012232 125000 -538.203922726663 0 0 100 (C1) n - 1
REM
REM in /home/bkarasulu/work/CARBON/AIRSS/Generating-Clusters/AIREBO/with-SteepDescent/Only-C1/SD-CG-opt/Try1-1.4A-POS3A/HFTN-CG
REM
REM
REM
REM
REM
REM ./C.cell (11c1c37f851c82e70ff6c80c92926a4b)
REM
REM compiler GCC version 9.2.1 20190827 (Red Hat 9.2.1-1)
REM options -cpp -mtune=generic -march=x86-64 -g -O0 -fpre-include=/usr/include/finclude/math-vector-fortran.h
REM seed 1859444902 -1279062549 -1791537140 -1774937074 -482362529 -2080297210 1897202301 -1402365145 1495301898 -721881145 201966965 -1884695220 -1466976496 249835417 1889004260 -621693389 -438546375 127499684 -721408013 1892464324 119269215 243384334 -799888359 2090104660 -748418035 813913522 -121765630 1350552489 -412660901 -663899850 1961646282 1861198219 -1687838706
REM
CELL 1.54180   50.00000   50.00000   50.00000   90.00000   90.00000   90.00000
LATT -1
SFAC C  
C      1  0.5328820000000  0.5282630000000  0.4760320000000 1.0
C      1  0.5345750000000  0.5314340000000  0.4128190000000 1.0
C      1  0.5613030000000  0.4597070000000  0.5277020000000 1.0
C      1  0.4792330000000  0.4121240000000  0.4848130000000 1.0
C      1  0.5304510000000  0.4648240000000  0.4572680000000 1.0
C      1  0.5600740000000  0.4422830000000  0.5054270000000 1.0
C      1  0.4141810000000  0.5343350000000  0.4926870000000 1.0
C      1  0.5246360000000  0.4134360000000  0.5499120000000 1.0
C      1  0.4392100000000  0.4437770000000  0.5002400000000 1.0
C      1  0.4349050000000  0.5459690000000  0.5488670000000 1.0
C      1  0.4764430000000  0.5233730000000  0.4858050000000 1.0
C      1  0.4952440000000  0.5205060000000  0.5559970000000 1.0
C      1  0.5034320000000  0.5198510000000  0.5971670000000 1.0
C      1  0.5357360000000  0.5339760000000  0.5582070000000 1.0
C      1  0.5353780000000  0.5233600000000  0.5069310000000 1.0
C      1  0.4537770000000  0.5077260000000  0.5001520000000 1.0
C      1  0.4851800000000  0.5465970000000  0.4136840000000 1.0
C      1  0.4719210000000  0.4497000000000  0.4415340000000 1.0
C      1  0.4641180000000  0.5863030000000  0.4786230000000 1.0
C      1  0.5037130000000  0.5375530000000  0.4604190000000 1.0
C      1  0.4747220000000  0.5537520000000  0.5766140000000 1.0
C      1  0.4963330000000  0.5530340000000  0.5527330000000 1.0
C      1  0.5497520000000  0.4829990000000  0.4785600000000 1.0
C      1  0.4027580000000  0.5244890000000  0.5162190000000 1.0
C      1  0.4691670000000  0.4457290000000  0.5216860000000 1.0
C      1  0.5204480000000  0.5781180000000  0.5150870000000 1.0
C      1  0.5197960000000  0.4142830000000  0.5224710000000 1.0
C      1  0.4408580000000  0.4936890000000  0.5509970000000 1.0
C      1  0.5062730000000  0.4507790000000  0.5767980000000 1.0
C      1  0.5344110000000  0.5604050000000  0.4717980000000 1.0
C      1  0.5850370000000  0.5153050000000  0.5035590000000 1.0
C      1  0.4774320000000  0.5508380000000  0.4434120000000 1.0
C      1  0.5208190000000  0.5130640000000  0.5359070000000 1.0
C      1  0.4534060000000  0.4619420000000  0.5471110000000 1.0
C      1  0.5199610000000  0.5640460000000  0.4466040000000 1.0
C      1  0.5247770000000  0.5627340000000  0.5429070000000 1.0
C      1  0.5844770000000  0.5401500000000  0.5172030000000 1.0
C      1  0.4323620000000  0.4438870000000  0.5313480000000 1.0
C      1  0.4314740000000  0.4814140000000  0.4627100000000 1.0
C      1  0.4992430000000  0.4719730000000  0.5436180000000 1.0
C      1  0.4847340000000  0.4745470000000  0.5146050000000 1.0
C      1  0.4538920000000  0.5096080000000  0.5762210000000 1.0
C      1  0.4575100000000  0.5282310000000  0.4579640000000 1.0
C      1  0.5544340000000  0.5102210000000  0.4587280000000 1.0
C      1  0.5521710000000  0.5283970000000  0.4304760000000 1.0
C      1  0.5063970000000  0.4668160000000  0.4818120000000 1.0
C      1  0.4514420000000  0.5123670000000  0.4285020000000 1.0
C      1  0.5427410000000  0.4360820000000  0.4560800000000 1.0
C      1  0.4919690000000  0.5515160000000  0.4891100000000 1.0
C      1  0.4942750000000  0.5847860000000  0.5112870000000 1.0
C      1  0.5247530000000  0.5287510000000  0.5868390000000 1.0
C      1  0.5724240000000  0.4912410000000  0.5225900000000 1.0
C      1  0.4612300000000  0.4935910000000  0.5241900000000 1.0
C      1  0.4983860000000  0.4132880000000  0.4636350000000 1.0
C      1  0.5279730000000  0.4173190000000  0.4753370000000 1.0
C      1  0.4939550000000  0.4293340000000  0.4407310000000 1.0
C      1  0.5666660000000  0.4554740000000  0.4814390000000 1.0
C      1  0.5829380000000  0.5146400000000  0.4762880000000 1.0
C      1  0.5272790000000  0.4855310000000  0.5548040000000 1.0
C      1  0.4740480000000  0.4725530000000  0.4822590000000 1.0
C      1  0.5411670000000  0.5753500000000  0.4948600000000 1.0
C      1  0.5420630000000  0.4574220000000  0.5473930000000 1.0
C      1  0.4607970000000  0.4947750000000  0.4631430000000 1.0
C      1  0.4294140000000  0.4948920000000  0.4358670000000 1.0
C      1  0.5059490000000  0.5245160000000  0.4079150000000 1.0
C      1  0.5094350000000  0.4582660000000  0.4316660000000 1.0
C      1  0.4593870000000  0.4504020000000  0.4663450000000 1.0
C      1  0.5118490000000  0.4808810000000  0.5847460000000 1.0
C      1  0.5027110000000  0.4928810000000  0.4127290000000 1.0
C      1  0.4453130000000  0.5721650000000  0.5320180000000 1.0
C      1  0.5730030000000  0.4620050000000  0.4537330000000 1.0
C      1  0.4779240000000  0.4676180000000  0.5673640000000 1.0
C      1  0.4801530000000  0.5433260000000  0.5270010000000 1.0
C      1  0.5412050000000  0.4202930000000  0.5043860000000 1.0
C      1  0.5727510000000  0.5061730000000  0.5497330000000 1.0
C      1  0.5080920000000  0.4386130000000  0.4927120000000 1.0
C      1  0.5268670000000  0.4384420000000  0.5621710000000 1.0
C      1  0.4838700000000  0.4991840000000  0.5785460000000 1.0
C      1  0.4907050000000  0.5069620000000  0.4524630000000 1.0
C      1  0.4198030000000  0.5190120000000  0.5375350000000 1.0
C      1  0.5459300000000  0.5471800000000  0.5225060000000 1.0
C      1  0.5675670000000  0.5366130000000  0.5465110000000 1.0
C      1  0.4837580000000  0.4786570000000  0.4349290000000 1.0
C      1  0.4546890000000  0.4249660000000  0.4802820000000 1.0
C      1  0.4571550000000  0.5246250000000  0.5361640000000 1.0
C      1  0.5523120000000  0.4826480000000  0.4382450000000 1.0
C      1  0.4893220000000  0.4228420000000  0.5133790000000 1.0
C      1  0.5443840000000  0.4923060000000  0.5071850000000 1.0
C      1  0.4287010000000  0.5450840000000  0.4648380000000 1.0
C      1  0.5559650000000  0.4948190000000  0.5681710000000 1.0
C      1  0.4255720000000  0.4650760000000  0.4831750000000 1.0
C      1  0.5310290000000  0.4779500000000  0.4152890000000 1.0
C      1  0.4727190000000  0.5088310000000  0.4112410000000 1.0
C      1  0.4436290000000  0.5450060000000  0.4930190000000 1.0
C      1  0.4663090000000  0.5661730000000  0.5059440000000 1.0
C      1  0.4962590000000  0.5188450000000  0.5130650000000 1.0
C      1  0.5688600000000  0.5661830000000  0.5064080000000 1.0
C      1  0.4690540000000  0.5784170000000  0.4552900000000 1.0
C      1  0.5127890000000  0.4905550000000  0.5039810000000 1.0
C      1  0.4524250000000  0.5380290000000  0.5735280000000 1.0
END
