TITL C-2848502-4955-202 0.000417610634521634 125000 -639.950957937025 0 0 119 (C1) n - 1
REM
REM in /home/bkarasulu/work/CARBON/AIRSS/Generating-Clusters/AIREBO/with-SteepDescent/Only-C1/SD-CG-opt/Try1-1.4A-POS3A/HFTN-CG
REM
REM
REM
REM
REM
REM ./C.cell (11c1c37f851c82e70ff6c80c92926a4b)
REM
REM compiler GCC version 9.2.1 20190827 (Red Hat 9.2.1-1)
REM options -cpp -mtune=generic -march=x86-64 -g -O0 -fpre-include=/usr/include/finclude/math-vector-fortran.h
REM seed -1322229676 -1609543225 920566778 1018410862 -2081461901 -866135570 -220093024 -2132206012 -211318269 -997394959 424199651 1401522745 -1531536114 1020034170 -1798447791 1807189993 -1745715717 1857683845 1680572530 -367623983 -1920837960 1151807763 1883329983 722413400 -1308314760 998228663 1173164959 -1241755310 1630065699 1226588517 -278120468 1524443929 1658851643
REM
CELL 1.54180   50.00000   50.00000   50.00000   90.00000   90.00000   90.00000
LATT -1
SFAC C  
C      1  0.4508660000000  0.5667830000000  0.5272170000000 1.0
C      1  0.4908940000000  0.5080340000000  0.5220110000000 1.0
C      1  0.4337030000000  0.4795620000000  0.4808770000000 1.0
C      1  0.4883850000000  0.4896870000000  0.5459260000000 1.0
C      1  0.5564390000000  0.5677080000000  0.4913840000000 1.0
C      1  0.4261830000000  0.5402270000000  0.4592410000000 1.0
C      1  0.5764110000000  0.4421880000000  0.4679400000000 1.0
C      1  0.4701200000000  0.4988840000000  0.5909740000000 1.0
C      1  0.5114150000000  0.5335460000000  0.3946210000000 1.0
C      1  0.5715120000000  0.4409110000000  0.4969140000000 1.0
C      1  0.5480670000000  0.4932430000000  0.5616210000000 1.0
C      1  0.5632550000000  0.5000230000000  0.4549450000000 1.0
C      1  0.5419670000000  0.5402200000000  0.5665200000000 1.0
C      1  0.5267000000000  0.5842510000000  0.5552650000000 1.0
C      1  0.5278020000000  0.5558720000000  0.4662890000000 1.0
C      1  0.4850370000000  0.3642740000000  0.4843610000000 1.0
C      1  0.5196850000000  0.4947730000000  0.5097080000000 1.0
C      1  0.4801140000000  0.5384410000000  0.4601580000000 1.0
C      1  0.5464910000000  0.4559550000000  0.4365280000000 1.0
C      1  0.5352430000000  0.5415550000000  0.4962380000000 1.0
C      1  0.5062020000000  0.4657220000000  0.5484920000000 1.0
C      1  0.4700560000000  0.5277250000000  0.5636920000000 1.0
C      1  0.4970590000000  0.4362420000000  0.5573000000000 1.0
C      1  0.4655490000000  0.5264150000000  0.5105540000000 1.0
C      1  0.4046570000000  0.4951390000000  0.5489700000000 1.0
C      1  0.4869140000000  0.5101020000000  0.4291890000000 1.0
C      1  0.5126400000000  0.4333800000000  0.4732100000000 1.0
C      1  0.5303200000000  0.4284240000000  0.4445850000000 1.0
C      1  0.5325040000000  0.4862580000000  0.4596830000000 1.0
C      1  0.4722020000000  0.4156600000000  0.4770330000000 1.0
C      1  0.5795740000000  0.5231860000000  0.4741310000000 1.0
C      1  0.5548280000000  0.4187400000000  0.5014620000000 1.0
C      1  0.4999410000000  0.4075800000000  0.4097880000000 1.0
C      1  0.5642630000000  0.5602340000000  0.5289790000000 1.0
C      1  0.4852240000000  0.5674590000000  0.5269010000000 1.0
C      1  0.4795670000000  0.3894840000000  0.4797380000000 1.0
C      1  0.5023600000000  0.5066820000000  0.4760390000000 1.0
C      1  0.4854310000000  0.4404690000000  0.4924630000000 1.0
C      1  0.4798810000000  0.4868740000000  0.4845740000000 1.0
C      1  0.5239890000000  0.5601590000000  0.5718230000000 1.0
C      1  0.4576410000000  0.4442530000000  0.5117770000000 1.0
C      1  0.5275200000000  0.5228730000000  0.5245910000000 1.0
C      1  0.5416160000000  0.5812860000000  0.5311790000000 1.0
C      1  0.4704680000000  0.4340160000000  0.5558170000000 1.0
C      1  0.4657160000000  0.4690760000000  0.4162700000000 1.0
C      1  0.4326440000000  0.5414110000000  0.5344490000000 1.0
C      1  0.5663550000000  0.5428830000000  0.5527620000000 1.0
C      1  0.4557890000000  0.5305310000000  0.4456040000000 1.0
C      1  0.5260550000000  0.5896200000000  0.5082310000000 1.0
C      1  0.5915680000000  0.4937690000000  0.5153830000000 1.0
C      1  0.5342020000000  0.4465760000000  0.5474440000000 1.0
C      1  0.4841560000000  0.4491400000000  0.4345560000000 1.0
C      1  0.4545590000000  0.4788510000000  0.5786240000000 1.0
C      1  0.5670130000000  0.4698650000000  0.5111640000000 1.0
C      1  0.5155150000000  0.5843510000000  0.4700090000000 1.0
C      1  0.4537140000000  0.4983050000000  0.4851480000000 1.0
C      1  0.4602340000000  0.4938960000000  0.4270990000000 1.0
C      1  0.4584970000000  0.4815010000000  0.5483390000000 1.0
C      1  0.4226700000000  0.4987700000000  0.5272190000000 1.0
C      1  0.5096850000000  0.4610940000000  0.4537110000000 1.0
C      1  0.5592550000000  0.4764680000000  0.4317080000000 1.0
C      1  0.4535960000000  0.4471870000000  0.4472880000000 1.0
C      1  0.4790300000000  0.5505190000000  0.4906680000000 1.0
C      1  0.5700080000000  0.4715920000000  0.4714290000000 1.0
C      1  0.5130800000000  0.4246680000000  0.5226810000000 1.0
C      1  0.4913730000000  0.4865010000000  0.4532640000000 1.0
C      1  0.5401790000000  0.4751800000000  0.4909360000000 1.0
C      1  0.5359370000000  0.5275920000000  0.4138710000000 1.0
C      1  0.4968370000000  0.5078430000000  0.5719320000000 1.0
C      1  0.5397250000000  0.5530820000000  0.4342720000000 1.0
C      1  0.5746510000000  0.5424070000000  0.5018170000000 1.0
C      1  0.5425340000000  0.5918180000000  0.4826050000000 1.0
C      1  0.4513090000000  0.5132780000000  0.5385130000000 1.0
C      1  0.5199500000000  0.5088020000000  0.4372710000000 1.0
C      1  0.5028350000000  0.5319900000000  0.4924200000000 1.0
C      1  0.4358780000000  0.4625950000000  0.5899550000000 1.0
C      1  0.4539220000000  0.5259790000000  0.5935790000000 1.0
C      1  0.4311880000000  0.4457830000000  0.5020770000000 1.0
C      1  0.4205150000000  0.4732690000000  0.5056130000000 1.0
C      1  0.5317540000000  0.4701700000000  0.5696910000000 1.0
C      1  0.5219900000000  0.4153920000000  0.5531630000000 1.0
C      1  0.5672450000000  0.4914440000000  0.5374460000000 1.0
C      1  0.4745020000000  0.5494670000000  0.5979870000000 1.0
C      1  0.5786540000000  0.5223260000000  0.5285890000000 1.0
C      1  0.4858850000000  0.5603720000000  0.4272840000000 1.0
C      1  0.5271140000000  0.5156980000000  0.5576300000000 1.0
C      1  0.4465160000000  0.5295370000000  0.4843090000000 1.0
C      1  0.5631030000000  0.4236990000000  0.4524050000000 1.0
C      1  0.4377850000000  0.4693460000000  0.4523910000000 1.0
C      1  0.5346910000000  0.5140220000000  0.4781950000000 1.0
C      1  0.5979700000000  0.5393680000000  0.4554400000000 1.0
C      1  0.4997120000000  0.5413700000000  0.5236340000000 1.0
C      1  0.4078220000000  0.5136620000000  0.5003750000000 1.0
C      1  0.4930810000000  0.5513590000000  0.5728330000000 1.0
C      1  0.4701860000000  0.5746400000000  0.4464770000000 1.0
C      1  0.4585430000000  0.4522180000000  0.5382280000000 1.0
C      1  0.4413750000000  0.5607770000000  0.4968300000000 1.0
C      1  0.5585610000000  0.5177650000000  0.4008010000000 1.0
C      1  0.5267710000000  0.4549590000000  0.5153350000000 1.0
C      1  0.5885570000000  0.4942440000000  0.4847090000000 1.0
C      1  0.4489350000000  0.4249670000000  0.4635990000000 1.0
C      1  0.5050750000000  0.4268670000000  0.4265560000000 1.0
C      1  0.4291480000000  0.5283550000000  0.6048970000000 1.0
C      1  0.5117130000000  0.4822020000000  0.5885930000000 1.0
C      1  0.4263580000000  0.4278310000000  0.4807820000000 1.0
C      1  0.4978320000000  0.5858300000000  0.5056190000000 1.0
C      1  0.4127520000000  0.5124610000000  0.4721690000000 1.0
C      1  0.4847380000000  0.5788860000000  0.4752060000000 1.0
C      1  0.4488170000000  0.5645890000000  0.4652460000000 1.0
C      1  0.4880380000000  0.5349990000000  0.4090980000000 1.0
C      1  0.4086340000000  0.5358010000000  0.5220020000000 1.0
C      1  0.4359400000000  0.5031410000000  0.4490180000000 1.0
C      1  0.5090510000000  0.5406020000000  0.4424290000000 1.0
C      1  0.5293890000000  0.3929410000000  0.5660090000000 1.0
C      1  0.4613620000000  0.5887270000000  0.5500750000000 1.0
C      1  0.4929990000000  0.5794920000000  0.5559970000000 1.0
C      1  0.5016200000000  0.4680940000000  0.4988410000000 1.0
C      1  0.5778620000000  0.4923290000000  0.5741530000000 1.0
C      1  0.5270530000000  0.4193610000000  0.4973430000000 1.0
END
