TITL C-2847948-6138-533 -0.00135848495655425 125000 -899.744581093129 0 0 163 (C1) n - 1
REM
REM in /home/bkarasulu/work/CARBON/AIRSS/Generating-Clusters/AIREBO/with-SteepDescent/Only-C1/SD-CG-opt/Try1-1.4A-POS3A/HFTN-CG
REM
REM
REM
REM
REM
REM ./C.cell (11c1c37f851c82e70ff6c80c92926a4b)
REM
REM compiler GCC version 9.2.1 20190827 (Red Hat 9.2.1-1)
REM options -cpp -mtune=generic -march=x86-64 -g -O0 -fpre-include=/usr/include/finclude/math-vector-fortran.h
REM seed -1430601147 -399662767 358640617 307517621 1759476099 1275584585 437151836 363219787 1154611520 234816739 -1472555887 -634159376 -29477480 1887183862 -1747933868 -1810671091 -1863680008 -528748005 -465059711 439826075 -1733912886 1473392124 -427656817 -774378661 -318549534 -1895762732 1166584283 1412239 -1283683014 -1105268568 -181198024 -1199252448 1779576934
REM
CELL 1.54180   50.00000   50.00000   50.00000   90.00000   90.00000   90.00000
LATT -1
SFAC C  
C      1  0.5926450000000  0.4969530000000  0.4660930000000 1.0
C      1  0.5613850000000  0.4251040000000  0.4405330000000 1.0
C      1  0.4439710000000  0.5130470000000  0.5456950000000 1.0
C      1  0.4040010000000  0.4449620000000  0.4785410000000 1.0
C      1  0.4962130000000  0.4592850000000  0.5614430000000 1.0
C      1  0.4785710000000  0.4352310000000  0.4077950000000 1.0
C      1  0.4916120000000  0.4868380000000  0.4439910000000 1.0
C      1  0.4797380000000  0.4886450000000  0.5662210000000 1.0
C      1  0.6104310000000  0.4918150000000  0.4906960000000 1.0
C      1  0.4802210000000  0.4748940000000  0.5284270000000 1.0
C      1  0.5725600000000  0.5872840000000  0.4489700000000 1.0
C      1  0.5686930000000  0.4830160000000  0.5246070000000 1.0
C      1  0.4866350000000  0.4361730000000  0.4469250000000 1.0
C      1  0.4326500000000  0.5927020000000  0.5119110000000 1.0
C      1  0.4937690000000  0.5977850000000  0.5299390000000 1.0
C      1  0.5267670000000  0.4727860000000  0.4957810000000 1.0
C      1  0.5781410000000  0.4651380000000  0.5500730000000 1.0
C      1  0.4941560000000  0.4314300000000  0.5475990000000 1.0
C      1  0.4442360000000  0.5305400000000  0.5207070000000 1.0
C      1  0.5478280000000  0.5653120000000  0.4568470000000 1.0
C      1  0.5827350000000  0.4194580000000  0.4242340000000 1.0
C      1  0.4260520000000  0.4362040000000  0.5562220000000 1.0
C      1  0.5671040000000  0.5491950000000  0.4802610000000 1.0
C      1  0.4070710000000  0.5343590000000  0.4160970000000 1.0
C      1  0.5667220000000  0.4796050000000  0.5753770000000 1.0
C      1  0.5876750000000  0.5638930000000  0.4586780000000 1.0
C      1  0.4630360000000  0.4951200000000  0.6157700000000 1.0
C      1  0.4850220000000  0.5407100000000  0.5717430000000 1.0
C      1  0.4100130000000  0.5129320000000  0.4941780000000 1.0
C      1  0.5267630000000  0.5380950000000  0.4970300000000 1.0
C      1  0.5108230000000  0.5624670000000  0.5760080000000 1.0
C      1  0.4984560000000  0.5642250000000  0.4325060000000 1.0
C      1  0.5142920000000  0.4977020000000  0.5112210000000 1.0
C      1  0.5331060000000  0.3736260000000  0.5317950000000 1.0
C      1  0.4870910000000  0.5670940000000  0.5169770000000 1.0
C      1  0.4379810000000  0.4963150000000  0.5010820000000 1.0
C      1  0.5209410000000  0.5636190000000  0.5169590000000 1.0
C      1  0.4778770000000  0.4413960000000  0.5826800000000 1.0
C      1  0.4881270000000  0.5144200000000  0.5220480000000 1.0
C      1  0.5342260000000  0.5466440000000  0.4296510000000 1.0
C      1  0.4452210000000  0.5028530000000  0.4581070000000 1.0
C      1  0.5529310000000  0.5667330000000  0.5057320000000 1.0
C      1  0.5559900000000  0.5081200000000  0.5741490000000 1.0
C      1  0.4489150000000  0.5639860000000  0.5857160000000 1.0
C      1  0.4906040000000  0.5208890000000  0.4071340000000 1.0
C      1  0.4953810000000  0.4071450000000  0.5608660000000 1.0
C      1  0.5184180000000  0.5330280000000  0.4059940000000 1.0
C      1  0.5635360000000  0.5954460000000  0.5038910000000 1.0
C      1  0.5277220000000  0.4530360000000  0.4681200000000 1.0
C      1  0.5045410000000  0.4326960000000  0.5902010000000 1.0
C      1  0.5635950000000  0.4376760000000  0.5463140000000 1.0
C      1  0.5444410000000  0.4063660000000  0.4519000000000 1.0
C      1  0.5003350000000  0.3834010000000  0.4826620000000 1.0
C      1  0.4747640000000  0.5147260000000  0.5523200000000 1.0
C      1  0.4594890000000  0.5861710000000  0.5615570000000 1.0
C      1  0.4567140000000  0.4048530000000  0.5039570000000 1.0
C      1  0.5839000000000  0.4699350000000  0.4543540000000 1.0
C      1  0.4259030000000  0.4075570000000  0.4961060000000 1.0
C      1  0.4884540000000  0.5785560000000  0.5551830000000 1.0
C      1  0.4289020000000  0.4461600000000  0.5243910000000 1.0
C      1  0.4043980000000  0.5289870000000  0.5224630000000 1.0
C      1  0.5692210000000  0.4082970000000  0.4970900000000 1.0
C      1  0.4582370000000  0.4689020000000  0.5536760000000 1.0
C      1  0.5786230000000  0.5512460000000  0.5463650000000 1.0
C      1  0.4544610000000  0.4658720000000  0.6030430000000 1.0
C      1  0.5246580000000  0.4526820000000  0.5905760000000 1.0
C      1  0.4010430000000  0.4933440000000  0.4452180000000 1.0
C      1  0.4677090000000  0.5337240000000  0.4158920000000 1.0
C      1  0.5277500000000  0.5798110000000  0.4335450000000 1.0
C      1  0.4270150000000  0.5761170000000  0.4574120000000 1.0
C      1  0.5375560000000  0.5201700000000  0.5218850000000 1.0
C      1  0.5063540000000  0.6125120000000  0.5023250000000 1.0
C      1  0.4951520000000  0.5475800000000  0.5428110000000 1.0
C      1  0.5723960000000  0.5470850000000  0.5197600000000 1.0
C      1  0.5031070000000  0.5386330000000  0.4541710000000 1.0
C      1  0.5040030000000  0.4264250000000  0.5158530000000 1.0
C      1  0.4147740000000  0.4529630000000  0.4544910000000 1.0
C      1  0.5362300000000  0.4866150000000  0.4406820000000 1.0
C      1  0.4740340000000  0.4561300000000  0.4793710000000 1.0
C      1  0.5369400000000  0.5248420000000  0.5951120000000 1.0
C      1  0.5853130000000  0.5385360000000  0.4443630000000 1.0
C      1  0.4949200000000  0.6100010000000  0.4775000000000 1.0
C      1  0.5625180000000  0.4603440000000  0.4863070000000 1.0
C      1  0.3980400000000  0.4895960000000  0.5516710000000 1.0
C      1  0.5165750000000  0.4093220000000  0.4470400000000 1.0
C      1  0.4229030000000  0.5683590000000  0.4902420000000 1.0
C      1  0.5559360000000  0.4528740000000  0.4124630000000 1.0
C      1  0.4792380000000  0.5370970000000  0.5030130000000 1.0
C      1  0.5104130000000  0.5081150000000  0.5932220000000 1.0
C      1  0.5312210000000  0.5518030000000  0.5963990000000 1.0
C      1  0.5662930000000  0.5153100000000  0.4773070000000 1.0
C      1  0.4837780000000  0.4787500000000  0.5956830000000 1.0
C      1  0.4947570000000  0.5634400000000  0.4720000000000 1.0
C      1  0.4550710000000  0.5611760000000  0.5268650000000 1.0
C      1  0.4664860000000  0.6101230000000  0.4756350000000 1.0
C      1  0.5381950000000  0.5994510000000  0.5466380000000 1.0
C      1  0.5444760000000  0.4554270000000  0.5686710000000 1.0
C      1  0.4426770000000  0.5405680000000  0.4882550000000 1.0
C      1  0.4112550000000  0.5067720000000  0.4226640000000 1.0
C      1  0.5244080000000  0.5356310000000  0.5464870000000 1.0
C      1  0.5284320000000  0.4068970000000  0.5239310000000 1.0
C      1  0.4249750000000  0.5520110000000  0.4349690000000 1.0
C      1  0.4971290000000  0.4177580000000  0.4243840000000 1.0
C      1  0.5532480000000  0.4576590000000  0.4460270000000 1.0
C      1  0.4394440000000  0.4840400000000  0.5312320000000 1.0
C      1  0.4495970000000  0.5737480000000  0.4318930000000 1.0
C      1  0.4629790000000  0.5130840000000  0.4852440000000 1.0
C      1  0.4144750000000  0.4327030000000  0.5015350000000 1.0
C      1  0.5564890000000  0.5277710000000  0.4471840000000 1.0
C      1  0.4798840000000  0.5176700000000  0.6038790000000 1.0
C      1  0.4529300000000  0.4536130000000  0.4184850000000 1.0
C      1  0.5142680000000  0.4763930000000  0.6015010000000 1.0
C      1  0.5908040000000  0.5143550000000  0.5376280000000 1.0
C      1  0.5281460000000  0.5694500000000  0.5479340000000 1.0
C      1  0.5405230000000  0.4692210000000  0.5379100000000 1.0
C      1  0.5339620000000  0.5125830000000  0.3948900000000 1.0
C      1  0.5114660000000  0.3898500000000  0.5465330000000 1.0
C      1  0.5206920000000  0.6149800000000  0.5317880000000 1.0
C      1  0.4466220000000  0.4491810000000  0.5764410000000 1.0
C      1  0.5240170000000  0.5068420000000  0.5620280000000 1.0
C      1  0.5153520000000  0.5138320000000  0.4827850000000 1.0
C      1  0.5250940000000  0.4869730000000  0.4103370000000 1.0
C      1  0.4599440000000  0.4488740000000  0.5200050000000 1.0
C      1  0.4218200000000  0.5553900000000  0.5212590000000 1.0
C      1  0.4122930000000  0.4692770000000  0.5405800000000 1.0
C      1  0.5059370000000  0.5907700000000  0.4568420000000 1.0
C      1  0.4719440000000  0.5609950000000  0.4220020000000 1.0
C      1  0.5693160000000  0.5142960000000  0.5112620000000 1.0
C      1  0.4642400000000  0.5419710000000  0.5943370000000 1.0
C      1  0.4370680000000  0.5627340000000  0.5556740000000 1.0
C      1  0.4386390000000  0.4456220000000  0.4410240000000 1.0
C      1  0.4935060000000  0.4901980000000  0.4134310000000 1.0
C      1  0.5769850000000  0.5255820000000  0.5618130000000 1.0
C      1  0.4164950000000  0.4971190000000  0.4673690000000 1.0
C      1  0.5918740000000  0.4228230000000  0.4882620000000 1.0
C      1  0.4634540000000  0.4764200000000  0.4541850000000 1.0
C      1  0.4896830000000  0.5101040000000  0.4644050000000 1.0
C      1  0.5546170000000  0.3952970000000  0.4762910000000 1.0
C      1  0.4777100000000  0.4669570000000  0.4016230000000 1.0
C      1  0.5022060000000  0.4589620000000  0.4512660000000 1.0
C      1  0.5035500000000  0.4086940000000  0.4722220000000 1.0
C      1  0.4724590000000  0.4246830000000  0.5148840000000 1.0
C      1  0.5022670000000  0.4380130000000  0.4850820000000 1.0
C      1  0.4421570000000  0.5228820000000  0.4311530000000 1.0
C      1  0.4676960000000  0.5617810000000  0.4826600000000 1.0
C      1  0.6179980000000  0.5113650000000  0.5366350000000 1.0
C      1  0.4534730000000  0.5866940000000  0.4722740000000 1.0
C      1  0.6030870000000  0.5180880000000  0.4458160000000 1.0
C      1  0.5479750000000  0.4870180000000  0.4726080000000 1.0
C      1  0.4403890000000  0.5971790000000  0.5356340000000 1.0
C      1  0.5275860000000  0.5150040000000  0.4528610000000 1.0
C      1  0.4106490000000  0.5142220000000  0.5461730000000 1.0
C      1  0.5378810000000  0.4626060000000  0.3979120000000 1.0
C      1  0.5863540000000  0.4471500000000  0.4756730000000 1.0
C      1  0.4683760000000  0.4812810000000  0.4985210000000 1.0
C      1  0.4483830000000  0.4085680000000  0.4734490000000 1.0
C      1  0.4582170000000  0.4331030000000  0.4599820000000 1.0
C      1  0.5537120000000  0.4216470000000  0.5196450000000 1.0
C      1  0.5105770000000  0.4828730000000  0.5415970000000 1.0
C      1  0.6002490000000  0.4849690000000  0.5124860000000 1.0
C      1  0.5473410000000  0.4514790000000  0.5124810000000 1.0
C      1  0.3992550000000  0.5442390000000  0.4862970000000 1.0
C      1  0.5248850000000  0.5624760000000  0.4776570000000 1.0
END
