TITL C-2847956-8218-655 0.000116283193848094 125000 -434.128408799884 0 0 78 (C1) n - 1
REM
REM in /home/bkarasulu/work/CARBON/AIRSS/Generating-Clusters/AIREBO/with-SteepDescent/Only-C1/SD-CG-opt/Try1-1.4A-POS3A/HFTN-CG
REM
REM
REM
REM
REM
REM ./C.cell (11c1c37f851c82e70ff6c80c92926a4b)
REM
REM compiler GCC version 9.2.1 20190827 (Red Hat 9.2.1-1)
REM options -cpp -mtune=generic -march=x86-64 -g -O0 -fpre-include=/usr/include/finclude/math-vector-fortran.h
REM seed 2146227349 425710219 1648093604 2093687491 707136648 -1791738639 636678617 -54655696 -687653693 -1301332648 -1543166746 -2116850065 -1806321780 966629368 258749976 326938209 1996875570 1385127308 1366364167 -979713731 -390517020 -2114398026 1550653327 -1973096215 1195029528 1212760740 -592188799 -1155655001 1183593851 368268008 -1510642670 1356776716 1855609153
REM
CELL 1.54180   50.00000   50.00000   50.00000   90.00000   90.00000   90.00000
LATT -1
SFAC C  
C      1  0.5212820000000  0.4803310000000  0.4804790000000 1.0
C      1  0.4589810000000  0.5061390000000  0.4417160000000 1.0
C      1  0.5232910000000  0.4324800000000  0.5452690000000 1.0
C      1  0.5513630000000  0.4446380000000  0.4781210000000 1.0
C      1  0.5205020000000  0.4672130000000  0.5441390000000 1.0
C      1  0.4861440000000  0.4286190000000  0.4882310000000 1.0
C      1  0.4651670000000  0.4455110000000  0.5021130000000 1.0
C      1  0.4898160000000  0.5062110000000  0.5789340000000 1.0
C      1  0.4785000000000  0.5811450000000  0.4935120000000 1.0
C      1  0.4517100000000  0.4476190000000  0.4344120000000 1.0
C      1  0.4743560000000  0.5074400000000  0.4200410000000 1.0
C      1  0.5282270000000  0.5170780000000  0.4668560000000 1.0
C      1  0.4391240000000  0.5557450000000  0.5029450000000 1.0
C      1  0.5489810000000  0.4334750000000  0.5056960000000 1.0
C      1  0.5300070000000  0.4881120000000  0.5960010000000 1.0
C      1  0.5079440000000  0.5042280000000  0.6000580000000 1.0
C      1  0.4737810000000  0.4752580000000  0.4980900000000 1.0
C      1  0.5557950000000  0.4612300000000  0.5152400000000 1.0
C      1  0.5293800000000  0.4683670000000  0.5769520000000 1.0
C      1  0.4363550000000  0.4928920000000  0.4634480000000 1.0
C      1  0.4693600000000  0.4851870000000  0.4664250000000 1.0
C      1  0.5084060000000  0.5935130000000  0.5309620000000 1.0
C      1  0.5429650000000  0.5477510000000  0.4663140000000 1.0
C      1  0.4265650000000  0.5127610000000  0.5421080000000 1.0
C      1  0.5059420000000  0.5307970000000  0.5214260000000 1.0
C      1  0.5684780000000  0.5013560000000  0.4193590000000 1.0
C      1  0.5482410000000  0.5287860000000  0.5153870000000 1.0
C      1  0.4736990000000  0.4924850000000  0.5340730000000 1.0
C      1  0.4638640000000  0.4381990000000  0.5297060000000 1.0
C      1  0.4999700000000  0.4956740000000  0.4214270000000 1.0
C      1  0.5031970000000  0.5420500000000  0.5673250000000 1.0
C      1  0.5040990000000  0.4156970000000  0.5035440000000 1.0
C      1  0.5333640000000  0.5826860000000  0.5328490000000 1.0
C      1  0.5133880000000  0.4216800000000  0.4384320000000 1.0
C      1  0.4257320000000  0.5120780000000  0.4849980000000 1.0
C      1  0.5208510000000  0.4405420000000  0.5736380000000 1.0
C      1  0.4841740000000  0.5838060000000  0.5213660000000 1.0
C      1  0.5675310000000  0.5134540000000  0.5276380000000 1.0
C      1  0.4835420000000  0.5422570000000  0.4486990000000 1.0
C      1  0.5249250000000  0.4522360000000  0.4657610000000 1.0
C      1  0.4783260000000  0.5426960000000  0.5125580000000 1.0
C      1  0.5039810000000  0.5414210000000  0.4337290000000 1.0
C      1  0.5188430000000  0.5675270000000  0.4654990000000 1.0
C      1  0.4683720000000  0.5623570000000  0.5384680000000 1.0
C      1  0.5011490000000  0.4917370000000  0.5517970000000 1.0
C      1  0.5142240000000  0.4238930000000  0.5936180000000 1.0
C      1  0.5278880000000  0.4757450000000  0.5124050000000 1.0
C      1  0.4762420000000  0.4600350000000  0.4473950000000 1.0
C      1  0.4176800000000  0.4749130000000  0.4533150000000 1.0
C      1  0.4998180000000  0.4924980000000  0.5118470000000 1.0
C      1  0.5207760000000  0.5146590000000  0.4334400000000 1.0
C      1  0.5672080000000  0.4682730000000  0.4776290000000 1.0
C      1  0.4381200000000  0.5627580000000  0.5298890000000 1.0
C      1  0.6054250000000  0.4801200000000  0.5112700000000 1.0
C      1  0.5451240000000  0.5618510000000  0.5203370000000 1.0
C      1  0.4676690000000  0.5226970000000  0.5714160000000 1.0
C      1  0.4519580000000  0.4954060000000  0.5099060000000 1.0
C      1  0.4859800000000  0.5338670000000  0.4805970000000 1.0
C      1  0.5505130000000  0.4913980000000  0.4665740000000 1.0
C      1  0.5563570000000  0.5514630000000  0.4927970000000 1.0
C      1  0.5205620000000  0.4514640000000  0.4337410000000 1.0
C      1  0.5810640000000  0.4731630000000  0.5038430000000 1.0
C      1  0.4510420000000  0.5760810000000  0.4872370000000 1.0
C      1  0.5491950000000  0.5012740000000  0.4367440000000 1.0
C      1  0.4975950000000  0.5031060000000  0.4716930000000 1.0
C      1  0.4219820000000  0.4806050000000  0.5036280000000 1.0
C      1  0.4750470000000  0.5509570000000  0.5653550000000 1.0
C      1  0.5607730000000  0.5528670000000  0.4448560000000 1.0
C      1  0.4517510000000  0.5259500000000  0.4996620000000 1.0
C      1  0.4961380000000  0.5646210000000  0.4792560000000 1.0
C      1  0.4150700000000  0.5088480000000  0.5171240000000 1.0
C      1  0.4525140000000  0.5093560000000  0.5514740000000 1.0
C      1  0.4396060000000  0.4409770000000  0.4900410000000 1.0
C      1  0.4996280000000  0.4689590000000  0.4279490000000 1.0
C      1  0.5226810000000  0.5149880000000  0.5003490000000 1.0
C      1  0.5260570000000  0.4235560000000  0.5189200000000 1.0
C      1  0.5093470000000  0.5224410000000  0.5480600000000 1.0
C      1  0.4952950000000  0.4387400000000  0.4618910000000 1.0
END
