TITL C-2848505-4874-590 -0.00106539304021703 125000 -1067.3012697665 0 0 195 (C1) n - 1
REM
REM in /home/bkarasulu/work/CARBON/AIRSS/Generating-Clusters/AIREBO/with-SteepDescent/Only-C1/SD-CG-opt/Try1-1.4A-POS3A/HFTN-CG
REM
REM
REM
REM
REM
REM ./C.cell (11c1c37f851c82e70ff6c80c92926a4b)
REM
REM compiler GCC version 9.2.1 20190827 (Red Hat 9.2.1-1)
REM options -cpp -mtune=generic -march=x86-64 -g -O0 -fpre-include=/usr/include/finclude/math-vector-fortran.h
REM seed 771077639 1498233882 578896544 915960297 -68264339 -437343905 -543299665 -1600760001 -1418105408 -1911904962 382350032 -1502985204 -78305402 -1880078145 -1936979465 -1831345850 -490096940 -825321090 -1120835227 -368384406 167051266 659184869 838122114 699839413 -1510492706 -371407371 -137707322 756910564 34311279 -1305034319 151139674 2019117208 1245706302
REM
CELL 1.54180   50.00000   50.00000   50.00000   90.00000   90.00000   90.00000
LATT -1
SFAC C  
C      1  0.4000330000000  0.5360940000000  0.5683530000000 1.0
C      1  0.5271600000000  0.5715340000000  0.4758460000000 1.0
C      1  0.4585670000000  0.3968720000000  0.4970950000000 1.0
C      1  0.4814970000000  0.5376410000000  0.4506470000000 1.0
C      1  0.5962070000000  0.5339640000000  0.4580810000000 1.0
C      1  0.5589380000000  0.5474230000000  0.4786210000000 1.0
C      1  0.4405300000000  0.4707930000000  0.5206670000000 1.0
C      1  0.5729860000000  0.5315130000000  0.4367210000000 1.0
C      1  0.5093470000000  0.4821820000000  0.6007340000000 1.0
C      1  0.5044690000000  0.4105060000000  0.5480690000000 1.0
C      1  0.5216410000000  0.5920610000000  0.4522410000000 1.0
C      1  0.4837940000000  0.5670720000000  0.5185450000000 1.0
C      1  0.4867230000000  0.6134430000000  0.5529660000000 1.0
C      1  0.4969740000000  0.5887660000000  0.5672920000000 1.0
C      1  0.5273290000000  0.6134270000000  0.5285630000000 1.0
C      1  0.4754480000000  0.4222690000000  0.5355630000000 1.0
C      1  0.4977150000000  0.5263320000000  0.5602570000000 1.0
C      1  0.5456860000000  0.4683970000000  0.4908720000000 1.0
C      1  0.5545280000000  0.5061720000000  0.4487910000000 1.0
C      1  0.5521940000000  0.4390940000000  0.5461190000000 1.0
C      1  0.4284090000000  0.4936640000000  0.5024240000000 1.0
C      1  0.4734440000000  0.4878360000000  0.5065290000000 1.0
C      1  0.4954630000000  0.4549620000000  0.5249060000000 1.0
C      1  0.4272100000000  0.5082800000000  0.5320670000000 1.0
C      1  0.5728990000000  0.4432010000000  0.4478520000000 1.0
C      1  0.4297980000000  0.4429600000000  0.4727250000000 1.0
C      1  0.4782510000000  0.5801500000000  0.4354800000000 1.0
C      1  0.5549210000000  0.4727080000000  0.5783790000000 1.0
C      1  0.5446550000000  0.4143700000000  0.4410480000000 1.0
C      1  0.4480580000000  0.4968860000000  0.4771570000000 1.0
C      1  0.5384100000000  0.4624840000000  0.4389450000000 1.0
C      1  0.5717080000000  0.5442240000000  0.5332540000000 1.0
C      1  0.5202170000000  0.3965610000000  0.4996550000000 1.0
C      1  0.5662810000000  0.5790140000000  0.4726510000000 1.0
C      1  0.4690570000000  0.4592030000000  0.4473040000000 1.0
C      1  0.5704250000000  0.5579870000000  0.5063010000000 1.0
C      1  0.4668580000000  0.5587640000000  0.4910610000000 1.0
C      1  0.5669310000000  0.5109750000000  0.4102140000000 1.0
C      1  0.5594270000000  0.4393240000000  0.5019600000000 1.0
C      1  0.4947300000000  0.4551890000000  0.4675910000000 1.0
C      1  0.5482510000000  0.5675530000000  0.5636890000000 1.0
C      1  0.5016180000000  0.5150960000000  0.5136650000000 1.0
C      1  0.4698750000000  0.5264270000000  0.5798290000000 1.0
C      1  0.4541140000000  0.5434680000000  0.5307960000000 1.0
C      1  0.5539430000000  0.4266270000000  0.4708890000000 1.0
C      1  0.3880190000000  0.5234670000000  0.5096380000000 1.0
C      1  0.5707580000000  0.5951950000000  0.5321100000000 1.0
C      1  0.5213030000000  0.5182360000000  0.4790090000000 1.0
C      1  0.4735880000000  0.5037540000000  0.4014380000000 1.0
C      1  0.5397610000000  0.4900940000000  0.5958090000000 1.0
C      1  0.4370850000000  0.4433940000000  0.5038000000000 1.0
C      1  0.5281120000000  0.5890730000000  0.5776360000000 1.0
C      1  0.4226520000000  0.5019520000000  0.4328680000000 1.0
C      1  0.4351290000000  0.4723590000000  0.4237200000000 1.0
C      1  0.4632500000000  0.4262380000000  0.5072660000000 1.0
C      1  0.5061450000000  0.4547200000000  0.3819470000000 1.0
C      1  0.5274540000000  0.5098370000000  0.4285110000000 1.0
C      1  0.4768000000000  0.4555030000000  0.4964780000000 1.0
C      1  0.4692040000000  0.4521670000000  0.5451790000000 1.0
C      1  0.4957110000000  0.4791110000000  0.5710630000000 1.0
C      1  0.5542120000000  0.4609080000000  0.4010870000000 1.0
C      1  0.3973140000000  0.5329380000000  0.3988520000000 1.0
C      1  0.5443950000000  0.5208020000000  0.5877030000000 1.0
C      1  0.4523110000000  0.5701950000000  0.5750940000000 1.0
C      1  0.5444490000000  0.5980140000000  0.5490510000000 1.0
C      1  0.4304890000000  0.5329190000000  0.5087670000000 1.0
C      1  0.4963380000000  0.4317080000000  0.4176120000000 1.0
C      1  0.5021080000000  0.5773900000000  0.4942100000000 1.0
C      1  0.4088470000000  0.5671960000000  0.4960190000000 1.0
C      1  0.5930680000000  0.4563780000000  0.4691930000000 1.0
C      1  0.4510680000000  0.5889090000000  0.4701150000000 1.0
C      1  0.4171550000000  0.4713140000000  0.5825700000000 1.0
C      1  0.5011220000000  0.5397580000000  0.4253910000000 1.0
C      1  0.5161690000000  0.4564840000000  0.5012590000000 1.0
C      1  0.4896900000000  0.3879040000000  0.5075490000000 1.0
C      1  0.5357240000000  0.4127240000000  0.5458210000000 1.0
C      1  0.5263530000000  0.4652900000000  0.3970360000000 1.0
C      1  0.6020670000000  0.5282580000000  0.5127810000000 1.0
C      1  0.5691330000000  0.4765940000000  0.4426630000000 1.0
C      1  0.5757910000000  0.4783580000000  0.4828810000000 1.0
C      1  0.3892770000000  0.4995630000000  0.4972880000000 1.0
C      1  0.4979990000000  0.4975890000000  0.5426110000000 1.0
C      1  0.5530580000000  0.3876900000000  0.4981670000000 1.0
C      1  0.5166450000000  0.5387290000000  0.5959670000000 1.0
C      1  0.4473700000000  0.4996720000000  0.5581050000000 1.0
C      1  0.5014560000000  0.6100770000000  0.4983030000000 1.0
C      1  0.5515280000000  0.5839370000000  0.4467630000000 1.0
C      1  0.5700110000000  0.4828680000000  0.4115300000000 1.0
C      1  0.6002960000000  0.4358630000000  0.4902430000000 1.0
C      1  0.4047390000000  0.4698090000000  0.5029220000000 1.0
C      1  0.5066330000000  0.5436840000000  0.4957260000000 1.0
C      1  0.4056400000000  0.4553860000000  0.5553100000000 1.0
C      1  0.4656730000000  0.5494770000000  0.5572020000000 1.0
C      1  0.4212870000000  0.5121610000000  0.4636650000000 1.0
C      1  0.5147230000000  0.4789050000000  0.4224060000000 1.0
C      1  0.4901570000000  0.3884960000000  0.4745700000000 1.0
C      1  0.4382020000000  0.4589890000000  0.6004010000000 1.0
C      1  0.5411260000000  0.5178860000000  0.3984270000000 1.0
C      1  0.4986660000000  0.6199030000000  0.5298700000000 1.0
C      1  0.4399860000000  0.5503220000000  0.4260990000000 1.0
C      1  0.4524470000000  0.5216120000000  0.4140570000000 1.0
C      1  0.5442930000000  0.4138720000000  0.5162920000000 1.0
C      1  0.5052090000000  0.4091230000000  0.4649170000000 1.0
C      1  0.5260010000000  0.4350470000000  0.4231550000000 1.0
C      1  0.5664720000000  0.5106450000000  0.5345970000000 1.0
C      1  0.4951790000000  0.5210950000000  0.5996460000000 1.0
C      1  0.5285990000000  0.5173210000000  0.5590590000000 1.0
C      1  0.4709150000000  0.4220110000000  0.5778220000000 1.0
C      1  0.4955880000000  0.4298350000000  0.4485510000000 1.0
C      1  0.4640280000000  0.4736960000000  0.4092000000000 1.0
C      1  0.6103660000000  0.5092130000000  0.4618340000000 1.0
C      1  0.4810940000000  0.4986810000000  0.4692070000000 1.0
C      1  0.5859680000000  0.5056100000000  0.4931820000000 1.0
C      1  0.4964480000000  0.5587960000000  0.5550710000000 1.0
C      1  0.5348720000000  0.6024930000000  0.4999320000000 1.0
C      1  0.4096900000000  0.4458820000000  0.5238020000000 1.0
C      1  0.5313280000000  0.4896130000000  0.5395360000000 1.0
C      1  0.5390230000000  0.5443390000000  0.5418280000000 1.0
C      1  0.4193180000000  0.5267230000000  0.4135030000000 1.0
C      1  0.4776630000000  0.4943780000000  0.6028120000000 1.0
C      1  0.5299800000000  0.5427440000000  0.4350570000000 1.0
C      1  0.4107530000000  0.5434920000000  0.4717090000000 1.0
C      1  0.4600880000000  0.4681430000000  0.6154430000000 1.0
C      1  0.5326440000000  0.5237750000000  0.5177960000000 1.0
C      1  0.5240260000000  0.4703870000000  0.4647110000000 1.0
C      1  0.4884920000000  0.3845690000000  0.5374840000000 1.0
C      1  0.5888710000000  0.4415590000000  0.5170120000000 1.0
C      1  0.5395970000000  0.5708960000000  0.5063240000000 1.0
C      1  0.4939550000000  0.5985220000000  0.4498380000000 1.0
C      1  0.4353630000000  0.3916320000000  0.5182570000000 1.0
C      1  0.4564020000000  0.5604480000000  0.4525450000000 1.0
C      1  0.4670860000000  0.5102030000000  0.4403610000000 1.0
C      1  0.4426400000000  0.5426180000000  0.4780520000000 1.0
C      1  0.4508270000000  0.5732920000000  0.5148040000000 1.0
C      1  0.5312400000000  0.5439990000000  0.4643560000000 1.0
C      1  0.5328060000000  0.5288410000000  0.3752900000000 1.0
C      1  0.4072070000000  0.5568200000000  0.5521350000000 1.0
C      1  0.4100680000000  0.4875200000000  0.5532520000000 1.0
C      1  0.4432810000000  0.5189200000000  0.5925730000000 1.0
C      1  0.4487280000000  0.4683460000000  0.4683030000000 1.0
C      1  0.5853930000000  0.5731580000000  0.5401060000000 1.0
C      1  0.4466120000000  0.4167570000000  0.4266020000000 1.0
C      1  0.4782370000000  0.6086450000000  0.4756100000000 1.0
C      1  0.6006510000000  0.5229380000000  0.5463580000000 1.0
C      1  0.5010100000000  0.4288670000000  0.5746500000000 1.0
C      1  0.4610620000000  0.3881080000000  0.4660970000000 1.0
C      1  0.5126490000000  0.4987320000000  0.4570440000000 1.0
C      1  0.6196860000000  0.5092530000000  0.4907200000000 1.0
C      1  0.4673230000000  0.4840240000000  0.5369070000000 1.0
C      1  0.4770560000000  0.4496730000000  0.3960670000000 1.0
C      1  0.4905860000000  0.4623580000000  0.6214300000000 1.0
C      1  0.5981500000000  0.4085080000000  0.4822810000000 1.0
C      1  0.5976690000000  0.5505080000000  0.4873680000000 1.0
C      1  0.5230930000000  0.4272020000000  0.4851850000000 1.0
C      1  0.4666820000000  0.4202780000000  0.4073150000000 1.0
C      1  0.4050590000000  0.4838650000000  0.4715840000000 1.0
C      1  0.5958470000000  0.5839270000000  0.4868670000000 1.0
C      1  0.5159060000000  0.5638210000000  0.5289490000000 1.0
C      1  0.6007180000000  0.4849490000000  0.4525090000000 1.0
C      1  0.4258440000000  0.5745940000000  0.5650530000000 1.0
C      1  0.4469660000000  0.6162770000000  0.4878440000000 1.0
C      1  0.5903690000000  0.4920760000000  0.5500950000000 1.0
C      1  0.5790180000000  0.4466620000000  0.5434770000000 1.0
C      1  0.4372100000000  0.4040970000000  0.5430760000000 1.0
C      1  0.5679430000000  0.5512820000000  0.5771850000000 1.0
C      1  0.4644220000000  0.3983750000000  0.5571330000000 1.0
C      1  0.4192390000000  0.5128570000000  0.5719480000000 1.0
C      1  0.4474250000000  0.3940330000000  0.4430510000000 1.0
C      1  0.4136860000000  0.4634960000000  0.4497340000000 1.0
C      1  0.5712910000000  0.3995490000000  0.4788970000000 1.0
C      1  0.5292040000000  0.4104040000000  0.5791550000000 1.0
C      1  0.4852630000000  0.4823960000000  0.4329640000000 1.0
C      1  0.4799690000000  0.5295750000000  0.4833490000000 1.0
C      1  0.5555420000000  0.5600140000000  0.4304230000000 1.0
C      1  0.4386920000000  0.4426470000000  0.4398930000000 1.0
C      1  0.4501190000000  0.4474750000000  0.5707120000000 1.0
C      1  0.4680660000000  0.5205910000000  0.5139070000000 1.0
C      1  0.5681870000000  0.5981670000000  0.5006870000000 1.0
C      1  0.5017090000000  0.4865870000000  0.4934340000000 1.0
C      1  0.4897540000000  0.5665030000000  0.4149440000000 1.0
C      1  0.5600380000000  0.4341430000000  0.4180570000000 1.0
C      1  0.4279880000000  0.4321270000000  0.5494660000000 1.0
C      1  0.4724340000000  0.5740100000000  0.5949040000000 1.0
C      1  0.5364860000000  0.4630850000000  0.5548750000000 1.0
C      1  0.5813260000000  0.4690600000000  0.5621080000000 1.0
C      1  0.4303280000000  0.5923950000000  0.5040330000000 1.0
C      1  0.5548590000000  0.5136840000000  0.4820760000000 1.0
C      1  0.5474910000000  0.4962200000000  0.5103460000000 1.0
C      1  0.4992730000000  0.5133410000000  0.4095130000000 1.0
C      1  0.4044520000000  0.5499400000000  0.5221930000000 1.0
C      1  0.4221330000000  0.5753570000000  0.4663820000000 1.0
C      1  0.5071800000000  0.4544380000000  0.5568200000000 1.0
C      1  0.5059030000000  0.5680500000000  0.5927360000000 1.0
C      1  0.4634700000000  0.4782790000000  0.5762090000000 1.0
C      1  0.5708140000000  0.5223150000000  0.5662530000000 1.0
END
