TITL C-2847948-6138-609 0.00489945439985304 125000 -769.102690534344 0 0 143 (C1) n - 1
REM
REM in /home/bkarasulu/work/CARBON/AIRSS/Generating-Clusters/AIREBO/with-SteepDescent/Only-C1/SD-CG-opt/Try1-1.4A-POS3A/HFTN-CG
REM
REM
REM
REM
REM
REM ./C.cell (11c1c37f851c82e70ff6c80c92926a4b)
REM
REM compiler GCC version 9.2.1 20190827 (Red Hat 9.2.1-1)
REM options -cpp -mtune=generic -march=x86-64 -g -O0 -fpre-include=/usr/include/finclude/math-vector-fortran.h
REM seed -1665765315 548548131 198212415 858010149 1863481656 1798966225 1608587036 -1914428828 1117218148 2000681729 1383302185 1577245245 542143572 -185122682 1637894726 -1206374855 -1288318410 1201446782 -1178635997 -477526454 -443630831 -1973864978 -1482899927 -1392765215 220268842 469246543 807629992 1470917393 -498068185 -111081924 1489826434 1942817160 1617136172
REM
CELL 1.54180   50.00000   50.00000   50.00000   90.00000   90.00000   90.00000
LATT -1
SFAC C  
C      1  0.4597460000000  0.5158640000000  0.4540700000000 1.0
C      1  0.5093490000000  0.5612360000000  0.4277190000000 1.0
C      1  0.5532490000000  0.4286070000000  0.4664890000000 1.0
C      1  0.5077020000000  0.4357170000000  0.5383560000000 1.0
C      1  0.4492600000000  0.5483690000000  0.5131700000000 1.0
C      1  0.4779440000000  0.4973260000000  0.4720570000000 1.0
C      1  0.4502180000000  0.4225640000000  0.5202120000000 1.0
C      1  0.5379790000000  0.5172640000000  0.4602080000000 1.0
C      1  0.4142950000000  0.4695790000000  0.5620530000000 1.0
C      1  0.5016190000000  0.5457100000000  0.5253490000000 1.0
C      1  0.4851350000000  0.4234460000000  0.4717100000000 1.0
C      1  0.4943790000000  0.4264510000000  0.4414590000000 1.0
C      1  0.4570400000000  0.4975020000000  0.5681350000000 1.0
C      1  0.4552540000000  0.5575540000000  0.4590020000000 1.0
C      1  0.5346530000000  0.4929050000000  0.5390100000000 1.0
C      1  0.5123450000000  0.4674050000000  0.5085950000000 1.0
C      1  0.5940060000000  0.5194470000000  0.4611920000000 1.0
C      1  0.4908620000000  0.4341090000000  0.5107100000000 1.0
C      1  0.5689580000000  0.5236780000000  0.5513520000000 1.0
C      1  0.5637650000000  0.4807150000000  0.5005140000000 1.0
C      1  0.4577330000000  0.5559490000000  0.4295800000000 1.0
C      1  0.5151870000000  0.5718910000000  0.5410590000000 1.0
C      1  0.5711380000000  0.4771500000000  0.4722930000000 1.0
C      1  0.4237690000000  0.4921690000000  0.5744340000000 1.0
C      1  0.5258100000000  0.4260530000000  0.4167630000000 1.0
C      1  0.5234220000000  0.4800430000000  0.4803980000000 1.0
C      1  0.5003130000000  0.5233510000000  0.4072650000000 1.0
C      1  0.4266070000000  0.5229930000000  0.5709290000000 1.0
C      1  0.5419150000000  0.4768100000000  0.4451040000000 1.0
C      1  0.5167640000000  0.5292130000000  0.4364520000000 1.0
C      1  0.5197580000000  0.4961250000000  0.4292040000000 1.0
C      1  0.4746460000000  0.5501450000000  0.5455690000000 1.0
C      1  0.4560190000000  0.4782100000000  0.4789040000000 1.0
C      1  0.4877970000000  0.5019330000000  0.5613010000000 1.0
C      1  0.4088500000000  0.5294300000000  0.4698390000000 1.0
C      1  0.4618590000000  0.4512290000000  0.4499930000000 1.0
C      1  0.4037540000000  0.5262940000000  0.5195870000000 1.0
C      1  0.4898190000000  0.3936060000000  0.4783160000000 1.0
C      1  0.4193700000000  0.4559480000000  0.5326470000000 1.0
C      1  0.5245890000000  0.5833330000000  0.4346890000000 1.0
C      1  0.5304540000000  0.5465880000000  0.5073480000000 1.0
C      1  0.5306160000000  0.4021160000000  0.5047740000000 1.0
C      1  0.5239450000000  0.4928740000000  0.3981000000000 1.0
C      1  0.5512980000000  0.5665890000000  0.5249410000000 1.0
C      1  0.5630970000000  0.5487350000000  0.4453660000000 1.0
C      1  0.5470310000000  0.5932740000000  0.5083380000000 1.0
C      1  0.4053340000000  0.5021400000000  0.4637160000000 1.0
C      1  0.4320940000000  0.5215880000000  0.5013440000000 1.0
C      1  0.5196260000000  0.5221440000000  0.4884640000000 1.0
C      1  0.4694610000000  0.5946550000000  0.5232740000000 1.0
C      1  0.5631960000000  0.4769100000000  0.5494750000000 1.0
C      1  0.4786730000000  0.4311530000000  0.4157060000000 1.0
C      1  0.4393480000000  0.5330420000000  0.4706930000000 1.0
C      1  0.5192400000000  0.5250640000000  0.5672380000000 1.0
C      1  0.4769380000000  0.4146840000000  0.5604470000000 1.0
C      1  0.5694110000000  0.5748610000000  0.4904050000000 1.0
C      1  0.4590710000000  0.5754310000000  0.5408860000000 1.0
C      1  0.5929090000000  0.4902590000000  0.5263140000000 1.0
C      1  0.5155800000000  0.4690610000000  0.3892920000000 1.0
C      1  0.5544200000000  0.5280210000000  0.4198190000000 1.0
C      1  0.5503160000000  0.4257250000000  0.4970260000000 1.0
C      1  0.4563210000000  0.4474910000000  0.4093000000000 1.0
C      1  0.5026210000000  0.4760110000000  0.5676640000000 1.0
C      1  0.5867070000000  0.4846580000000  0.5739610000000 1.0
C      1  0.5632860000000  0.4641780000000  0.5810040000000 1.0
C      1  0.5382180000000  0.5899710000000  0.4579010000000 1.0
C      1  0.5775000000000  0.5111790000000  0.5069250000000 1.0
C      1  0.4342570000000  0.4452990000000  0.5580670000000 1.0
C      1  0.4702150000000  0.4080670000000  0.5325420000000 1.0
C      1  0.4872570000000  0.4652780000000  0.4344040000000 1.0
C      1  0.4725490000000  0.4807820000000  0.5933780000000 1.0
C      1  0.5046450000000  0.5071490000000  0.5924010000000 1.0
C      1  0.4951720000000  0.6076520000000  0.5183400000000 1.0
C      1  0.5276920000000  0.4347410000000  0.5658510000000 1.0
C      1  0.5512090000000  0.5613320000000  0.5577800000000 1.0
C      1  0.5426190000000  0.4559250000000  0.5106580000000 1.0
C      1  0.4992170000000  0.4024530000000  0.5184010000000 1.0
C      1  0.5120500000000  0.3838780000000  0.4855520000000 1.0
C      1  0.5866740000000  0.5453340000000  0.4698820000000 1.0
C      1  0.5001240000000  0.5824060000000  0.4877700000000 1.0
C      1  0.5231240000000  0.4534050000000  0.4588240000000 1.0
C      1  0.4383620000000  0.4741480000000  0.4523850000000 1.0
C      1  0.4890360000000  0.5299040000000  0.4518750000000 1.0
C      1  0.4957120000000  0.6116730000000  0.4883540000000 1.0
C      1  0.4339290000000  0.4356270000000  0.4615340000000 1.0
C      1  0.5470700000000  0.4354210000000  0.5378670000000 1.0
C      1  0.4796050000000  0.5609650000000  0.5043680000000 1.0
C      1  0.5364330000000  0.5494130000000  0.4647270000000 1.0
C      1  0.4379430000000  0.4883840000000  0.5058480000000 1.0
C      1  0.5081750000000  0.4436950000000  0.4856170000000 1.0
C      1  0.4774690000000  0.5413160000000  0.4792090000000 1.0
C      1  0.4409390000000  0.5376240000000  0.4179100000000 1.0
C      1  0.5746210000000  0.4345830000000  0.5191730000000 1.0
C      1  0.5835430000000  0.4610840000000  0.5286530000000 1.0
C      1  0.5364280000000  0.4988800000000  0.5055720000000 1.0
C      1  0.4824920000000  0.5643180000000  0.4198310000000 1.0
C      1  0.5273950000000  0.4077140000000  0.5366880000000 1.0
C      1  0.5015820000000  0.4146840000000  0.5717520000000 1.0
C      1  0.5185620000000  0.5942670000000  0.5259890000000 1.0
C      1  0.5688260000000  0.5028530000000  0.4586540000000 1.0
C      1  0.4743450000000  0.5177570000000  0.4067030000000 1.0
C      1  0.4444800000000  0.4544300000000  0.5097620000000 1.0
C      1  0.4746180000000  0.4607610000000  0.5242010000000 1.0
C      1  0.5592680000000  0.5009510000000  0.4285940000000 1.0
C      1  0.4491720000000  0.5846540000000  0.4716620000000 1.0
C      1  0.5275360000000  0.4219640000000  0.4483070000000 1.0
C      1  0.4485180000000  0.5052300000000  0.4249550000000 1.0
C      1  0.4316180000000  0.5642570000000  0.5357290000000 1.0
C      1  0.3813140000000  0.5133760000000  0.5298490000000 1.0
C      1  0.4206990000000  0.4938320000000  0.4408680000000 1.0
C      1  0.5297030000000  0.5732840000000  0.4862860000000 1.0
C      1  0.5081620000000  0.5141860000000  0.5369790000000 1.0
C      1  0.5056330000000  0.4492810000000  0.4106540000000 1.0
C      1  0.4555610000000  0.5285010000000  0.5820390000000 1.0
C      1  0.4680040000000  0.5243830000000  0.5237110000000 1.0
C      1  0.4876820000000  0.5146700000000  0.4977170000000 1.0
C      1  0.4591680000000  0.5869030000000  0.4962020000000 1.0
C      1  0.5345400000000  0.5143670000000  0.6021600000000 1.0
C      1  0.5010570000000  0.5552420000000  0.5859810000000 1.0
C      1  0.5630550000000  0.4533780000000  0.4577990000000 1.0
C      1  0.5922710000000  0.5039490000000  0.5516940000000 1.0
C      1  0.4278850000000  0.5280070000000  0.5405020000000 1.0
C      1  0.5329480000000  0.4879490000000  0.5722750000000 1.0
C      1  0.5052260000000  0.4740720000000  0.6002510000000 1.0
C      1  0.5505830000000  0.5169990000000  0.5736500000000 1.0
C      1  0.4488210000000  0.5014900000000  0.5353310000000 1.0
C      1  0.4623840000000  0.4436910000000  0.5519160000000 1.0
C      1  0.5802760000000  0.5452810000000  0.5031890000000 1.0
C      1  0.5295100000000  0.5543640000000  0.5736190000000 1.0
C      1  0.5322160000000  0.4573570000000  0.5866410000000 1.0
C      1  0.4763610000000  0.5455020000000  0.5746480000000 1.0
C      1  0.4921410000000  0.4514450000000  0.5586270000000 1.0
C      1  0.5773530000000  0.5514600000000  0.5365190000000 1.0
C      1  0.3970580000000  0.5403250000000  0.4915890000000 1.0
C      1  0.4930700000000  0.4891600000000  0.5195590000000 1.0
C      1  0.4589890000000  0.4749560000000  0.4181730000000 1.0
C      1  0.4650450000000  0.4472320000000  0.4836420000000 1.0
C      1  0.5518790000000  0.5245660000000  0.5219170000000 1.0
C      1  0.4093050000000  0.4855210000000  0.4877210000000 1.0
C      1  0.5327750000000  0.5243860000000  0.4002650000000 1.0
C      1  0.4255470000000  0.4410740000000  0.4848640000000 1.0
C      1  0.5011660000000  0.4862400000000  0.4554520000000 1.0
C      1  0.5645460000000  0.5775880000000  0.4625320000000 1.0
END
