TITL C-2848497-6229-351 -0.000989690661746307 125000 -1068.91240743242 0 0 198 (C1) n - 1
REM
REM in /home/bkarasulu/work/CARBON/AIRSS/Generating-Clusters/AIREBO/with-SteepDescent/Only-C1/SD-CG-opt/Try1-1.4A-POS3A/HFTN-CG
REM
REM
REM
REM
REM
REM ./C.cell (11c1c37f851c82e70ff6c80c92926a4b)
REM
REM compiler GCC version 9.2.1 20190827 (Red Hat 9.2.1-1)
REM options -cpp -mtune=generic -march=x86-64 -g -O0 -fpre-include=/usr/include/finclude/math-vector-fortran.h
REM seed -1194325689 989689501 1199909025 -593551245 -553567267 -798458713 -1535491265 153745391 1420004322 -298500895 -1986371364 901781139 -269087528 1273476975 -1166550721 -109821129 -1075462566 1220018803 -854798525 -2133198223 809440889 511002973 -999166008 -160804826 -1326538666 -1698182188 -330835604 -545140114 399336998 751095083 -2013755582 2031443275 -447746562
REM
CELL 1.54180   50.00000   50.00000   50.00000   90.00000   90.00000   90.00000
LATT -1
SFAC C  
C      1  0.4772490000000  0.3966380000000  0.4804740000000 1.0
C      1  0.5423180000000  0.4904350000000  0.4177440000000 1.0
C      1  0.5308360000000  0.4655340000000  0.4029110000000 1.0
C      1  0.5102320000000  0.5690800000000  0.4682560000000 1.0
C      1  0.4265970000000  0.5827870000000  0.4652000000000 1.0
C      1  0.4586640000000  0.5578410000000  0.5413080000000 1.0
C      1  0.4576320000000  0.5052220000000  0.4013970000000 1.0
C      1  0.5255040000000  0.5192040000000  0.5328230000000 1.0
C      1  0.5823960000000  0.4336530000000  0.5782160000000 1.0
C      1  0.5840230000000  0.4604810000000  0.4612860000000 1.0
C      1  0.5884320000000  0.5473710000000  0.4478800000000 1.0
C      1  0.4763480000000  0.4437870000000  0.6007130000000 1.0
C      1  0.4241740000000  0.4846530000000  0.5341600000000 1.0
C      1  0.4535830000000  0.4204910000000  0.4857100000000 1.0
C      1  0.4760810000000  0.5817550000000  0.4309690000000 1.0
C      1  0.4386950000000  0.4107160000000  0.5214740000000 1.0
C      1  0.4258090000000  0.5403360000000  0.4500360000000 1.0
C      1  0.5127820000000  0.4921290000000  0.4841020000000 1.0
C      1  0.4580500000000  0.4681140000000  0.5955660000000 1.0
C      1  0.3877610000000  0.4596170000000  0.4919970000000 1.0
C      1  0.4556160000000  0.4223900000000  0.4340050000000 1.0
C      1  0.5047870000000  0.5507500000000  0.5886580000000 1.0
C      1  0.5074670000000  0.4845060000000  0.3613970000000 1.0
C      1  0.4016070000000  0.4747200000000  0.4668650000000 1.0
C      1  0.5426790000000  0.5933410000000  0.5079110000000 1.0
C      1  0.4993170000000  0.3946550000000  0.4546650000000 1.0
C      1  0.5347710000000  0.5506180000000  0.3923230000000 1.0
C      1  0.4659470000000  0.4953650000000  0.4302040000000 1.0
C      1  0.4989520000000  0.4683790000000  0.3969360000000 1.0
C      1  0.4470950000000  0.5273380000000  0.5508870000000 1.0
C      1  0.5279910000000  0.4718160000000  0.3698600000000 1.0
C      1  0.4301390000000  0.5189750000000  0.5767650000000 1.0
C      1  0.5528240000000  0.4328910000000  0.4457230000000 1.0
C      1  0.5118430000000  0.6222130000000  0.5321840000000 1.0
C      1  0.4293790000000  0.5757370000000  0.4320540000000 1.0
C      1  0.4114230000000  0.4824140000000  0.4132260000000 1.0
C      1  0.4987680000000  0.4637230000000  0.4888380000000 1.0
C      1  0.5032250000000  0.4390020000000  0.5063300000000 1.0
C      1  0.4486420000000  0.4972690000000  0.4538220000000 1.0
C      1  0.3897670000000  0.4888280000000  0.5092970000000 1.0
C      1  0.4764220000000  0.4447130000000  0.5352100000000 1.0
C      1  0.5285580000000  0.4069230000000  0.4670760000000 1.0
C      1  0.5966360000000  0.4516830000000  0.5081790000000 1.0
C      1  0.5018110000000  0.5071900000000  0.4059390000000 1.0
C      1  0.5430340000000  0.4851940000000  0.4980390000000 1.0
C      1  0.4112870000000  0.4955070000000  0.5707790000000 1.0
C      1  0.5727810000000  0.5113980000000  0.4556160000000 1.0
C      1  0.4872330000000  0.4402790000000  0.3989880000000 1.0
C      1  0.4215210000000  0.4127560000000  0.4929250000000 1.0
C      1  0.3842810000000  0.5328900000000  0.4807040000000 1.0
C      1  0.4874940000000  0.4727350000000  0.5531170000000 1.0
C      1  0.4785100000000  0.5816610000000  0.5271020000000 1.0
C      1  0.5248700000000  0.5664060000000  0.4177720000000 1.0
C      1  0.4748710000000  0.5999700000000  0.4562680000000 1.0
C      1  0.5409370000000  0.5302490000000  0.4145500000000 1.0
C      1  0.5459520000000  0.5776330000000  0.4335260000000 1.0
C      1  0.5395360000000  0.5331360000000  0.5750050000000 1.0
C      1  0.5613270000000  0.4097250000000  0.4691150000000 1.0
C      1  0.4613590000000  0.4808130000000  0.5675600000000 1.0
C      1  0.5722870000000  0.5273720000000  0.4255970000000 1.0
C      1  0.5387820000000  0.6144210000000  0.5283780000000 1.0
C      1  0.5237240000000  0.5914350000000  0.5648200000000 1.0
C      1  0.5692100000000  0.4247070000000  0.4979340000000 1.0
C      1  0.4047080000000  0.4906040000000  0.4395010000000 1.0
C      1  0.4017870000000  0.4369860000000  0.4992700000000 1.0
C      1  0.4328380000000  0.4436470000000  0.4428660000000 1.0
C      1  0.4375980000000  0.5611200000000  0.4976350000000 1.0
C      1  0.4235840000000  0.4712320000000  0.5765950000000 1.0
C      1  0.5581580000000  0.4727210000000  0.4716870000000 1.0
C      1  0.5128480000000  0.4347740000000  0.5703350000000 1.0
C      1  0.5278600000000  0.3989160000000  0.5200250000000 1.0
C      1  0.4392570000000  0.4770330000000  0.4067560000000 1.0
C      1  0.4892950000000  0.4145830000000  0.5607600000000 1.0
C      1  0.5212130000000  0.5055170000000  0.6195640000000 1.0
C      1  0.5043100000000  0.4786860000000  0.4475470000000 1.0
C      1  0.4508110000000  0.4668560000000  0.5384050000000 1.0
C      1  0.4126510000000  0.4424770000000  0.5649230000000 1.0
C      1  0.4473070000000  0.5955430000000  0.5479170000000 1.0
C      1  0.5779500000000  0.4371120000000  0.5283870000000 1.0
C      1  0.4705440000000  0.5901600000000  0.5651970000000 1.0
C      1  0.4386390000000  0.4356870000000  0.5445630000000 1.0
C      1  0.5977050000000  0.5819320000000  0.4824180000000 1.0
C      1  0.4584530000000  0.5406550000000  0.5150270000000 1.0
C      1  0.5416640000000  0.4911840000000  0.5425840000000 1.0
C      1  0.5343360000000  0.5862590000000  0.4584360000000 1.0
C      1  0.4292550000000  0.5716230000000  0.5430150000000 1.0
C      1  0.5177160000000  0.4161580000000  0.4370200000000 1.0
C      1  0.5420770000000  0.4527780000000  0.5083630000000 1.0
C      1  0.4596490000000  0.5430440000000  0.4474010000000 1.0
C      1  0.4885740000000  0.4511240000000  0.4596020000000 1.0
C      1  0.5010260000000  0.3958200000000  0.5413720000000 1.0
C      1  0.5907590000000  0.5547690000000  0.4737800000000 1.0
C      1  0.4535720000000  0.5699320000000  0.4185870000000 1.0
C      1  0.4316230000000  0.5084150000000  0.5130460000000 1.0
C      1  0.4633430000000  0.5206080000000  0.4727010000000 1.0
C      1  0.5696930000000  0.4972370000000  0.5712550000000 1.0
C      1  0.4901910000000  0.5579580000000  0.4456010000000 1.0
C      1  0.5451160000000  0.6060690000000  0.5552110000000 1.0
C      1  0.5843230000000  0.4703360000000  0.4139080000000 1.0
C      1  0.4385400000000  0.5282310000000  0.4916660000000 1.0
C      1  0.5054380000000  0.5345870000000  0.6116670000000 1.0
C      1  0.6206270000000  0.5190310000000  0.4920790000000 1.0
C      1  0.5087970000000  0.4424030000000  0.5397110000000 1.0
C      1  0.4948890000000  0.4828970000000  0.6142700000000 1.0
C      1  0.4576160000000  0.4491880000000  0.4736130000000 1.0
C      1  0.5119300000000  0.5190160000000  0.5627830000000 1.0
C      1  0.5677170000000  0.5771500000000  0.4975910000000 1.0
C      1  0.4602520000000  0.4896200000000  0.6174940000000 1.0
C      1  0.4598380000000  0.3702850000000  0.4942560000000 1.0
C      1  0.4197170000000  0.4832970000000  0.4945430000000 1.0
C      1  0.5494810000000  0.5525930000000  0.4823290000000 1.0
C      1  0.4655870000000  0.3970580000000  0.4485140000000 1.0
C      1  0.4784210000000  0.5494970000000  0.4824370000000 1.0
C      1  0.3987850000000  0.5607890000000  0.5085800000000 1.0
C      1  0.4412010000000  0.5921770000000  0.4944370000000 1.0
C      1  0.5638820000000  0.5112060000000  0.4860710000000 1.0
C      1  0.5236370000000  0.5670520000000  0.5125510000000 1.0
C      1  0.4837540000000  0.4701900000000  0.4249540000000 1.0
C      1  0.4807240000000  0.4999470000000  0.4900680000000 1.0
C      1  0.3773500000000  0.5127150000000  0.4932810000000 1.0
C      1  0.6078930000000  0.4955140000000  0.4872080000000 1.0
C      1  0.5175560000000  0.5430560000000  0.4892210000000 1.0
C      1  0.5113850000000  0.5201240000000  0.4648240000000 1.0
C      1  0.5875250000000  0.4801490000000  0.5584440000000 1.0
C      1  0.4621770000000  0.4234340000000  0.5658730000000 1.0
C      1  0.5752880000000  0.5380740000000  0.4990430000000 1.0
C      1  0.5174080000000  0.5393150000000  0.4373730000000 1.0
C      1  0.4940370000000  0.5078280000000  0.5267370000000 1.0
C      1  0.4744260000000  0.4244680000000  0.5103070000000 1.0
C      1  0.5660420000000  0.5248830000000  0.5754060000000 1.0
C      1  0.6031280000000  0.4928520000000  0.5388390000000 1.0
C      1  0.4942810000000  0.5754780000000  0.4976050000000 1.0
C      1  0.4614850000000  0.5368530000000  0.4140060000000 1.0
C      1  0.4083920000000  0.5562820000000  0.4255690000000 1.0
C      1  0.4832100000000  0.5132690000000  0.6129700000000 1.0
C      1  0.5921140000000  0.5678340000000  0.5194160000000 1.0
C      1  0.4811450000000  0.4375050000000  0.4292430000000 1.0
C      1  0.4346050000000  0.4695820000000  0.4602790000000 1.0
C      1  0.4921860000000  0.5381290000000  0.5114090000000 1.0
C      1  0.4653120000000  0.4817880000000  0.5115040000000 1.0
C      1  0.5287970000000  0.4284060000000  0.4899150000000 1.0
C      1  0.3945170000000  0.4971090000000  0.5415660000000 1.0
C      1  0.4402090000000  0.4423150000000  0.5838740000000 1.0
C      1  0.5634590000000  0.5517410000000  0.5281720000000 1.0
C      1  0.5358220000000  0.4366130000000  0.4165040000000 1.0
C      1  0.5474810000000  0.5341190000000  0.4561010000000 1.0
C      1  0.6104970000000  0.5190890000000  0.5383470000000 1.0
C      1  0.5358450000000  0.5180360000000  0.5032330000000 1.0
C      1  0.4223400000000  0.5112730000000  0.4477640000000 1.0
C      1  0.5265920000000  0.4683380000000  0.5302460000000 1.0
C      1  0.4643800000000  0.3929180000000  0.5180360000000 1.0
C      1  0.4543660000000  0.5175680000000  0.6001370000000 1.0
C      1  0.4097480000000  0.5547390000000  0.5328570000000 1.0
C      1  0.4953240000000  0.5060470000000  0.4383410000000 1.0
C      1  0.4439230000000  0.4641330000000  0.4987110000000 1.0
C      1  0.4110980000000  0.5535770000000  0.4777050000000 1.0
C      1  0.5857170000000  0.5592750000000  0.5513910000000 1.0
C      1  0.4838320000000  0.4944210000000  0.3824790000000 1.0
C      1  0.5597230000000  0.4180980000000  0.5781560000000 1.0
C      1  0.5782470000000  0.4514560000000  0.4327890000000 1.0
C      1  0.5456210000000  0.4264520000000  0.5296710000000 1.0
C      1  0.5344140000000  0.5504640000000  0.5369220000000 1.0
C      1  0.5299620000000  0.4546510000000  0.6126100000000 1.0
C      1  0.5843660000000  0.4512540000000  0.5564990000000 1.0
C      1  0.4771920000000  0.5571280000000  0.5698080000000 1.0
C      1  0.5933420000000  0.4898960000000  0.4639670000000 1.0
C      1  0.4727270000000  0.6002700000000  0.4888320000000 1.0
C      1  0.5269090000000  0.5622120000000  0.5665500000000 1.0
C      1  0.4955920000000  0.5430030000000  0.5449190000000 1.0
C      1  0.5094670000000  0.4862420000000  0.5701740000000 1.0
C      1  0.5352830000000  0.4730660000000  0.4530180000000 1.0
C      1  0.4583630000000  0.5716150000000  0.4652180000000 1.0
C      1  0.4269090000000  0.4450630000000  0.5149120000000 1.0
C      1  0.6035610000000  0.5485600000000  0.5947030000000 1.0
C      1  0.4695240000000  0.5078890000000  0.5486630000000 1.0
C      1  0.4968120000000  0.3917590000000  0.5078730000000 1.0
C      1  0.5704040000000  0.5630700000000  0.4277320000000 1.0
C      1  0.4967370000000  0.5994200000000  0.5496940000000 1.0
C      1  0.5402600000000  0.4251070000000  0.5608460000000 1.0
C      1  0.5347160000000  0.5043550000000  0.4457440000000 1.0
C      1  0.4457710000000  0.4493980000000  0.4149820000000 1.0
C      1  0.5516910000000  0.3971300000000  0.4992890000000 1.0
C      1  0.4964440000000  0.4757150000000  0.5205740000000 1.0
C      1  0.5674580000000  0.4908020000000  0.5210360000000 1.0
C      1  0.5417880000000  0.4866460000000  0.5758590000000 1.0
C      1  0.5864900000000  0.5446540000000  0.5743040000000 1.0
C      1  0.5709380000000  0.4954950000000  0.4138040000000 1.0
C      1  0.6062940000000  0.5375980000000  0.5129910000000 1.0
C      1  0.5931170000000  0.4404900000000  0.4807480000000 1.0
C      1  0.4567660000000  0.6065290000000  0.5190400000000 1.0
C      1  0.5213680000000  0.4435410000000  0.4530990000000 1.0
C      1  0.4944040000000  0.5362650000000  0.4124970000000 1.0
C      1  0.5435800000000  0.6028780000000  0.4774410000000 1.0
C      1  0.5338440000000  0.4826390000000  0.6053150000000 1.0
C      1  0.5042080000000  0.4598930000000  0.5910280000000 1.0
C      1  0.5966240000000  0.4810600000000  0.5110540000000 1.0
C      1  0.4494320000000  0.5460660000000  0.5860850000000 1.0
C      1  0.4156600000000  0.5239780000000  0.5383750000000 1.0
END
