TITL C-2848507-1641-499 -0.00256825001856774 125000 -232.115451818607 0 0 43 (C1) n - 1
REM
REM in /home/bkarasulu/work/CARBON/AIRSS/Generating-Clusters/AIREBO/with-SteepDescent/Only-C1/SD-CG-opt/Try1-1.4A-POS3A/HFTN-CG
REM
REM
REM
REM
REM
REM ./C.cell (11c1c37f851c82e70ff6c80c92926a4b)
REM
REM compiler GCC version 9.2.1 20190827 (Red Hat 9.2.1-1)
REM options -cpp -mtune=generic -march=x86-64 -g -O0 -fpre-include=/usr/include/finclude/math-vector-fortran.h
REM seed 1906290080 -2036605131 834757753 177309026 1458303046 1030550628 -1974938524 896207485 1260891475 879800154 -748397918 1666341012 487928080 -251676679 -1297908448 684048508 1314887650 38132111 -1185728182 787181714 -1233457016 -1018304303 1021265879 549863828 344859629 -1589028686 772506444 -255698820 527090240 -544672625 1267869634 -314983867 289022122
REM
CELL 1.54180   50.00000   50.00000   50.00000   90.00000   90.00000   90.00000
LATT -1
SFAC C  
C      1  0.5221920000000  0.4621490000000  0.4563960000000 1.0
C      1  0.4291450000000  0.4961030000000  0.5025260000000 1.0
C      1  0.4439340000000  0.5123650000000  0.4805570000000 1.0
C      1  0.5176840000000  0.4538020000000  0.5173150000000 1.0
C      1  0.5218820000000  0.5578960000000  0.5585200000000 1.0
C      1  0.4959490000000  0.4277040000000  0.5205770000000 1.0
C      1  0.5177710000000  0.5291750000000  0.4452430000000 1.0
C      1  0.4720250000000  0.5334950000000  0.5442650000000 1.0
C      1  0.4650610000000  0.4359810000000  0.5086870000000 1.0
C      1  0.5186290000000  0.4649880000000  0.4884900000000 1.0
C      1  0.5467740000000  0.5242130000000  0.4870290000000 1.0
C      1  0.5168770000000  0.4945950000000  0.5446530000000 1.0
C      1  0.4614190000000  0.5349700000000  0.5749770000000 1.0
C      1  0.5267540000000  0.5516870000000  0.4333030000000 1.0
C      1  0.5007560000000  0.5360650000000  0.5168130000000 1.0
C      1  0.4855380000000  0.4599100000000  0.5207030000000 1.0
C      1  0.4862560000000  0.5164060000000  0.4660350000000 1.0
C      1  0.5197750000000  0.5239950000000  0.5546970000000 1.0
C      1  0.4941410000000  0.5414320000000  0.5685880000000 1.0
C      1  0.4570410000000  0.5324940000000  0.4564910000000 1.0
C      1  0.5662010000000  0.5054590000000  0.4782090000000 1.0
C      1  0.5580200000000  0.4840800000000  0.5201620000000 1.0
C      1  0.4687830000000  0.4896300000000  0.4776090000000 1.0
C      1  0.4901710000000  0.5087390000000  0.5318850000000 1.0
C      1  0.5334490000000  0.4752380000000  0.5321920000000 1.0
C      1  0.5061550000000  0.4928520000000  0.4914070000000 1.0
C      1  0.4683280000000  0.5498660000000  0.5170460000000 1.0
C      1  0.4463950000000  0.4815340000000  0.5179010000000 1.0
C      1  0.4907680000000  0.4569370000000  0.4468170000000 1.0
C      1  0.4852320000000  0.5419320000000  0.4884810000000 1.0
C      1  0.4599590000000  0.4405100000000  0.4784980000000 1.0
C      1  0.4704990000000  0.4617020000000  0.4648730000000 1.0
C      1  0.4995520000000  0.5064920000000  0.4361490000000 1.0
C      1  0.4781220000000  0.4892160000000  0.5103060000000 1.0
C      1  0.5641950000000  0.4800140000000  0.4913990000000 1.0
C      1  0.4514100000000  0.5432080000000  0.4887760000000 1.0
C      1  0.5488490000000  0.4614830000000  0.4766750000000 1.0
C      1  0.4452260000000  0.4552010000000  0.5255600000000 1.0
C      1  0.5182750000000  0.5198500000000  0.4769900000000 1.0
C      1  0.5283450000000  0.5436790000000  0.5283630000000 1.0
C      1  0.5651570000000  0.5111080000000  0.5277550000000 1.0
C      1  0.5506720000000  0.5314150000000  0.5137080000000 1.0
C      1  0.5066290000000  0.4804340000000  0.4333730000000 1.0
END
