TITL C-2847945-6269-711 0.00138729164111559 125000 -546.321748410329 0 0 99 (C1) n - 1
REM
REM in /home/bkarasulu/work/CARBON/AIRSS/Generating-Clusters/AIREBO/with-SteepDescent/Only-C1/SD-CG-opt/Try1-1.4A-POS3A/HFTN-CG
REM
REM
REM
REM
REM
REM ./C.cell (11c1c37f851c82e70ff6c80c92926a4b)
REM
REM compiler GCC version 9.2.1 20190827 (Red Hat 9.2.1-1)
REM options -cpp -mtune=generic -march=x86-64 -g -O0 -fpre-include=/usr/include/finclude/math-vector-fortran.h
REM seed -1357840691 -1365695891 -1386065350 -1307295515 -1493056595 -543641556 -1807117759 -1963024578 708534821 -1436094868 1362943065 -1405629491 1732617808 54781959 1355604552 313777626 -1023025616 -1240611833 -821209593 -748642398 1855602657 1046636826 -479379095 -52902369 -1829073075 -763780127 685675790 1770277594 709032925 1530230319 1346631759 -22786352 1219823096
REM
CELL 1.54180   50.00000   50.00000   50.00000   90.00000   90.00000   90.00000
LATT -1
SFAC C  
C      1  0.5765130000000  0.5103790000000  0.4920690000000 1.0
C      1  0.5166570000000  0.5351510000000  0.5528390000000 1.0
C      1  0.5391510000000  0.5255330000000  0.5765470000000 1.0
C      1  0.5763470000000  0.5635030000000  0.4673000000000 1.0
C      1  0.4447220000000  0.5637400000000  0.4977130000000 1.0
C      1  0.5267200000000  0.4217150000000  0.4888640000000 1.0
C      1  0.5470360000000  0.4401100000000  0.4988140000000 1.0
C      1  0.5481210000000  0.4939460000000  0.4615510000000 1.0
C      1  0.5144570000000  0.4722840000000  0.6014420000000 1.0
C      1  0.4451300000000  0.4256000000000  0.5149860000000 1.0
C      1  0.4550600000000  0.5234530000000  0.4275000000000 1.0
C      1  0.4983400000000  0.5169850000000  0.4765150000000 1.0
C      1  0.4765970000000  0.5140630000000  0.5342880000000 1.0
C      1  0.4460190000000  0.4942700000000  0.4241120000000 1.0
C      1  0.4975900000000  0.5245350000000  0.5096660000000 1.0
C      1  0.5427650000000  0.4687030000000  0.4312860000000 1.0
C      1  0.5468060000000  0.5231810000000  0.4674910000000 1.0
C      1  0.4252960000000  0.5137130000000  0.4983920000000 1.0
C      1  0.4571560000000  0.4966180000000  0.5659580000000 1.0
C      1  0.5743450000000  0.4802960000000  0.4759340000000 1.0
C      1  0.4509550000000  0.5610390000000  0.5813530000000 1.0
C      1  0.4945940000000  0.5669050000000  0.4903530000000 1.0
C      1  0.5440580000000  0.4697270000000  0.5924660000000 1.0
C      1  0.5361610000000  0.5304080000000  0.5183240000000 1.0
C      1  0.4711690000000  0.5424870000000  0.4980060000000 1.0
C      1  0.4662090000000  0.4462480000000  0.4436560000000 1.0
C      1  0.4732110000000  0.4754050000000  0.4876260000000 1.0
C      1  0.5452380000000  0.4686360000000  0.5432980000000 1.0
C      1  0.4623550000000  0.5571020000000  0.5567790000000 1.0
C      1  0.4412670000000  0.5353150000000  0.4510050000000 1.0
C      1  0.5185650000000  0.5347840000000  0.4572540000000 1.0
C      1  0.4898470000000  0.4113920000000  0.5295440000000 1.0
C      1  0.5245720000000  0.5191120000000  0.4007520000000 1.0
C      1  0.5040270000000  0.5083980000000  0.4173240000000 1.0
C      1  0.5698770000000  0.4777370000000  0.4421300000000 1.0
C      1  0.5060180000000  0.5290660000000  0.5845650000000 1.0
C      1  0.4847090000000  0.4873950000000  0.5158700000000 1.0
C      1  0.5712310000000  0.4581870000000  0.4991630000000 1.0
C      1  0.4834000000000  0.5273720000000  0.4259680000000 1.0
C      1  0.5500770000000  0.4526730000000  0.5687660000000 1.0
C      1  0.5158180000000  0.5072560000000  0.5326970000000 1.0
C      1  0.5340660000000  0.4273610000000  0.5669340000000 1.0
C      1  0.4214820000000  0.4588350000000  0.4641900000000 1.0
C      1  0.4941080000000  0.5585390000000  0.5445710000000 1.0
C      1  0.4365640000000  0.4935720000000  0.5461400000000 1.0
C      1  0.4622710000000  0.4176750000000  0.4620200000000 1.0
C      1  0.4304010000000  0.4499190000000  0.5145510000000 1.0
C      1  0.5305110000000  0.5087430000000  0.3766250000000 1.0
C      1  0.5112890000000  0.4461330000000  0.5620830000000 1.0
C      1  0.4741520000000  0.4620920000000  0.5360110000000 1.0
C      1  0.5121690000000  0.5544450000000  0.5166570000000 1.0
C      1  0.5434900000000  0.5555750000000  0.5484220000000 1.0
C      1  0.5330570000000  0.5106270000000  0.4942040000000 1.0
C      1  0.5033630000000  0.4528000000000  0.5212710000000 1.0
C      1  0.5656030000000  0.5382970000000  0.5063300000000 1.0
C      1  0.5144540000000  0.4840930000000  0.4989930000000 1.0
C      1  0.4520660000000  0.5567240000000  0.4660280000000 1.0
C      1  0.5114150000000  0.4818530000000  0.4321210000000 1.0
C      1  0.5033100000000  0.4124910000000  0.5029130000000 1.0
C      1  0.4352010000000  0.5392230000000  0.5150090000000 1.0
C      1  0.4931950000000  0.5454140000000  0.4450070000000 1.0
C      1  0.4709970000000  0.5815920000000  0.5371020000000 1.0
C      1  0.5755030000000  0.5617370000000  0.4969890000000 1.0
C      1  0.5188630000000  0.4813070000000  0.4653100000000 1.0
C      1  0.5545580000000  0.5242940000000  0.5462590000000 1.0
C      1  0.5120050000000  0.4756120000000  0.5451020000000 1.0
C      1  0.4705050000000  0.4175740000000  0.4950910000000 1.0
C      1  0.4444610000000  0.4886420000000  0.4950900000000 1.0
C      1  0.4946020000000  0.4598840000000  0.5818230000000 1.0
C      1  0.4744610000000  0.4718150000000  0.5671660000000 1.0
C      1  0.4895730000000  0.4361990000000  0.4657650000000 1.0
C      1  0.4621950000000  0.5867250000000  0.5112360000000 1.0
C      1  0.5640960000000  0.4926500000000  0.5410860000000 1.0
C      1  0.5505690000000  0.4951260000000  0.5727240000000 1.0
C      1  0.4887310000000  0.5089790000000  0.5644390000000 1.0
C      1  0.5386140000000  0.5407650000000  0.4120640000000 1.0
C      1  0.4680940000000  0.4287500000000  0.5333890000000 1.0
C      1  0.4644710000000  0.5140790000000  0.4844240000000 1.0
C      1  0.4443710000000  0.4666460000000  0.4447360000000 1.0
C      1  0.4269690000000  0.4634220000000  0.4901600000000 1.0
C      1  0.5796300000000  0.4869480000000  0.5146790000000 1.0
C      1  0.4532020000000  0.4970170000000  0.4572480000000 1.0
C      1  0.4547360000000  0.5336710000000  0.5387760000000 1.0
C      1  0.5569400000000  0.5706770000000  0.4480210000000 1.0
C      1  0.4852820000000  0.4481810000000  0.4960320000000 1.0
C      1  0.5764640000000  0.5340760000000  0.4681840000000 1.0
C      1  0.5166680000000  0.4923170000000  0.5743480000000 1.0
C      1  0.4930470000000  0.6200790000000  0.4857410000000 1.0
C      1  0.5332310000000  0.4619400000000  0.5143620000000 1.0
C      1  0.5301710000000  0.4507500000000  0.4523100000000 1.0
C      1  0.4793040000000  0.5599400000000  0.4630040000000 1.0
C      1  0.4213770000000  0.5131780000000  0.5321620000000 1.0
C      1  0.5403410000000  0.5498790000000  0.4385110000000 1.0
C      1  0.4837700000000  0.5962360000000  0.4942000000000 1.0
C      1  0.4909090000000  0.4582780000000  0.4267940000000 1.0
C      1  0.4259760000000  0.5148770000000  0.4670590000000 1.0
C      1  0.4858650000000  0.4888490000000  0.4620480000000 1.0
C      1  0.4414470000000  0.4686390000000  0.5330990000000 1.0
C      1  0.5176540000000  0.4298330000000  0.4632220000000 1.0
END
