TITL C-2848501-3133-94 0.00129091528206126 125000 -1019.93027708449 0 0 186 (C1) n - 1
REM
REM in /home/bkarasulu/work/CARBON/AIRSS/Generating-Clusters/AIREBO/with-SteepDescent/Only-C1/SD-CG-opt/Try1-1.4A-POS3A/HFTN-CG
REM
REM
REM
REM
REM
REM ./C.cell (11c1c37f851c82e70ff6c80c92926a4b)
REM
REM compiler GCC version 9.2.1 20190827 (Red Hat 9.2.1-1)
REM options -cpp -mtune=generic -march=x86-64 -g -O0 -fpre-include=/usr/include/finclude/math-vector-fortran.h
REM seed 1982853783 170002868 -1007214651 1311587599 -1204076083 -1641039270 1122530965 -1031647337 -64863921 389725023 -116558205 -296499251 59398214 -966843746 1427967852 -959347870 -116955394 -1626235490 869316834 -1621314704 -2073346023 -1031525380 1200152837 -1807552337 67468500 -184693453 -1565495651 394414059 -1289538951 424024705 -1890611271 -1070591361 1190751922
REM
CELL 1.54180   50.00000   50.00000   50.00000   90.00000   90.00000   90.00000
LATT -1
SFAC C  
C      1  0.4649570000000  0.4653760000000  0.6110510000000 1.0
C      1  0.4364550000000  0.5210760000000  0.4659220000000 1.0
C      1  0.5784810000000  0.4493120000000  0.5532430000000 1.0
C      1  0.5162230000000  0.5802630000000  0.5646870000000 1.0
C      1  0.5222710000000  0.4235820000000  0.5210840000000 1.0
C      1  0.4350660000000  0.5061490000000  0.4943440000000 1.0
C      1  0.4744720000000  0.4824440000000  0.5345510000000 1.0
C      1  0.4804500000000  0.5710300000000  0.4049270000000 1.0
C      1  0.5952910000000  0.5733540000000  0.4988160000000 1.0
C      1  0.4167220000000  0.4914510000000  0.5656430000000 1.0
C      1  0.5133810000000  0.4967320000000  0.4289540000000 1.0
C      1  0.4870260000000  0.4877810000000  0.4940550000000 1.0
C      1  0.3968970000000  0.4970730000000  0.4405740000000 1.0
C      1  0.5498780000000  0.4688500000000  0.5926350000000 1.0
C      1  0.5797940000000  0.5332090000000  0.5398000000000 1.0
C      1  0.4936760000000  0.5683080000000  0.5197010000000 1.0
C      1  0.4328140000000  0.5374190000000  0.4220560000000 1.0
C      1  0.3996620000000  0.5359880000000  0.5133590000000 1.0
C      1  0.5039560000000  0.4547790000000  0.6194670000000 1.0
C      1  0.5651830000000  0.4959350000000  0.5821290000000 1.0
C      1  0.5048140000000  0.5411700000000  0.6149120000000 1.0
C      1  0.4751880000000  0.5386850000000  0.4888880000000 1.0
C      1  0.5783140000000  0.5644840000000  0.4571460000000 1.0
C      1  0.4914140000000  0.4123160000000  0.4128180000000 1.0
C      1  0.5587830000000  0.5423900000000  0.5894080000000 1.0
C      1  0.5381800000000  0.3762780000000  0.5377160000000 1.0
C      1  0.5061070000000  0.4753080000000  0.5267130000000 1.0
C      1  0.5144930000000  0.5026080000000  0.5430580000000 1.0
C      1  0.5514890000000  0.4248440000000  0.4244410000000 1.0
C      1  0.5629110000000  0.5617560000000  0.4038510000000 1.0
C      1  0.3891380000000  0.4836800000000  0.4601840000000 1.0
C      1  0.5841290000000  0.4750260000000  0.4575780000000 1.0
C      1  0.4050050000000  0.5565210000000  0.4867310000000 1.0
C      1  0.5392770000000  0.5193800000000  0.5074910000000 1.0
C      1  0.5463270000000  0.4132170000000  0.5644240000000 1.0
C      1  0.5058000000000  0.4245780000000  0.4320500000000 1.0
C      1  0.5314250000000  0.5387350000000  0.6096640000000 1.0
C      1  0.5868250000000  0.5079490000000  0.4596180000000 1.0
C      1  0.5819500000000  0.5582120000000  0.4292090000000 1.0
C      1  0.5151670000000  0.4323800000000  0.4890100000000 1.0
C      1  0.5462550000000  0.4653030000000  0.4390770000000 1.0
C      1  0.5017300000000  0.4705060000000  0.4219500000000 1.0
C      1  0.4992170000000  0.4241210000000  0.5801700000000 1.0
C      1  0.4352030000000  0.4722980000000  0.5495330000000 1.0
C      1  0.4090600000000  0.4482100000000  0.4973290000000 1.0
C      1  0.4691140000000  0.4683760000000  0.4283850000000 1.0
C      1  0.5786430000000  0.4315890000000  0.5277840000000 1.0
C      1  0.5382550000000  0.6030680000000  0.4541920000000 1.0
C      1  0.5460360000000  0.4073540000000  0.4518000000000 1.0
C      1  0.4931030000000  0.4837500000000  0.6118140000000 1.0
C      1  0.5194850000000  0.4937630000000  0.5039080000000 1.0
C      1  0.5321260000000  0.5669380000000  0.4799890000000 1.0
C      1  0.4870950000000  0.5234450000000  0.4609220000000 1.0
C      1  0.5197820000000  0.5207510000000  0.3964290000000 1.0
C      1  0.5026360000000  0.5338250000000  0.5016820000000 1.0
C      1  0.5475220000000  0.4313670000000  0.5414810000000 1.0
C      1  0.4442030000000  0.4848020000000  0.5192080000000 1.0
C      1  0.4668340000000  0.5490140000000  0.5202010000000 1.0
C      1  0.5260680000000  0.4474610000000  0.4207800000000 1.0
C      1  0.5460410000000  0.4914850000000  0.5368920000000 1.0
C      1  0.5626740000000  0.5754450000000  0.4922840000000 1.0
C      1  0.5913260000000  0.4359980000000  0.4621250000000 1.0
C      1  0.5413700000000  0.5412590000000  0.4016310000000 1.0
C      1  0.5119820000000  0.3931480000000  0.4956790000000 1.0
C      1  0.4706790000000  0.4993700000000  0.5907990000000 1.0
C      1  0.4861990000000  0.3929090000000  0.5184650000000 1.0
C      1  0.4260340000000  0.4414990000000  0.5511200000000 1.0
C      1  0.6040220000000  0.5208900000000  0.4842440000000 1.0
C      1  0.5628940000000  0.4509700000000  0.4059100000000 1.0
C      1  0.5202970000000  0.5881840000000  0.4375440000000 1.0
C      1  0.4168820000000  0.5646700000000  0.5172210000000 1.0
C      1  0.3922250000000  0.4565770000000  0.5213050000000 1.0
C      1  0.4801970000000  0.5653110000000  0.4675160000000 1.0
C      1  0.4372610000000  0.4631190000000  0.4938010000000 1.0
C      1  0.5445680000000  0.5685990000000  0.5532320000000 1.0
C      1  0.4192760000000  0.4909540000000  0.5924560000000 1.0
C      1  0.4872830000000  0.4374670000000  0.5534240000000 1.0
C      1  0.3964600000000  0.4786760000000  0.4883980000000 1.0
C      1  0.4895960000000  0.4688030000000  0.5621400000000 1.0
C      1  0.4458400000000  0.4420290000000  0.5730400000000 1.0
C      1  0.5138000000000  0.6339170000000  0.5529550000000 1.0
C      1  0.4628800000000  0.5142210000000  0.4464240000000 1.0
C      1  0.4965820000000  0.4309320000000  0.4604950000000 1.0
C      1  0.5787980000000  0.5411350000000  0.4801210000000 1.0
C      1  0.3906280000000  0.4858860000000  0.5236770000000 1.0
C      1  0.4600750000000  0.4114190000000  0.5088630000000 1.0
C      1  0.4676460000000  0.5719830000000  0.4366090000000 1.0
C      1  0.3546660000000  0.5265380000000  0.5392590000000 1.0
C      1  0.5424620000000  0.5436710000000  0.5304470000000 1.0
C      1  0.5250200000000  0.6193680000000  0.4731190000000 1.0
C      1  0.4355800000000  0.4735210000000  0.4651350000000 1.0
C      1  0.4474200000000  0.4859530000000  0.4423170000000 1.0
C      1  0.5202560000000  0.4673550000000  0.5767990000000 1.0
C      1  0.5295230000000  0.5298590000000  0.5570720000000 1.0
C      1  0.5293130000000  0.4903770000000  0.3895730000000 1.0
C      1  0.5066360000000  0.6095050000000  0.5539970000000 1.0
C      1  0.5660380000000  0.5076250000000  0.5531770000000 1.0
C      1  0.4692390000000  0.4469550000000  0.3837440000000 1.0
C      1  0.5607260000000  0.5887320000000  0.4626070000000 1.0
C      1  0.4682590000000  0.4164600000000  0.4700450000000 1.0
C      1  0.5662300000000  0.5517510000000  0.5642290000000 1.0
C      1  0.4843570000000  0.4603510000000  0.4563590000000 1.0
C      1  0.5004650000000  0.5293450000000  0.5298210000000 1.0
C      1  0.5289050000000  0.4635210000000  0.4914780000000 1.0
C      1  0.4667210000000  0.5175680000000  0.4147890000000 1.0
C      1  0.4108710000000  0.5888020000000  0.4950850000000 1.0
C      1  0.4911980000000  0.3925970000000  0.4705400000000 1.0
C      1  0.4036620000000  0.5089150000000  0.5434430000000 1.0
C      1  0.4905830000000  0.5245450000000  0.3835460000000 1.0
C      1  0.5674590000000  0.5477920000000  0.5114890000000 1.0
C      1  0.5020100000000  0.5791480000000  0.4900300000000 1.0
C      1  0.4246440000000  0.5100870000000  0.4359010000000 1.0
C      1  0.4601010000000  0.4729500000000  0.5721720000000 1.0
C      1  0.5593990000000  0.4847860000000  0.4768960000000 1.0
C      1  0.4431550000000  0.4862960000000  0.6058920000000 1.0
C      1  0.4994380000000  0.5492430000000  0.4445310000000 1.0
C      1  0.4748210000000  0.4218250000000  0.3932510000000 1.0
C      1  0.3900270000000  0.5558460000000  0.5610320000000 1.0
C      1  0.4421340000000  0.5677920000000  0.5298620000000 1.0
C      1  0.4757060000000  0.5285380000000  0.6061610000000 1.0
C      1  0.4706770000000  0.4715290000000  0.3968520000000 1.0
C      1  0.5209400000000  0.5200710000000  0.4607540000000 1.0
C      1  0.4642120000000  0.5269590000000  0.5462660000000 1.0
C      1  0.4826930000000  0.6256500000000  0.4964800000000 1.0
C      1  0.4878660000000  0.5092410000000  0.5631620000000 1.0
C      1  0.5794990000000  0.4292650000000  0.4415750000000 1.0
C      1  0.5378040000000  0.4652390000000  0.3942720000000 1.0
C      1  0.5368850000000  0.4087690000000  0.4785580000000 1.0
C      1  0.5031820000000  0.6096030000000  0.4879990000000 1.0
C      1  0.5834450000000  0.5021150000000  0.4281830000000 1.0
C      1  0.4346350000000  0.5593380000000  0.5790010000000 1.0
C      1  0.5264660000000  0.5372760000000  0.4845780000000 1.0
C      1  0.4640910000000  0.4491740000000  0.4781970000000 1.0
C      1  0.4536040000000  0.5944190000000  0.5382040000000 1.0
C      1  0.4738500000000  0.4601580000000  0.5088710000000 1.0
C      1  0.5745010000000  0.5276390000000  0.4199760000000 1.0
C      1  0.5381210000000  0.5156500000000  0.5856130000000 1.0
C      1  0.4392120000000  0.4075570000000  0.4750210000000 1.0
C      1  0.4982070000000  0.5231720000000  0.4226640000000 1.0
C      1  0.5112840000000  0.4472590000000  0.5365020000000 1.0
C      1  0.5576460000000  0.4840480000000  0.5101510000000 1.0
C      1  0.6112980000000  0.4902730000000  0.5218830000000 1.0
C      1  0.5463370000000  0.5409320000000  0.4336590000000 1.0
C      1  0.4833760000000  0.5594380000000  0.6005170000000 1.0
C      1  0.6074200000000  0.5546990000000  0.5101830000000 1.0
C      1  0.5103340000000  0.4983030000000  0.5862930000000 1.0
C      1  0.4623780000000  0.4417330000000  0.5350510000000 1.0
C      1  0.5081490000000  0.5543800000000  0.5471440000000 1.0
C      1  0.4297060000000  0.5514100000000  0.4684240000000 1.0
C      1  0.4703140000000  0.4118300000000  0.5788350000000 1.0
C      1  0.4055330000000  0.5077100000000  0.5035930000000 1.0
C      1  0.5059840000000  0.4767210000000  0.4705780000000 1.0
C      1  0.6106100000000  0.4753780000000  0.4980220000000 1.0
C      1  0.5877920000000  0.4580750000000  0.4858200000000 1.0
C      1  0.4369170000000  0.4221630000000  0.5301100000000 1.0
C      1  0.5758000000000  0.4711480000000  0.4265680000000 1.0
C      1  0.4840360000000  0.5714640000000  0.5735410000000 1.0
C      1  0.5275620000000  0.5595940000000  0.4475860000000 1.0
C      1  0.5578830000000  0.4188170000000  0.5040680000000 1.0
C      1  0.4371030000000  0.5121130000000  0.5381840000000 1.0
C      1  0.5131740000000  0.3973570000000  0.5373860000000 1.0
C      1  0.6202780000000  0.4934670000000  0.4784890000000 1.0
C      1  0.4660090000000  0.5085240000000  0.4955440000000 1.0
C      1  0.6038620000000  0.5226300000000  0.5182270000000 1.0
C      1  0.5335230000000  0.4890740000000  0.4552600000000 1.0
C      1  0.5774190000000  0.4650760000000  0.5754250000000 1.0
C      1  0.4667180000000  0.4410750000000  0.5959530000000 1.0
C      1  0.4828770000000  0.3972440000000  0.5525850000000 1.0
C      1  0.4336110000000  0.5977550000000  0.4820440000000 1.0
C      1  0.5112600000000  0.4428510000000  0.5957880000000 1.0
C      1  0.5660610000000  0.5124450000000  0.4933110000000 1.0
C      1  0.4833910000000  0.5884190000000  0.5440690000000 1.0
C      1  0.4391250000000  0.5591090000000  0.4391610000000 1.0
C      1  0.4746920000000  0.5477950000000  0.3900700000000 1.0
C      1  0.4763750000000  0.4977200000000  0.3911460000000 1.0
C      1  0.4578660000000  0.5579600000000  0.5580880000000 1.0
C      1  0.4490780000000  0.5769000000000  0.4734820000000 1.0
C      1  0.4467230000000  0.5378530000000  0.3965630000000 1.0
C      1  0.5371130000000  0.4632130000000  0.5488940000000 1.0
C      1  0.3841450000000  0.5336340000000  0.5410730000000 1.0
C      1  0.5545040000000  0.5156620000000  0.4521820000000 1.0
C      1  0.4952300000000  0.5891720000000  0.4266120000000 1.0
C      1  0.5596270000000  0.4518260000000  0.4994490000000 1.0
C      1  0.5420410000000  0.3899520000000  0.5112510000000 1.0
C      1  0.4293610000000  0.4226800000000  0.4989870000000 1.0
C      1  0.4862940000000  0.4302610000000  0.5053190000000 1.0
END
