TITL C-2847952-8118-682 -0.0015052092361799 125000 -578.925368085019 0 0 111 (C1) n - 1
REM
REM in /home/bkarasulu/work/CARBON/AIRSS/Generating-Clusters/AIREBO/with-SteepDescent/Only-C1/SD-CG-opt/Try1-1.4A-POS3A/HFTN-CG
REM
REM
REM
REM
REM
REM ./C.cell (11c1c37f851c82e70ff6c80c92926a4b)
REM
REM compiler GCC version 9.2.1 20190827 (Red Hat 9.2.1-1)
REM options -cpp -mtune=generic -march=x86-64 -g -O0 -fpre-include=/usr/include/finclude/math-vector-fortran.h
REM seed 1689002677 1015217903 1441648123 -414565381 1854695485 -1936201353 -1041173266 -1365349631 767365418 1393255006 797262221 1995361417 1062311977 645085267 -1890858898 1743484012 172017299 -211379043 1153229899 -61368907 -956454053 -587051056 151734950 247347119 1836400538 -880826551 -77951707 -743165858 -643533687 -635466991 -1132096401 147792459 -261423080
REM
CELL 1.54180   50.00000   50.00000   50.00000   90.00000   90.00000   90.00000
LATT -1
SFAC C  
C      1  0.4206520000000  0.4570390000000  0.5297470000000 1.0
C      1  0.5616440000000  0.5099370000000  0.4830030000000 1.0
C      1  0.5320080000000  0.4942700000000  0.4772450000000 1.0
C      1  0.5290080000000  0.4502330000000  0.4713840000000 1.0
C      1  0.5004750000000  0.5728790000000  0.4688320000000 1.0
C      1  0.4859170000000  0.5134320000000  0.4765760000000 1.0
C      1  0.4612820000000  0.5588040000000  0.5224950000000 1.0
C      1  0.4585740000000  0.4373480000000  0.4945430000000 1.0
C      1  0.4427070000000  0.5086420000000  0.4528460000000 1.0
C      1  0.4626010000000  0.5354640000000  0.4757280000000 1.0
C      1  0.4018770000000  0.4733400000000  0.5450460000000 1.0
C      1  0.5428790000000  0.5736770000000  0.5015020000000 1.0
C      1  0.4710500000000  0.5272240000000  0.5304840000000 1.0
C      1  0.5139260000000  0.4960460000000  0.5402800000000 1.0
C      1  0.4332660000000  0.4483460000000  0.4764830000000 1.0
C      1  0.5206940000000  0.5696300000000  0.5341870000000 1.0
C      1  0.4146860000000  0.5022920000000  0.4934880000000 1.0
C      1  0.5414710000000  0.4492940000000  0.4400420000000 1.0
C      1  0.5422370000000  0.5088920000000  0.4482770000000 1.0
C      1  0.4720160000000  0.4904860000000  0.4214690000000 1.0
C      1  0.4972600000000  0.5229710000000  0.5827310000000 1.0
C      1  0.4719410000000  0.4802570000000  0.5838060000000 1.0
C      1  0.5467150000000  0.4336730000000  0.5339350000000 1.0
C      1  0.5443810000000  0.4209210000000  0.5126430000000 1.0
C      1  0.4402600000000  0.4581860000000  0.4481520000000 1.0
C      1  0.5559920000000  0.4774890000000  0.4277810000000 1.0
C      1  0.5390800000000  0.5309950000000  0.4223630000000 1.0
C      1  0.4471510000000  0.5677760000000  0.4933010000000 1.0
C      1  0.4600530000000  0.4747110000000  0.5396420000000 1.0
C      1  0.4668750000000  0.5677220000000  0.4658630000000 1.0
C      1  0.5243820000000  0.4242770000000  0.4876700000000 1.0
C      1  0.4955560000000  0.5713270000000  0.5564990000000 1.0
C      1  0.4635820000000  0.4700310000000  0.4904770000000 1.0
C      1  0.5629420000000  0.5442960000000  0.5617020000000 1.0
C      1  0.5152350000000  0.4760040000000  0.4539840000000 1.0
C      1  0.5409820000000  0.4925010000000  0.5833150000000 1.0
C      1  0.5788090000000  0.5349970000000  0.5163180000000 1.0
C      1  0.5902390000000  0.5105110000000  0.5003260000000 1.0
C      1  0.5407140000000  0.4679720000000  0.4970490000000 1.0
C      1  0.5512400000000  0.5732900000000  0.4392490000000 1.0
C      1  0.4319070000000  0.5216870000000  0.4792330000000 1.0
C      1  0.5323140000000  0.5420980000000  0.5509540000000 1.0
C      1  0.4979560000000  0.4811380000000  0.4057620000000 1.0
C      1  0.4913580000000  0.4720700000000  0.5367250000000 1.0
C      1  0.5451130000000  0.5338330000000  0.5207580000000 1.0
C      1  0.5118470000000  0.5137610000000  0.4236940000000 1.0
C      1  0.4475200000000  0.4673140000000  0.4223850000000 1.0
C      1  0.4932400000000  0.4339630000000  0.4647660000000 1.0
C      1  0.5723120000000  0.5010160000000  0.4455040000000 1.0
C      1  0.4823850000000  0.4562980000000  0.4429390000000 1.0
C      1  0.5094070000000  0.4400980000000  0.5715780000000 1.0
C      1  0.4825570000000  0.5504580000000  0.4983180000000 1.0
C      1  0.5770680000000  0.5262450000000  0.5458380000000 1.0
C      1  0.5016840000000  0.4876620000000  0.4912180000000 1.0
C      1  0.4643020000000  0.5203250000000  0.4314950000000 1.0
C      1  0.5726230000000  0.5344790000000  0.4525000000000 1.0
C      1  0.4009640000000  0.5181860000000  0.5163220000000 1.0
C      1  0.5323460000000  0.5585440000000  0.4266020000000 1.0
C      1  0.4474860000000  0.5277130000000  0.5551510000000 1.0
C      1  0.5262510000000  0.5088370000000  0.5139780000000 1.0
C      1  0.5310960000000  0.5803810000000  0.4727290000000 1.0
C      1  0.4643250000000  0.4313210000000  0.5405400000000 1.0
C      1  0.5137650000000  0.4581010000000  0.5153020000000 1.0
C      1  0.4859520000000  0.5509870000000  0.5819980000000 1.0
C      1  0.4836670000000  0.4886440000000  0.4533740000000 1.0
C      1  0.4224740000000  0.4694240000000  0.4980910000000 1.0
C      1  0.5006880000000  0.4037330000000  0.4749300000000 1.0
C      1  0.5159000000000  0.5276820000000  0.4544890000000 1.0
C      1  0.4844730000000  0.4486590000000  0.5575300000000 1.0
C      1  0.4248880000000  0.5521290000000  0.4866420000000 1.0
C      1  0.4469000000000  0.4867510000000  0.5142180000000 1.0
C      1  0.4392940000000  0.4787120000000  0.5619820000000 1.0
C      1  0.4849720000000  0.5843410000000  0.4968440000000 1.0
C      1  0.4985130000000  0.4892770000000  0.5871320000000 1.0
C      1  0.4932520000000  0.4561610000000  0.4882420000000 1.0
C      1  0.5493730000000  0.4862470000000  0.5245680000000 1.0
C      1  0.5697510000000  0.4994960000000  0.5484470000000 1.0
C      1  0.5166200000000  0.4077130000000  0.5382230000000 1.0
C      1  0.4198350000000  0.5283940000000  0.5416640000000 1.0
C      1  0.5136100000000  0.5582230000000  0.5042780000000 1.0
C      1  0.4525290000000  0.4812480000000  0.4643940000000 1.0
C      1  0.4817590000000  0.5483380000000  0.4237000000000 1.0
C      1  0.4644710000000  0.5568500000000  0.5562960000000 1.0
C      1  0.5220720000000  0.4690710000000  0.5732290000000 1.0
C      1  0.5711920000000  0.4648880000000  0.4822930000000 1.0
C      1  0.5047120000000  0.5553740000000  0.4418790000000 1.0
C      1  0.4752950000000  0.5042340000000  0.5075380000000 1.0
C      1  0.4870240000000  0.5081470000000  0.5539620000000 1.0
C      1  0.5664630000000  0.4902550000000  0.5746230000000 1.0
C      1  0.5694910000000  0.4615800000000  0.4548740000000 1.0
C      1  0.4551770000000  0.4524850000000  0.5730520000000 1.0
C      1  0.5934870000000  0.5131110000000  0.4683990000000 1.0
C      1  0.5186590000000  0.4159970000000  0.5642620000000 1.0
C      1  0.4734320000000  0.4253870000000  0.5149840000000 1.0
C      1  0.5244260000000  0.5130460000000  0.5667830000000 1.0
C      1  0.4376810000000  0.4422360000000  0.5456900000000 1.0
C      1  0.5668780000000  0.5656280000000  0.5104730000000 1.0
C      1  0.5047350000000  0.4253100000000  0.5153490000000 1.0
C      1  0.4496300000000  0.5043390000000  0.5749490000000 1.0
C      1  0.5777320000000  0.4819410000000  0.5063130000000 1.0
C      1  0.5565910000000  0.5585210000000  0.4672980000000 1.0
C      1  0.5231950000000  0.4828570000000  0.4240830000000 1.0
C      1  0.5113440000000  0.4401330000000  0.4371070000000 1.0
C      1  0.4544080000000  0.5539180000000  0.4393750000000 1.0
C      1  0.4296810000000  0.5363620000000  0.4422090000000 1.0
C      1  0.5142190000000  0.5281230000000  0.4884610000000 1.0
C      1  0.4987810000000  0.5390880000000  0.5461860000000 1.0
C      1  0.4913770000000  0.5270870000000  0.4031760000000 1.0
C      1  0.5341190000000  0.4615800000000  0.5423360000000 1.0
C      1  0.5470960000000  0.5366760000000  0.4869350000000 1.0
C      1  0.4199970000000  0.4969090000000  0.5323860000000 1.0
END
