TITL C-2847945-6269-477 -0.000557155139091769 125000 -872.533889304051 0 0 163 (C1) n - 1
REM
REM in /home/bkarasulu/work/CARBON/AIRSS/Generating-Clusters/AIREBO/with-SteepDescent/Only-C1/SD-CG-opt/Try1-1.4A-POS3A/HFTN-CG
REM
REM
REM
REM
REM
REM ./C.cell (11c1c37f851c82e70ff6c80c92926a4b)
REM
REM compiler GCC version 9.2.1 20190827 (Red Hat 9.2.1-1)
REM options -cpp -mtune=generic -march=x86-64 -g -O0 -fpre-include=/usr/include/finclude/math-vector-fortran.h
REM seed 1209038005 1892970656 -1644019668 -1174929756 -409689620 710556561 -235565227 -590090733 778135869 -1018539064 -1879270055 714047676 1868657770 -448377786 -1204009706 -104546988 1400227728 1781993544 -480141555 1064844597 653253826 -1132658320 -2094292188 576221912 -379334919 -1041730324 -569835712 689966895 -1474356106 -82648050 -1355158889 -948304586 2015594492
REM
CELL 1.54180   50.00000   50.00000   50.00000   90.00000   90.00000   90.00000
LATT -1
SFAC C  
C      1  0.5391650000000  0.5662870000000  0.5638510000000 1.0
C      1  0.5144910000000  0.4919360000000  0.4425930000000 1.0
C      1  0.4663580000000  0.4462190000000  0.4947380000000 1.0
C      1  0.5101560000000  0.4654240000000  0.4999630000000 1.0
C      1  0.5539820000000  0.5274370000000  0.5351620000000 1.0
C      1  0.5401690000000  0.4310770000000  0.4515730000000 1.0
C      1  0.5355370000000  0.5138790000000  0.4578100000000 1.0
C      1  0.4518490000000  0.4955260000000  0.4552950000000 1.0
C      1  0.4376600000000  0.5392650000000  0.5158600000000 1.0
C      1  0.4637030000000  0.5226110000000  0.5925510000000 1.0
C      1  0.5244990000000  0.5199320000000  0.5862510000000 1.0
C      1  0.5378710000000  0.5445550000000  0.4464810000000 1.0
C      1  0.4241860000000  0.5822780000000  0.5221620000000 1.0
C      1  0.4885640000000  0.6076200000000  0.4988570000000 1.0
C      1  0.4606370000000  0.5776810000000  0.4361320000000 1.0
C      1  0.5551080000000  0.5344940000000  0.5022610000000 1.0
C      1  0.4729370000000  0.5213810000000  0.5171050000000 1.0
C      1  0.4524010000000  0.4851190000000  0.5507790000000 1.0
C      1  0.4644840000000  0.6005710000000  0.4792320000000 1.0
C      1  0.4960680000000  0.4062440000000  0.5128400000000 1.0
C      1  0.4953560000000  0.4569810000000  0.4350880000000 1.0
C      1  0.4688870000000  0.5174900000000  0.4268490000000 1.0
C      1  0.5777730000000  0.4373280000000  0.4419000000000 1.0
C      1  0.4830240000000  0.4557020000000  0.5188510000000 1.0
C      1  0.4279570000000  0.5294390000000  0.3995730000000 1.0
C      1  0.5587380000000  0.5403200000000  0.4121150000000 1.0
C      1  0.4913830000000  0.4811050000000  0.3888670000000 1.0
C      1  0.4110120000000  0.4601280000000  0.4974990000000 1.0
C      1  0.4444240000000  0.5071700000000  0.5052020000000 1.0
C      1  0.4193820000000  0.4332940000000  0.4803710000000 1.0
C      1  0.5689340000000  0.5000140000000  0.5956940000000 1.0
C      1  0.4902790000000  0.3934270000000  0.5622210000000 1.0
C      1  0.5588980000000  0.4923760000000  0.4068050000000 1.0
C      1  0.5004990000000  0.5736050000000  0.5708710000000 1.0
C      1  0.5567960000000  0.4590530000000  0.4285960000000 1.0
C      1  0.4481420000000  0.4733790000000  0.5040550000000 1.0
C      1  0.5140320000000  0.4102140000000  0.4860310000000 1.0
C      1  0.6070170000000  0.4368000000000  0.5552190000000 1.0
C      1  0.5184800000000  0.4321630000000  0.4325140000000 1.0
C      1  0.4229190000000  0.4658070000000  0.5255440000000 1.0
C      1  0.5907180000000  0.4586170000000  0.4225810000000 1.0
C      1  0.4925740000000  0.5656420000000  0.4390340000000 1.0
C      1  0.5632410000000  0.4568080000000  0.4976960000000 1.0
C      1  0.4364640000000  0.5158100000000  0.4230120000000 1.0
C      1  0.4762030000000  0.4839100000000  0.5299870000000 1.0
C      1  0.4630930000000  0.5401860000000  0.4933100000000 1.0
C      1  0.5219680000000  0.5887690000000  0.5516490000000 1.0
C      1  0.5705260000000  0.5630910000000  0.4311660000000 1.0
C      1  0.4186430000000  0.5499480000000  0.4823330000000 1.0
C      1  0.4232930000000  0.5277040000000  0.4484890000000 1.0
C      1  0.5166720000000  0.5166560000000  0.4193250000000 1.0
C      1  0.5010710000000  0.4210500000000  0.5720320000000 1.0
C      1  0.5028550000000  0.5929170000000  0.5253990000000 1.0
C      1  0.4597070000000  0.4362680000000  0.5930070000000 1.0
C      1  0.5717690000000  0.5628980000000  0.4593090000000 1.0
C      1  0.4301190000000  0.5099330000000  0.4762840000000 1.0
C      1  0.5037530000000  0.4926450000000  0.5450490000000 1.0
C      1  0.5224150000000  0.5512120000000  0.5841630000000 1.0
C      1  0.4309410000000  0.4853500000000  0.4207180000000 1.0
C      1  0.4374640000000  0.4664380000000  0.4454140000000 1.0
C      1  0.6311240000000  0.5183390000000  0.5416090000000 1.0
C      1  0.4408450000000  0.5920060000000  0.4585380000000 1.0
C      1  0.5082890000000  0.5208150000000  0.5608810000000 1.0
C      1  0.4658120000000  0.5246760000000  0.4659620000000 1.0
C      1  0.4556000000000  0.5493250000000  0.5429690000000 1.0
C      1  0.5385020000000  0.4663970000000  0.4045780000000 1.0
C      1  0.5010800000000  0.5143820000000  0.5195890000000 1.0
C      1  0.5419570000000  0.3994790000000  0.4923620000000 1.0
C      1  0.5604680000000  0.4457370000000  0.5727990000000 1.0
C      1  0.4298750000000  0.5797480000000  0.4882170000000 1.0
C      1  0.4695710000000  0.5769250000000  0.5571120000000 1.0
C      1  0.5090030000000  0.4761360000000  0.4129780000000 1.0
C      1  0.4450080000000  0.4218580000000  0.4715670000000 1.0
C      1  0.4675080000000  0.4258850000000  0.4225420000000 1.0
C      1  0.5239520000000  0.5311750000000  0.5336680000000 1.0
C      1  0.5368430000000  0.4890350000000  0.5933230000000 1.0
C      1  0.4584330000000  0.4547930000000  0.5649570000000 1.0
C      1  0.5415110000000  0.4539230000000  0.4767180000000 1.0
C      1  0.4582580000000  0.5455020000000  0.4430170000000 1.0
C      1  0.4761130000000  0.4850090000000  0.4339130000000 1.0
C      1  0.5287730000000  0.5531180000000  0.5006610000000 1.0
C      1  0.4358770000000  0.5164140000000  0.5815270000000 1.0
C      1  0.5061320000000  0.6093260000000  0.4763160000000 1.0
C      1  0.4864920000000  0.3936290000000  0.4762450000000 1.0
C      1  0.4199760000000  0.4584910000000  0.5751200000000 1.0
C      1  0.5888280000000  0.5028150000000  0.4443500000000 1.0
C      1  0.5427700000000  0.5063060000000  0.4877020000000 1.0
C      1  0.5695860000000  0.4891280000000  0.4932190000000 1.0
C      1  0.3991090000000  0.5218190000000  0.4836650000000 1.0
C      1  0.5102410000000  0.5832550000000  0.4579490000000 1.0
C      1  0.4758310000000  0.5662320000000  0.4960220000000 1.0
C      1  0.5069380000000  0.5000120000000  0.6072470000000 1.0
C      1  0.5560040000000  0.4710920000000  0.5253310000000 1.0
C      1  0.4960440000000  0.5334260000000  0.4392880000000 1.0
C      1  0.5110280000000  0.4304710000000  0.5314400000000 1.0
C      1  0.5820330000000  0.5029940000000  0.5738960000000 1.0
C      1  0.4070750000000  0.4895560000000  0.5375500000000 1.0
C      1  0.4793100000000  0.4998570000000  0.6012600000000 1.0
C      1  0.5465540000000  0.5163730000000  0.4114730000000 1.0
C      1  0.5099580000000  0.4988460000000  0.4935680000000 1.0
C      1  0.5128070000000  0.4395850000000  0.4794310000000 1.0
C      1  0.4567450000000  0.4408780000000  0.4482910000000 1.0
C      1  0.5629020000000  0.4166870000000  0.4935090000000 1.0
C      1  0.5318280000000  0.4275340000000  0.5749930000000 1.0
C      1  0.4552180000000  0.5878400000000  0.5094010000000 1.0
C      1  0.5054560000000  0.4546920000000  0.5929890000000 1.0
C      1  0.5012550000000  0.5196650000000  0.3922750000000 1.0
C      1  0.5667600000000  0.4328510000000  0.5216040000000 1.0
C      1  0.4212430000000  0.5418940000000  0.5643990000000 1.0
C      1  0.5480040000000  0.4761010000000  0.5639210000000 1.0
C      1  0.5033450000000  0.5711330000000  0.4878320000000 1.0
C      1  0.4721910000000  0.5967390000000  0.5335800000000 1.0
C      1  0.4820180000000  0.5817690000000  0.4122590000000 1.0
C      1  0.6003530000000  0.5475140000000  0.4765660000000 1.0
C      1  0.4983600000000  0.5214610000000  0.4709530000000 1.0
C      1  0.5469160000000  0.4189330000000  0.5457500000000 1.0
C      1  0.4194140000000  0.4754400000000  0.3993250000000 1.0
C      1  0.4220440000000  0.5109730000000  0.5507070000000 1.0
C      1  0.5165520000000  0.5461070000000  0.4710770000000 1.0
C      1  0.5093070000000  0.5609090000000  0.5262800000000 1.0
C      1  0.5888950000000  0.5439090000000  0.5455410000000 1.0
C      1  0.4253950000000  0.5645290000000  0.5442960000000 1.0
C      1  0.3809370000000  0.4878140000000  0.5395950000000 1.0
C      1  0.5694330000000  0.4265900000000  0.4683050000000 1.0
C      1  0.5616360000000  0.5520970000000  0.5541480000000 1.0
C      1  0.5662090000000  0.4972630000000  0.5444920000000 1.0
C      1  0.5232060000000  0.3987440000000  0.5326120000000 1.0
C      1  0.4319780000000  0.4829390000000  0.5769380000000 1.0
C      1  0.4545650000000  0.5153370000000  0.5429490000000 1.0
C      1  0.4894830000000  0.5245190000000  0.3701270000000 1.0
C      1  0.5871800000000  0.5244570000000  0.4970750000000 1.0
C      1  0.4888120000000  0.4835700000000  0.4639560000000 1.0
C      1  0.4293920000000  0.5602020000000  0.4533600000000 1.0
C      1  0.4726300000000  0.5728910000000  0.5903740000000 1.0
C      1  0.4888210000000  0.5434860000000  0.5472980000000 1.0
C      1  0.5735050000000  0.5847800000000  0.5066880000000 1.0
C      1  0.4292960000000  0.4465670000000  0.5494670000000 1.0
C      1  0.5733620000000  0.5615860000000  0.4917160000000 1.0
C      1  0.5960130000000  0.5170330000000  0.4650060000000 1.0
C      1  0.5883930000000  0.5009220000000  0.5189810000000 1.0
C      1  0.5234080000000  0.4771440000000  0.5256070000000 1.0
C      1  0.4050420000000  0.5410950000000  0.5107890000000 1.0
C      1  0.5834940000000  0.4877600000000  0.4210150000000 1.0
C      1  0.5390920000000  0.5781750000000  0.4506170000000 1.0
C      1  0.4922650000000  0.4244840000000  0.4123360000000 1.0
C      1  0.4778420000000  0.4878460000000  0.4958720000000 1.0
C      1  0.5350770000000  0.4506760000000  0.5427030000000 1.0
C      1  0.4124610000000  0.4611130000000  0.4629290000000 1.0
C      1  0.6045410000000  0.5223750000000  0.5366060000000 1.0
C      1  0.4832210000000  0.3880810000000  0.5385540000000 1.0
C      1  0.4864320000000  0.4316050000000  0.5984970000000 1.0
C      1  0.4043810000000  0.4880910000000  0.4803530000000 1.0
C      1  0.4958940000000  0.4697060000000  0.5665380000000 1.0
C      1  0.5370980000000  0.4548110000000  0.5957720000000 1.0
C      1  0.5185920000000  0.4399260000000  0.3992150000000 1.0
C      1  0.4671730000000  0.4136920000000  0.4957530000000 1.0
C      1  0.4760180000000  0.5433760000000  0.5788460000000 1.0
C      1  0.4707070000000  0.4793010000000  0.5851910000000 1.0
C      1  0.5811940000000  0.4376950000000  0.5516920000000 1.0
C      1  0.5399900000000  0.4708700000000  0.4505330000000 1.0
C      1  0.5390540000000  0.5655580000000  0.4195970000000 1.0
C      1  0.4834900000000  0.4511220000000  0.4666180000000 1.0
C      1  0.4861160000000  0.4420630000000  0.5498540000000 1.0
END
