TITL C-2848504-8560-550 0.0032615376125049 125000 -904.848416813147 0 0 170 (C1) n - 1
REM
REM in /home/bkarasulu/work/CARBON/AIRSS/Generating-Clusters/AIREBO/with-SteepDescent/Only-C1/SD-CG-opt/Try1-1.4A-POS3A/HFTN-CG
REM
REM
REM
REM
REM
REM ./C.cell (11c1c37f851c82e70ff6c80c92926a4b)
REM
REM compiler GCC version 9.2.1 20190827 (Red Hat 9.2.1-1)
REM options -cpp -mtune=generic -march=x86-64 -g -O0 -fpre-include=/usr/include/finclude/math-vector-fortran.h
REM seed 231794130 820623944 -929206175 453316389 -792421847 1883421104 -1827062911 -1771015054 293853571 -1796048572 1919470839 1890848328 1484228670 1105818744 -1332679158 1725173455 82127595 -397373069 1195197035 -1649948618 -1814710294 75690086 1549714715 484892774 146851626 -2077468222 712621296 -389772699 -257753532 -676596268 905908285 1896835933 -128347540
REM
CELL 1.54180   50.00000   50.00000   50.00000   90.00000   90.00000   90.00000
LATT -1
SFAC C  
C      1  0.4928550000000  0.4191680000000  0.4205250000000 1.0
C      1  0.4050810000000  0.4709190000000  0.5054990000000 1.0
C      1  0.5367180000000  0.5060460000000  0.4783950000000 1.0
C      1  0.4754160000000  0.5047760000000  0.3975600000000 1.0
C      1  0.5208550000000  0.4071770000000  0.5220860000000 1.0
C      1  0.4458830000000  0.5137170000000  0.4261310000000 1.0
C      1  0.5252130000000  0.5547660000000  0.4404290000000 1.0
C      1  0.5386730000000  0.4326310000000  0.4974440000000 1.0
C      1  0.4178450000000  0.5287970000000  0.4369480000000 1.0
C      1  0.4787450000000  0.4925000000000  0.5677000000000 1.0
C      1  0.4652550000000  0.5213320000000  0.6018710000000 1.0
C      1  0.5494580000000  0.4281320000000  0.4655020000000 1.0
C      1  0.5618880000000  0.5290350000000  0.4860610000000 1.0
C      1  0.5806730000000  0.5481790000000  0.5490930000000 1.0
C      1  0.4930840000000  0.4799240000000  0.5413110000000 1.0
C      1  0.5442960000000  0.4885440000000  0.5901500000000 1.0
C      1  0.4346580000000  0.5669350000000  0.5086090000000 1.0
C      1  0.4546150000000  0.4417070000000  0.4816380000000 1.0
C      1  0.4872630000000  0.3756500000000  0.5369600000000 1.0
C      1  0.3869330000000  0.5055500000000  0.5418340000000 1.0
C      1  0.4183510000000  0.4723470000000  0.4551240000000 1.0
C      1  0.4741100000000  0.5362340000000  0.5445940000000 1.0
C      1  0.5016010000000  0.5583480000000  0.4624830000000 1.0
C      1  0.4575400000000  0.4154100000000  0.5022130000000 1.0
C      1  0.5087450000000  0.6171800000000  0.5144750000000 1.0
C      1  0.4156290000000  0.5035700000000  0.4157360000000 1.0
C      1  0.5659070000000  0.4915030000000  0.5010400000000 1.0
C      1  0.4590020000000  0.6078190000000  0.5313850000000 1.0
C      1  0.4948330000000  0.4470070000000  0.4011060000000 1.0
C      1  0.4366420000000  0.5825920000000  0.4617870000000 1.0
C      1  0.5924900000000  0.5013530000000  0.4534590000000 1.0
C      1  0.3970440000000  0.5249260000000  0.4963730000000 1.0
C      1  0.5796970000000  0.4992040000000  0.4229320000000 1.0
C      1  0.4860310000000  0.5445220000000  0.5881650000000 1.0
C      1  0.4642200000000  0.4661460000000  0.5027800000000 1.0
C      1  0.5931670000000  0.5338230000000  0.4974360000000 1.0
C      1  0.4990090000000  0.5152110000000  0.5785490000000 1.0
C      1  0.4055600000000  0.4906380000000  0.4783470000000 1.0
C      1  0.4470690000000  0.4232740000000  0.5312840000000 1.0
C      1  0.5022180000000  0.5850540000000  0.5510590000000 1.0
C      1  0.5834400000000  0.4624940000000  0.5595470000000 1.0
C      1  0.4125030000000  0.5222540000000  0.4679370000000 1.0
C      1  0.4481060000000  0.6296260000000  0.5435800000000 1.0
C      1  0.5082900000000  0.5836710000000  0.4183630000000 1.0
C      1  0.5430240000000  0.4965390000000  0.4382770000000 1.0
C      1  0.4380500000000  0.5486050000000  0.4826310000000 1.0
C      1  0.5158010000000  0.5948030000000  0.4662150000000 1.0
C      1  0.4984480000000  0.5408220000000  0.3963420000000 1.0
C      1  0.5232660000000  0.4641200000000  0.5397010000000 1.0
C      1  0.5065160000000  0.5687810000000  0.5781750000000 1.0
C      1  0.4520650000000  0.4928840000000  0.6038880000000 1.0
C      1  0.5734550000000  0.4832180000000  0.5802910000000 1.0
C      1  0.4728210000000  0.3958370000000  0.4897550000000 1.0
C      1  0.5579840000000  0.5633620000000  0.4433400000000 1.0
C      1  0.5944910000000  0.4753530000000  0.4720750000000 1.0
C      1  0.5172240000000  0.5103040000000  0.4356050000000 1.0
C      1  0.4964230000000  0.3846790000000  0.5065340000000 1.0
C      1  0.4650130000000  0.5790340000000  0.4433610000000 1.0
C      1  0.5102690000000  0.3639720000000  0.4931880000000 1.0
C      1  0.4615960000000  0.5678130000000  0.4143620000000 1.0
C      1  0.5536220000000  0.4162920000000  0.5211260000000 1.0
C      1  0.5953930000000  0.5325850000000  0.4647290000000 1.0
C      1  0.5103550000000  0.3888600000000  0.5437560000000 1.0
C      1  0.4461940000000  0.4818060000000  0.4386430000000 1.0
C      1  0.5931940000000  0.4321220000000  0.5636260000000 1.0
C      1  0.4638390000000  0.4338590000000  0.4285370000000 1.0
C      1  0.5625700000000  0.5114280000000  0.4569710000000 1.0
C      1  0.5513700000000  0.5423130000000  0.4102580000000 1.0
C      1  0.5538500000000  0.4481800000000  0.4310220000000 1.0
C      1  0.5505520000000  0.4152300000000  0.4340510000000 1.0
C      1  0.5755560000000  0.5950210000000  0.5068970000000 1.0
C      1  0.6001130000000  0.5067660000000  0.5173800000000 1.0
C      1  0.5810370000000  0.4610680000000  0.4998580000000 1.0
C      1  0.4423240000000  0.5242430000000  0.5803650000000 1.0
C      1  0.5320220000000  0.5639180000000  0.5869620000000 1.0
C      1  0.4667240000000  0.3968460000000  0.4611570000000 1.0
C      1  0.5325630000000  0.5126990000000  0.5737010000000 1.0
C      1  0.4209660000000  0.5010640000000  0.5803150000000 1.0
C      1  0.5113360000000  0.5376880000000  0.4951370000000 1.0
C      1  0.4958150000000  0.4754520000000  0.6124630000000 1.0
C      1  0.5779580000000  0.4318310000000  0.5031500000000 1.0
C      1  0.6114560000000  0.4866300000000  0.4965110000000 1.0
C      1  0.4536820000000  0.4226260000000  0.4534990000000 1.0
C      1  0.5100650000000  0.4714450000000  0.4625440000000 1.0
C      1  0.5241030000000  0.6053600000000  0.5346680000000 1.0
C      1  0.5801340000000  0.5510010000000  0.4510340000000 1.0
C      1  0.4720730000000  0.4646560000000  0.4526560000000 1.0
C      1  0.4720790000000  0.4697680000000  0.5890160000000 1.0
C      1  0.5707150000000  0.5236420000000  0.4106750000000 1.0
C      1  0.4002810000000  0.5270260000000  0.5389500000000 1.0
C      1  0.4387740000000  0.4655490000000  0.5836150000000 1.0
C      1  0.5294740000000  0.4286790000000  0.5927000000000 1.0
C      1  0.4626330000000  0.6037440000000  0.5035450000000 1.0
C      1  0.5305760000000  0.4971190000000  0.5434730000000 1.0
C      1  0.5696610000000  0.4352050000000  0.5418370000000 1.0
C      1  0.4534290000000  0.4981630000000  0.4987630000000 1.0
C      1  0.4989250000000  0.4559450000000  0.4336790000000 1.0
C      1  0.5933900000000  0.5062000000000  0.5771310000000 1.0
C      1  0.4895820000000  0.5684590000000  0.4025460000000 1.0
C      1  0.5292000000000  0.4626240000000  0.5946600000000 1.0
C      1  0.4030880000000  0.4790760000000  0.5385000000000 1.0
C      1  0.4537010000000  0.5318090000000  0.5080240000000 1.0
C      1  0.5561010000000  0.4635550000000  0.5308410000000 1.0
C      1  0.4755520000000  0.5063380000000  0.5308370000000 1.0
C      1  0.5008860000000  0.4452990000000  0.6020610000000 1.0
C      1  0.5160350000000  0.5711170000000  0.4906610000000 1.0
C      1  0.5402170000000  0.4632760000000  0.5030580000000 1.0
C      1  0.5032120000000  0.4125400000000  0.4585080000000 1.0
C      1  0.5050790000000  0.5275050000000  0.5474330000000 1.0
C      1  0.4579380000000  0.4591510000000  0.4161630000000 1.0
C      1  0.5462150000000  0.5358850000000  0.5141590000000 1.0
C      1  0.5233570000000  0.4335850000000  0.4251160000000 1.0
C      1  0.4255270000000  0.4371300000000  0.5088940000000 1.0
C      1  0.4339930000000  0.4218300000000  0.5603140000000 1.0
C      1  0.4234970000000  0.5061690000000  0.5027320000000 1.0
C      1  0.4762700000000  0.4983180000000  0.4762560000000 1.0
C      1  0.4844600000000  0.4430720000000  0.5721670000000 1.0
C      1  0.5902060000000  0.5187540000000  0.5472400000000 1.0
C      1  0.4703520000000  0.5842300000000  0.5466610000000 1.0
C      1  0.5102030000000  0.5695320000000  0.5241370000000 1.0
C      1  0.5126960000000  0.4394250000000  0.5188470000000 1.0
C      1  0.5486900000000  0.5962650000000  0.5240030000000 1.0
C      1  0.4692110000000  0.5345170000000  0.4125230000000 1.0
C      1  0.4780460000000  0.5749900000000  0.4804930000000 1.0
C      1  0.4081030000000  0.4788110000000  0.4253890000000 1.0
C      1  0.4302230000000  0.5228340000000  0.5309210000000 1.0
C      1  0.5539470000000  0.4768680000000  0.4750800000000 1.0
C      1  0.4963660000000  0.5927420000000  0.4432660000000 1.0
C      1  0.5692560000000  0.4554140000000  0.4604780000000 1.0
C      1  0.5459450000000  0.5682560000000  0.5066240000000 1.0
C      1  0.5190010000000  0.4405620000000  0.4640040000000 1.0
C      1  0.4925310000000  0.4940540000000  0.5040580000000 1.0
C      1  0.5607440000000  0.5111190000000  0.5216110000000 1.0
C      1  0.5323040000000  0.3988450000000  0.4687480000000 1.0
C      1  0.5137260000000  0.5130560000000  0.5186000000000 1.0
C      1  0.4418740000000  0.5891990000000  0.4897040000000 1.0
C      1  0.4234530000000  0.4550380000000  0.4817900000000 1.0
C      1  0.5207010000000  0.5330210000000  0.4146830000000 1.0
C      1  0.4704130000000  0.4381740000000  0.5460110000000 1.0
C      1  0.4621240000000  0.5522150000000  0.4640980000000 1.0
C      1  0.5005770000000  0.4465340000000  0.3760140000000 1.0
C      1  0.4570350000000  0.5586520000000  0.5286420000000 1.0
C      1  0.4646320000000  0.5588960000000  0.5676270000000 1.0
C      1  0.5397970000000  0.5739500000000  0.4164430000000 1.0
C      1  0.5121200000000  0.4974250000000  0.6044040000000 1.0
C      1  0.5872770000000  0.4772070000000  0.5291340000000 1.0
C      1  0.5586070000000  0.4769090000000  0.4224850000000 1.0
C      1  0.5891050000000  0.5661710000000  0.5052750000000 1.0
C      1  0.4872630000000  0.3922840000000  0.4384930000000 1.0
C      1  0.4820780000000  0.5478070000000  0.4982690000000 1.0
C      1  0.5631330000000  0.4992050000000  0.5521070000000 1.0
C      1  0.4315630000000  0.4367660000000  0.5801420000000 1.0
C      1  0.3863050000000  0.4529950000000  0.5245650000000 1.0
C      1  0.5256830000000  0.5474080000000  0.5340750000000 1.0
C      1  0.5177790000000  0.4475340000000  0.5664140000000 1.0
C      1  0.4780080000000  0.4840840000000  0.4148250000000 1.0
C      1  0.4780960000000  0.5262900000000  0.4648910000000 1.0
C      1  0.4495330000000  0.5057670000000  0.5527400000000 1.0
C      1  0.4897860000000  0.4927960000000  0.4455330000000 1.0
C      1  0.5176730000000  0.4821380000000  0.4906030000000 1.0
C      1  0.5703020000000  0.5632600000000  0.5298760000000 1.0
C      1  0.4167250000000  0.5550020000000  0.4585420000000 1.0
C      1  0.4842540000000  0.4550840000000  0.5243730000000 1.0
C      1  0.4860950000000  0.4401870000000  0.4688570000000 1.0
C      1  0.4889020000000  0.5383930000000  0.4380440000000 1.0
C      1  0.4361460000000  0.5550230000000  0.5759400000000 1.0
C      1  0.4935400000000  0.5953210000000  0.4987740000000 1.0
C      1  0.5446980000000  0.5397720000000  0.5840930000000 1.0
C      1  0.5106050000000  0.5200650000000  0.4660000000000 1.0
C      1  0.4267930000000  0.4805720000000  0.5572830000000 1.0
END
