TITL C-2848496-4490-227 -0.00634162556110783 125000 -978.07847332139 0 0 178 (C1) n - 1
REM
REM in /home/bkarasulu/work/CARBON/AIRSS/Generating-Clusters/AIREBO/with-SteepDescent/Only-C1/SD-CG-opt/Try1-1.4A-POS3A/HFTN-CG
REM
REM
REM
REM
REM
REM ./C.cell (11c1c37f851c82e70ff6c80c92926a4b)
REM
REM compiler GCC version 9.2.1 20190827 (Red Hat 9.2.1-1)
REM options -cpp -mtune=generic -march=x86-64 -g -O0 -fpre-include=/usr/include/finclude/math-vector-fortran.h
REM seed -1862946605 -122310434 1023330143 1359859149 -397226616 -935296962 650662534 577437685 1716828858 1302269131 -570126818 2094363637 1780301293 2008579726 -872396962 857171466 -65451781 1570707107 -2146948797 2131195419 -1195766071 -969256132 -1594342056 1446037857 -1739412028 -471251830 421691984 1863469715 -1856855556 681699311 1581343291 -1851954991 1091212349
REM
CELL 1.54180   50.00000   50.00000   50.00000   90.00000   90.00000   90.00000
LATT -1
SFAC C  
C      1  0.5277200000000  0.4495460000000  0.5678160000000 1.0
C      1  0.5555950000000  0.4730350000000  0.4874230000000 1.0
C      1  0.5450520000000  0.4612840000000  0.5408690000000 1.0
C      1  0.4807540000000  0.5369640000000  0.6204600000000 1.0
C      1  0.4202120000000  0.4526460000000  0.5444170000000 1.0
C      1  0.4833160000000  0.5012380000000  0.5294900000000 1.0
C      1  0.5079220000000  0.5044420000000  0.4808790000000 1.0
C      1  0.5163420000000  0.6055350000000  0.5103590000000 1.0
C      1  0.5558520000000  0.4236840000000  0.5474720000000 1.0
C      1  0.4811750000000  0.5301300000000  0.5569120000000 1.0
C      1  0.4644090000000  0.5088970000000  0.4204490000000 1.0
C      1  0.5204910000000  0.5459650000000  0.4067030000000 1.0
C      1  0.5131130000000  0.3919180000000  0.4658080000000 1.0
C      1  0.5289220000000  0.4881700000000  0.5021370000000 1.0
C      1  0.3912450000000  0.5292730000000  0.5072840000000 1.0
C      1  0.5791500000000  0.5221600000000  0.5674160000000 1.0
C      1  0.4839390000000  0.4196300000000  0.4310140000000 1.0
C      1  0.5180430000000  0.4441050000000  0.4265600000000 1.0
C      1  0.5089990000000  0.4883010000000  0.3940290000000 1.0
C      1  0.5718150000000  0.5668000000000  0.4983160000000 1.0
C      1  0.4819150000000  0.5621310000000  0.6028660000000 1.0
C      1  0.5242080000000  0.4165510000000  0.5369540000000 1.0
C      1  0.5525100000000  0.5648910000000  0.4362550000000 1.0
C      1  0.4424790000000  0.4696980000000  0.4796090000000 1.0
C      1  0.5856440000000  0.4709780000000  0.4112490000000 1.0
C      1  0.5802400000000  0.5673200000000  0.5312550000000 1.0
C      1  0.5118100000000  0.5650330000000  0.5370220000000 1.0
C      1  0.5121780000000  0.5518370000000  0.6019740000000 1.0
C      1  0.5496580000000  0.5232180000000  0.5777920000000 1.0
C      1  0.4437790000000  0.4364820000000  0.5630140000000 1.0
C      1  0.4549610000000  0.4225990000000  0.5133640000000 1.0
C      1  0.4546250000000  0.4676200000000  0.4143210000000 1.0
C      1  0.4864020000000  0.5746950000000  0.5554450000000 1.0
C      1  0.4194110000000  0.4630380000000  0.4556780000000 1.0
C      1  0.5548310000000  0.4639590000000  0.3984020000000 1.0
C      1  0.5111660000000  0.4176130000000  0.4467950000000 1.0
C      1  0.5048400000000  0.4312260000000  0.5783980000000 1.0
C      1  0.5712420000000  0.5191270000000  0.4722670000000 1.0
C      1  0.4346900000000  0.4386340000000  0.4910750000000 1.0
C      1  0.5554770000000  0.4023600000000  0.4916070000000 1.0
C      1  0.5076890000000  0.4930620000000  0.5880130000000 1.0
C      1  0.5186900000000  0.5516770000000  0.5003020000000 1.0
C      1  0.5657480000000  0.5343670000000  0.4423080000000 1.0
C      1  0.4528970000000  0.5823430000000  0.4466930000000 1.0
C      1  0.3939520000000  0.4627070000000  0.4667450000000 1.0
C      1  0.5433400000000  0.4845340000000  0.4357480000000 1.0
C      1  0.4372440000000  0.5035080000000  0.4137040000000 1.0
C      1  0.5871580000000  0.4534390000000  0.4468940000000 1.0
C      1  0.5523430000000  0.5172340000000  0.3939510000000 1.0
C      1  0.3944210000000  0.4722650000000  0.5547120000000 1.0
C      1  0.4689130000000  0.4891550000000  0.4703110000000 1.0
C      1  0.5832310000000  0.4817880000000  0.4946410000000 1.0
C      1  0.4554220000000  0.5543600000000  0.4286770000000 1.0
C      1  0.4560120000000  0.4352620000000  0.4647980000000 1.0
C      1  0.5492100000000  0.4688750000000  0.5953500000000 1.0
C      1  0.5036130000000  0.5202870000000  0.6020210000000 1.0
C      1  0.5323950000000  0.5372870000000  0.4755490000000 1.0
C      1  0.5497810000000  0.5400240000000  0.4136920000000 1.0
C      1  0.4803240000000  0.4748960000000  0.5894100000000 1.0
C      1  0.5111050000000  0.4434410000000  0.5019780000000 1.0
C      1  0.4861580000000  0.5783870000000  0.4404850000000 1.0
C      1  0.4856180000000  0.3869500000000  0.4785430000000 1.0
C      1  0.4466360000000  0.5879300000000  0.5328480000000 1.0
C      1  0.5079250000000  0.6011960000000  0.4534010000000 1.0
C      1  0.4690160000000  0.5940660000000  0.4727570000000 1.0
C      1  0.4896200000000  0.3967630000000  0.5356140000000 1.0
C      1  0.5331110000000  0.5096590000000  0.5513590000000 1.0
C      1  0.5274690000000  0.4865410000000  0.5331650000000 1.0
C      1  0.4993240000000  0.4740330000000  0.4683230000000 1.0
C      1  0.4160630000000  0.5025660000000  0.4495880000000 1.0
C      1  0.5572690000000  0.4656780000000  0.4575570000000 1.0
C      1  0.5408060000000  0.5738130000000  0.4887260000000 1.0
C      1  0.5024610000000  0.5167680000000  0.5108840000000 1.0
C      1  0.5458490000000  0.6122840000000  0.4978930000000 1.0
C      1  0.5104410000000  0.4758950000000  0.4362130000000 1.0
C      1  0.5438910000000  0.4383380000000  0.4564440000000 1.0
C      1  0.4351190000000  0.4918240000000  0.5117660000000 1.0
C      1  0.5010750000000  0.5194640000000  0.4052030000000 1.0
C      1  0.4856320000000  0.4429670000000  0.5943850000000 1.0
C      1  0.5381190000000  0.5983160000000  0.4678530000000 1.0
C      1  0.4979140000000  0.6067230000000  0.5345210000000 1.0
C      1  0.5954210000000  0.4675530000000  0.5203160000000 1.0
C      1  0.5080780000000  0.5956990000000  0.5623880000000 1.0
C      1  0.4679920000000  0.5620280000000  0.5768000000000 1.0
C      1  0.3833310000000  0.5104370000000  0.4887640000000 1.0
C      1  0.6073860000000  0.5158620000000  0.5218860000000 1.0
C      1  0.5465880000000  0.5119490000000  0.4873620000000 1.0
C      1  0.5813190000000  0.5358020000000  0.5185460000000 1.0
C      1  0.5119220000000  0.5085220000000  0.4317980000000 1.0
C      1  0.4691110000000  0.5227950000000  0.4488640000000 1.0
C      1  0.4664000000000  0.4626220000000  0.4490880000000 1.0
C      1  0.5305780000000  0.3910800000000  0.4890680000000 1.0
C      1  0.4193190000000  0.4834250000000  0.6096350000000 1.0
C      1  0.4837910000000  0.4629280000000  0.4964670000000 1.0
C      1  0.4547670000000  0.4524100000000  0.5863750000000 1.0
C      1  0.5063840000000  0.4644210000000  0.5481010000000 1.0
C      1  0.5379980000000  0.4934930000000  0.5894960000000 1.0
C      1  0.5295940000000  0.5102150000000  0.3789720000000 1.0
C      1  0.4491900000000  0.5353350000000  0.5673130000000 1.0
C      1  0.4728690000000  0.5997000000000  0.5263370000000 1.0
C      1  0.4851670000000  0.5491780000000  0.4951350000000 1.0
C      1  0.4355920000000  0.4772330000000  0.5905830000000 1.0
C      1  0.5888820000000  0.4954920000000  0.5605610000000 1.0
C      1  0.5951070000000  0.5198470000000  0.4916260000000 1.0
C      1  0.4891200000000  0.5414720000000  0.5280290000000 1.0
C      1  0.4740740000000  0.4338710000000  0.4906160000000 1.0
C      1  0.5417810000000  0.4509560000000  0.5089850000000 1.0
C      1  0.5448470000000  0.4237560000000  0.4261930000000 1.0
C      1  0.5827930000000  0.4424350000000  0.5011950000000 1.0
C      1  0.5536960000000  0.5317360000000  0.5356950000000 1.0
C      1  0.5754460000000  0.4503510000000  0.5395940000000 1.0
C      1  0.5371610000000  0.5540490000000  0.5852830000000 1.0
C      1  0.5694340000000  0.5020510000000  0.4462270000000 1.0
C      1  0.4265330000000  0.4774190000000  0.4292390000000 1.0
C      1  0.6032310000000  0.4927110000000  0.5366280000000 1.0
C      1  0.4977630000000  0.4125960000000  0.4961110000000 1.0
C      1  0.5261450000000  0.4616710000000  0.4007820000000 1.0
C      1  0.4345160000000  0.5378100000000  0.5302250000000 1.0
C      1  0.5817960000000  0.4393570000000  0.4748720000000 1.0
C      1  0.4011660000000  0.5550600000000  0.5009760000000 1.0
C      1  0.4185690000000  0.4927920000000  0.4820800000000 1.0
C      1  0.4714040000000  0.5032810000000  0.5752010000000 1.0
C      1  0.4459360000000  0.5343040000000  0.4987520000000 1.0
C      1  0.3982530000000  0.4568300000000  0.5187910000000 1.0
C      1  0.5010510000000  0.4099300000000  0.5606880000000 1.0
C      1  0.4359510000000  0.5743560000000  0.5041910000000 1.0
C      1  0.4625190000000  0.4106940000000  0.4466470000000 1.0
C      1  0.4211100000000  0.5191650000000  0.5628690000000 1.0
C      1  0.5267600000000  0.5547350000000  0.4518700000000 1.0
C      1  0.4989740000000  0.5659010000000  0.4689220000000 1.0
C      1  0.5331060000000  0.5847150000000  0.5711550000000 1.0
C      1  0.5003760000000  0.5953570000000  0.4858590000000 1.0
C      1  0.5108340000000  0.5282870000000  0.5697350000000 1.0
C      1  0.5515460000000  0.5893460000000  0.5516130000000 1.0
C      1  0.4652370000000  0.3946050000000  0.5208410000000 1.0
C      1  0.4112490000000  0.5359750000000  0.4454280000000 1.0
C      1  0.5007070000000  0.5225870000000  0.4560980000000 1.0
C      1  0.5759210000000  0.4718790000000  0.5666650000000 1.0
C      1  0.4706240000000  0.5212230000000  0.4820310000000 1.0
C      1  0.4073320000000  0.4372810000000  0.4984970000000 1.0
C      1  0.5681050000000  0.5951980000000  0.5157020000000 1.0
C      1  0.4471330000000  0.5452350000000  0.4603690000000 1.0
C      1  0.4953090000000  0.4916170000000  0.5563280000000 1.0
C      1  0.4218860000000  0.5305890000000  0.4772700000000 1.0
C      1  0.4062270000000  0.5190790000000  0.5325770000000 1.0
C      1  0.4143120000000  0.5650000000000  0.5271210000000 1.0
C      1  0.4436530000000  0.4937150000000  0.5632840000000 1.0
C      1  0.5152250000000  0.3913210000000  0.5160780000000 1.0
C      1  0.4992270000000  0.5478180000000  0.4333270000000 1.0
C      1  0.5642380000000  0.4140150000000  0.4664880000000 1.0
C      1  0.5590580000000  0.4435240000000  0.5749150000000 1.0
C      1  0.3903680000000  0.4794200000000  0.4947670000000 1.0
C      1  0.5935150000000  0.4839760000000  0.4416750000000 1.0
C      1  0.5600420000000  0.4237120000000  0.5141620000000 1.0
C      1  0.5614690000000  0.4937290000000  0.4082720000000 1.0
C      1  0.4775950000000  0.4456350000000  0.4234390000000 1.0
C      1  0.4489080000000  0.4685410000000  0.5410370000000 1.0
C      1  0.5758860000000  0.4246180000000  0.4368450000000 1.0
C      1  0.5152820000000  0.4434160000000  0.4682340000000 1.0
C      1  0.3879390000000  0.5169410000000  0.4615190000000 1.0
C      1  0.4520190000000  0.5096180000000  0.5344140000000 1.0
C      1  0.4743000000000  0.5381010000000  0.4123430000000 1.0
C      1  0.5576650000000  0.5912130000000  0.4445890000000 1.0
C      1  0.4243500000000  0.5659680000000  0.4361520000000 1.0
C      1  0.4988930000000  0.4390450000000  0.5334110000000 1.0
C      1  0.6018680000000  0.4934260000000  0.4713130000000 1.0
C      1  0.5374640000000  0.5814180000000  0.5216960000000 1.0
C      1  0.4675900000000  0.5779290000000  0.5004930000000 1.0
C      1  0.4666410000000  0.3771200000000  0.4978860000000 1.0
C      1  0.4490800000000  0.5625920000000  0.5483890000000 1.0
C      1  0.5329690000000  0.5260810000000  0.5137010000000 1.0
C      1  0.4663240000000  0.4783840000000  0.5144320000000 1.0
C      1  0.4085520000000  0.4876970000000  0.5293240000000 1.0
C      1  0.5882370000000  0.5458800000000  0.5564230000000 1.0
C      1  0.5320120000000  0.5490940000000  0.5531530000000 1.0
C      1  0.4240340000000  0.5639450000000  0.4773780000000 1.0
C      1  0.4655260000000  0.4391430000000  0.5369990000000 1.0
C      1  0.4842090000000  0.4842750000000  0.4162480000000 1.0
END
