TITL C-2848508-1660-287 -0.00112846790323448 125000 -949.350765207938 0 0 179 (C1) n - 1
REM
REM in /home/bkarasulu/work/CARBON/AIRSS/Generating-Clusters/AIREBO/with-SteepDescent/Only-C1/SD-CG-opt/Try1-1.4A-POS3A/HFTN-CG
REM
REM
REM
REM
REM
REM ./C.cell (11c1c37f851c82e70ff6c80c92926a4b)
REM
REM compiler GCC version 9.2.1 20190827 (Red Hat 9.2.1-1)
REM options -cpp -mtune=generic -march=x86-64 -g -O0 -fpre-include=/usr/include/finclude/math-vector-fortran.h
REM seed -559477073 1718161688 118055636 -465028076 692512009 1588656715 -376233899 -52400151 -1082250388 2060598397 1077069402 1353285012 30884454 -917072636 397387055 1301966917 -140209816 1473589005 676729152 -259261722 925732470 378807864 602374053 -136941257 -3561677 1518439447 -146186962 242510307 -334608626 2045990173 1468200291 950317836 -905019078
REM
CELL 1.54180   50.00000   50.00000   50.00000   90.00000   90.00000   90.00000
LATT -1
SFAC C  
C      1  0.4513010000000  0.5609480000000  0.4739960000000 1.0
C      1  0.5368710000000  0.5578690000000  0.5382990000000 1.0
C      1  0.4876090000000  0.5525470000000  0.4486260000000 1.0
C      1  0.4887230000000  0.6003800000000  0.4448620000000 1.0
C      1  0.5457880000000  0.4441390000000  0.4959080000000 1.0
C      1  0.5468680000000  0.5334240000000  0.5168630000000 1.0
C      1  0.5697510000000  0.5471110000000  0.4957650000000 1.0
C      1  0.5003340000000  0.5922620000000  0.5627810000000 1.0
C      1  0.5900570000000  0.5476770000000  0.5385400000000 1.0
C      1  0.4829890000000  0.4778920000000  0.5283670000000 1.0
C      1  0.4270170000000  0.5127720000000  0.5621220000000 1.0
C      1  0.5406350000000  0.5670770000000  0.5872460000000 1.0
C      1  0.4775230000000  0.5394490000000  0.4759880000000 1.0
C      1  0.4107060000000  0.5395400000000  0.5016620000000 1.0
C      1  0.4808570000000  0.4486770000000  0.6125210000000 1.0
C      1  0.4870700000000  0.4172100000000  0.5576410000000 1.0
C      1  0.5648940000000  0.4720410000000  0.4332820000000 1.0
C      1  0.4182200000000  0.4721060000000  0.4924150000000 1.0
C      1  0.5321950000000  0.5263800000000  0.4867180000000 1.0
C      1  0.4572010000000  0.4056600000000  0.4308630000000 1.0
C      1  0.4490980000000  0.4044600000000  0.5116130000000 1.0
C      1  0.4584000000000  0.4052020000000  0.4579960000000 1.0
C      1  0.5564390000000  0.4949820000000  0.4945220000000 1.0
C      1  0.4032320000000  0.4541800000000  0.5838210000000 1.0
C      1  0.3958280000000  0.5467560000000  0.5520900000000 1.0
C      1  0.5515350000000  0.4974360000000  0.5911730000000 1.0
C      1  0.5656650000000  0.4306600000000  0.5587770000000 1.0
C      1  0.5744180000000  0.4182000000000  0.5059050000000 1.0
C      1  0.5243850000000  0.5085630000000  0.3978830000000 1.0
C      1  0.4621720000000  0.5264030000000  0.5277890000000 1.0
C      1  0.5152450000000  0.5884200000000  0.5938900000000 1.0
C      1  0.5037360000000  0.5418600000000  0.4969400000000 1.0
C      1  0.5476640000000  0.4043860000000  0.4954730000000 1.0
C      1  0.4298570000000  0.4596510000000  0.5765300000000 1.0
C      1  0.4812950000000  0.4222620000000  0.5968010000000 1.0
C      1  0.5411530000000  0.4271280000000  0.5820760000000 1.0
C      1  0.5875520000000  0.5207790000000  0.5502560000000 1.0
C      1  0.5704670000000  0.4311710000000  0.4764360000000 1.0
C      1  0.4381980000000  0.4815460000000  0.5252640000000 1.0
C      1  0.4640230000000  0.4892730000000  0.4542780000000 1.0
C      1  0.4351380000000  0.4920150000000  0.4710950000000 1.0
C      1  0.4381760000000  0.5440690000000  0.5289890000000 1.0
C      1  0.5384120000000  0.4734170000000  0.5857950000000 1.0
C      1  0.5485840000000  0.4749860000000  0.4694400000000 1.0
C      1  0.5444420000000  0.5536300000000  0.4178390000000 1.0
C      1  0.4600610000000  0.5001150000000  0.5924040000000 1.0
C      1  0.5019210000000  0.3981660000000  0.5122530000000 1.0
C      1  0.6143220000000  0.4916880000000  0.5126800000000 1.0
C      1  0.4372780000000  0.4922280000000  0.5781040000000 1.0
C      1  0.5921800000000  0.4741250000000  0.4532890000000 1.0
C      1  0.4594580000000  0.4272600000000  0.5427750000000 1.0
C      1  0.4351600000000  0.5213210000000  0.4868220000000 1.0
C      1  0.5190600000000  0.4834610000000  0.4284670000000 1.0
C      1  0.5105150000000  0.5435090000000  0.5300240000000 1.0
C      1  0.5666370000000  0.5665760000000  0.5300600000000 1.0
C      1  0.4683410000000  0.6075060000000  0.5122040000000 1.0
C      1  0.4648770000000  0.4721820000000  0.5532920000000 1.0
C      1  0.4212010000000  0.5292510000000  0.4344640000000 1.0
C      1  0.5329460000000  0.5974210000000  0.4569520000000 1.0
C      1  0.5107810000000  0.4647680000000  0.4943830000000 1.0
C      1  0.4808080000000  0.4501880000000  0.4235270000000 1.0
C      1  0.4302700000000  0.4078270000000  0.4218060000000 1.0
C      1  0.4150880000000  0.5616930000000  0.4263250000000 1.0
C      1  0.4237090000000  0.5098380000000  0.4130420000000 1.0
C      1  0.4970690000000  0.4432130000000  0.4522810000000 1.0
C      1  0.5263930000000  0.4492290000000  0.4684410000000 1.0
C      1  0.5704420000000  0.5017380000000  0.4176280000000 1.0
C      1  0.5990850000000  0.5279800000000  0.4612360000000 1.0
C      1  0.4802950000000  0.4178480000000  0.4153260000000 1.0
C      1  0.3813340000000  0.5059740000000  0.5140600000000 1.0
C      1  0.4871790000000  0.5783740000000  0.4707390000000 1.0
C      1  0.5237070000000  0.4941830000000  0.4939650000000 1.0
C      1  0.5767610000000  0.5049310000000  0.5766360000000 1.0
C      1  0.5627910000000  0.4894490000000  0.5497730000000 1.0
C      1  0.5477440000000  0.5198080000000  0.5467160000000 1.0
C      1  0.4820820000000  0.5513180000000  0.5949490000000 1.0
C      1  0.5155350000000  0.6261480000000  0.5293850000000 1.0
C      1  0.5364670000000  0.4327200000000  0.5427850000000 1.0
C      1  0.4577310000000  0.4700870000000  0.4303100000000 1.0
C      1  0.5072020000000  0.5096650000000  0.6006130000000 1.0
C      1  0.4756410000000  0.3992030000000  0.5322020000000 1.0
C      1  0.5149600000000  0.5606940000000  0.4341300000000 1.0
C      1  0.4518870000000  0.4366290000000  0.5887770000000 1.0
C      1  0.4668960000000  0.5150080000000  0.4973190000000 1.0
C      1  0.5048310000000  0.5348880000000  0.5616280000000 1.0
C      1  0.5996770000000  0.5408560000000  0.4922720000000 1.0
C      1  0.4794800000000  0.5526710000000  0.5365990000000 1.0
C      1  0.5423200000000  0.4491290000000  0.5982800000000 1.0
C      1  0.5133720000000  0.4699840000000  0.5279010000000 1.0
C      1  0.5550900000000  0.5939010000000  0.5717770000000 1.0
C      1  0.4710610000000  0.5056120000000  0.5543410000000 1.0
C      1  0.4381410000000  0.4803430000000  0.4132980000000 1.0
C      1  0.5846470000000  0.5043420000000  0.4451120000000 1.0
C      1  0.4897190000000  0.4904870000000  0.5786430000000 1.0
C      1  0.5185290000000  0.5135590000000  0.4583350000000 1.0
C      1  0.6051880000000  0.5093360000000  0.4872820000000 1.0
C      1  0.4978400000000  0.5059920000000  0.5349390000000 1.0
C      1  0.4776530000000  0.4121290000000  0.3876550000000 1.0
C      1  0.5337410000000  0.6156240000000  0.5116230000000 1.0
C      1  0.5252030000000  0.4230590000000  0.5128790000000 1.0
C      1  0.4117700000000  0.5231320000000  0.5335310000000 1.0
C      1  0.4637810000000  0.4816070000000  0.5028670000000 1.0
C      1  0.4974440000000  0.4641060000000  0.4010400000000 1.0
C      1  0.4427250000000  0.4300000000000  0.4732040000000 1.0
C      1  0.4956780000000  0.4377910000000  0.5071400000000 1.0
C      1  0.6103310000000  0.5500050000000  0.5195310000000 1.0
C      1  0.4482090000000  0.5037570000000  0.3942710000000 1.0
C      1  0.5104610000000  0.4412760000000  0.5608200000000 1.0
C      1  0.5140430000000  0.5285560000000  0.4306390000000 1.0
C      1  0.5532700000000  0.5960170000000  0.5195200000000 1.0
C      1  0.5779130000000  0.4635440000000  0.4822940000000 1.0
C      1  0.5771370000000  0.5626170000000  0.3734840000000 1.0
C      1  0.4900950000000  0.5485330000000  0.3965100000000 1.0
C      1  0.5204290000000  0.6060040000000  0.4857890000000 1.0
C      1  0.5230520000000  0.4463440000000  0.4146350000000 1.0
C      1  0.5316660000000  0.4000980000000  0.5510830000000 1.0
C      1  0.4231550000000  0.4139390000000  0.5115340000000 1.0
C      1  0.4105420000000  0.4196550000000  0.4377100000000 1.0
C      1  0.4720110000000  0.5690770000000  0.4997200000000 1.0
C      1  0.4710080000000  0.5375960000000  0.5658790000000 1.0
C      1  0.5129120000000  0.4186040000000  0.4236480000000 1.0
C      1  0.5357650000000  0.5384760000000  0.5735490000000 1.0
C      1  0.5655320000000  0.5445320000000  0.3873750000000 1.0
C      1  0.6092570000000  0.4767420000000  0.4829790000000 1.0
C      1  0.4385610000000  0.4534120000000  0.5442600000000 1.0
C      1  0.4856330000000  0.5779260000000  0.5899240000000 1.0
C      1  0.4341070000000  0.5642150000000  0.5018980000000 1.0
C      1  0.5329210000000  0.5174710000000  0.5952250000000 1.0
C      1  0.4321090000000  0.5563480000000  0.4524040000000 1.0
C      1  0.4213920000000  0.5602920000000  0.5613280000000 1.0
C      1  0.5123080000000  0.5738340000000  0.4932220000000 1.0
C      1  0.5429620000000  0.4491860000000  0.4387230000000 1.0
C      1  0.4737080000000  0.5123720000000  0.4006700000000 1.0
C      1  0.4996140000000  0.5102180000000  0.5052490000000 1.0
C      1  0.4100530000000  0.4926130000000  0.5185190000000 1.0
C      1  0.5695650000000  0.4709200000000  0.5146570000000 1.0
C      1  0.4144500000000  0.5157940000000  0.4602500000000 1.0
C      1  0.4709120000000  0.4627890000000  0.5834930000000 1.0
C      1  0.5898860000000  0.4936790000000  0.5296710000000 1.0
C      1  0.4390670000000  0.5392460000000  0.5686850000000 1.0
C      1  0.5294310000000  0.4749820000000  0.3972030000000 1.0
C      1  0.4756570000000  0.5360040000000  0.4233910000000 1.0
C      1  0.3839720000000  0.5260820000000  0.4954090000000 1.0
C      1  0.4765880000000  0.4125450000000  0.4947100000000 1.0
C      1  0.5210650000000  0.5066880000000  0.5545310000000 1.0
C      1  0.5186580000000  0.5412640000000  0.3994400000000 1.0
C      1  0.4660280000000  0.4439330000000  0.5167960000000 1.0
C      1  0.4862900000000  0.6070820000000  0.4889550000000 1.0
C      1  0.5806260000000  0.4607250000000  0.5534550000000 1.0
C      1  0.5756120000000  0.4398320000000  0.5271020000000 1.0
C      1  0.5304750000000  0.4156990000000  0.4725150000000 1.0
C      1  0.5421120000000  0.4944950000000  0.4448150000000 1.0
C      1  0.4935340000000  0.5786190000000  0.5223090000000 1.0
C      1  0.5525330000000  0.5222500000000  0.4074190000000 1.0
C      1  0.5312170000000  0.4081040000000  0.4426400000000 1.0
C      1  0.4906390000000  0.6077200000000  0.5375400000000 1.0
C      1  0.4092810000000  0.4392190000000  0.4933060000000 1.0
C      1  0.4445700000000  0.5932710000000  0.5161760000000 1.0
C      1  0.5096310000000  0.4149350000000  0.5823170000000 1.0
C      1  0.4127240000000  0.4285990000000  0.4628990000000 1.0
C      1  0.4793480000000  0.5216090000000  0.6014640000000 1.0
C      1  0.4956180000000  0.4957520000000  0.3966240000000 1.0
C      1  0.5006970000000  0.4749400000000  0.4477550000000 1.0
C      1  0.5520790000000  0.5467540000000  0.4681280000000 1.0
C      1  0.5145480000000  0.4746560000000  0.5615990000000 1.0
C      1  0.5674100000000  0.5164840000000  0.4705620000000 1.0
C      1  0.5147470000000  0.6071150000000  0.4382660000000 1.0
C      1  0.4872310000000  0.5124220000000  0.4450110000000 1.0
C      1  0.4827950000000  0.4716430000000  0.4764840000000 1.0
C      1  0.4330490000000  0.5768050000000  0.5393300000000 1.0
C      1  0.4753250000000  0.4378590000000  0.4729710000000 1.0
C      1  0.5433980000000  0.5673780000000  0.4491960000000 1.0
C      1  0.3850160000000  0.5184250000000  0.4689860000000 1.0
C      1  0.4142450000000  0.4404700000000  0.5269250000000 1.0
C      1  0.4461470000000  0.4537010000000  0.4947220000000 1.0
C      1  0.5453960000000  0.5700400000000  0.5013300000000 1.0
C      1  0.5428920000000  0.4651920000000  0.5349590000000 1.0
C      1  0.5291730000000  0.5791770000000  0.5578920000000 1.0
C      1  0.5607880000000  0.4233720000000  0.4480950000000 1.0
END
