TITL C-2848504-8560-473 0.0045059024078703 125000 -689.851087515386 0 0 131 (C1) n - 1
REM
REM in /home/bkarasulu/work/CARBON/AIRSS/Generating-Clusters/AIREBO/with-SteepDescent/Only-C1/SD-CG-opt/Try1-1.4A-POS3A/HFTN-CG
REM
REM
REM
REM
REM
REM ./C.cell (11c1c37f851c82e70ff6c80c92926a4b)
REM
REM compiler GCC version 9.2.1 20190827 (Red Hat 9.2.1-1)
REM options -cpp -mtune=generic -march=x86-64 -g -O0 -fpre-include=/usr/include/finclude/math-vector-fortran.h
REM seed -1808308146 897856893 -1747520302 2055012829 -1206483230 724663555 25820639 -617584541 1238675440 -876312923 399662714 1488174853 -770292155 -1235361885 -170811381 -1636089561 -264957008 -7654865 -94155267 -1225228032 -388292678 1754225333 1306024757 -1138471542 2099341497 3285451 1211019378 -1365459686 -69879682 1975648303 913274948 603965509 261575823
REM
CELL 1.54180   50.00000   50.00000   50.00000   90.00000   90.00000   90.00000
LATT -1
SFAC C  
C      1  0.4762120000000  0.5273530000000  0.4313590000000 1.0
C      1  0.4764500000000  0.5227120000000  0.5982890000000 1.0
C      1  0.4600840000000  0.5690680000000  0.5289880000000 1.0
C      1  0.5619790000000  0.4380970000000  0.5227630000000 1.0
C      1  0.5449930000000  0.5197780000000  0.4416900000000 1.0
C      1  0.5032610000000  0.4812210000000  0.5398780000000 1.0
C      1  0.5200160000000  0.5189900000000  0.5566700000000 1.0
C      1  0.5732020000000  0.4926230000000  0.4340460000000 1.0
C      1  0.4389240000000  0.5487080000000  0.5019720000000 1.0
C      1  0.4716510000000  0.4344400000000  0.5379090000000 1.0
C      1  0.4829720000000  0.5768040000000  0.4510780000000 1.0
C      1  0.5617870000000  0.5310480000000  0.5792750000000 1.0
C      1  0.5455670000000  0.4125870000000  0.4751850000000 1.0
C      1  0.4309430000000  0.5569010000000  0.4708410000000 1.0
C      1  0.5072860000000  0.5323910000000  0.4377640000000 1.0
C      1  0.4731630000000  0.4252280000000  0.5052040000000 1.0
C      1  0.4971410000000  0.4102860000000  0.5509430000000 1.0
C      1  0.4968220000000  0.4941870000000  0.5012980000000 1.0
C      1  0.4854520000000  0.5877350000000  0.4886820000000 1.0
C      1  0.5783100000000  0.5197800000000  0.5166080000000 1.0
C      1  0.4161660000000  0.4614550000000  0.5122830000000 1.0
C      1  0.5195400000000  0.4921720000000  0.6007300000000 1.0
C      1  0.4659820000000  0.4635020000000  0.5211860000000 1.0
C      1  0.5494690000000  0.5044840000000  0.5901840000000 1.0
C      1  0.4502290000000  0.4667090000000  0.4782920000000 1.0
C      1  0.4503630000000  0.5430630000000  0.4387300000000 1.0
C      1  0.4336850000000  0.5343970000000  0.5564420000000 1.0
C      1  0.4533100000000  0.4107580000000  0.5464620000000 1.0
C      1  0.4328610000000  0.4482470000000  0.4903940000000 1.0
C      1  0.5829280000000  0.4910950000000  0.5332800000000 1.0
C      1  0.5112440000000  0.4990640000000  0.4322800000000 1.0
C      1  0.5434220000000  0.5752430000000  0.5322540000000 1.0
C      1  0.5520620000000  0.5493490000000  0.4327220000000 1.0
C      1  0.5693360000000  0.4960710000000  0.5640550000000 1.0
C      1  0.4616190000000  0.5694600000000  0.4766110000000 1.0
C      1  0.5020910000000  0.5698870000000  0.4250500000000 1.0
C      1  0.4871360000000  0.4251010000000  0.4488130000000 1.0
C      1  0.5497400000000  0.5561600000000  0.5507790000000 1.0
C      1  0.5328050000000  0.4804720000000  0.5229630000000 1.0
C      1  0.4934770000000  0.5035330000000  0.4036270000000 1.0
C      1  0.4315140000000  0.4612120000000  0.4297430000000 1.0
C      1  0.5281720000000  0.5484430000000  0.5012410000000 1.0
C      1  0.5393820000000  0.4375560000000  0.5680650000000 1.0
C      1  0.4671390000000  0.5130770000000  0.5253860000000 1.0
C      1  0.4011730000000  0.5068940000000  0.5332560000000 1.0
C      1  0.5375750000000  0.5933340000000  0.4726510000000 1.0
C      1  0.4434370000000  0.4952480000000  0.4656000000000 1.0
C      1  0.5364920000000  0.4605560000000  0.4568570000000 1.0
C      1  0.4292830000000  0.4605770000000  0.5419490000000 1.0
C      1  0.4427550000000  0.5112700000000  0.4165260000000 1.0
C      1  0.5733930000000  0.5600890000000  0.4458810000000 1.0
C      1  0.5279400000000  0.4729920000000  0.4181960000000 1.0
C      1  0.4580880000000  0.4568990000000  0.5595600000000 1.0
C      1  0.4682210000000  0.5259120000000  0.3994050000000 1.0
C      1  0.4042480000000  0.4957590000000  0.4706390000000 1.0
C      1  0.5049700000000  0.5215550000000  0.4828390000000 1.0
C      1  0.5439110000000  0.5511790000000  0.4738080000000 1.0
C      1  0.4486890000000  0.4862570000000  0.5340870000000 1.0
C      1  0.5305140000000  0.4217460000000  0.5043000000000 1.0
C      1  0.5554370000000  0.5075990000000  0.4978820000000 1.0
C      1  0.5071840000000  0.4631020000000  0.5868120000000 1.0
C      1  0.5110620000000  0.5698600000000  0.5723790000000 1.0
C      1  0.5026950000000  0.4478620000000  0.5414250000000 1.0
C      1  0.5223360000000  0.4864880000000  0.5673200000000 1.0
C      1  0.5300060000000  0.4476830000000  0.5262950000000 1.0
C      1  0.4875930000000  0.5849530000000  0.5187520000000 1.0
C      1  0.4057500000000  0.5371220000000  0.5437070000000 1.0
C      1  0.5014070000000  0.4124590000000  0.5191760000000 1.0
C      1  0.4162810000000  0.5268770000000  0.4772810000000 1.0
C      1  0.4963970000000  0.4308630000000  0.4810250000000 1.0
C      1  0.4726360000000  0.5464240000000  0.4978440000000 1.0
C      1  0.5272170000000  0.5479270000000  0.5650120000000 1.0
C      1  0.4539420000000  0.5701790000000  0.4376420000000 1.0
C      1  0.4312120000000  0.5191190000000  0.4476540000000 1.0
C      1  0.5591400000000  0.5866110000000  0.4879880000000 1.0
C      1  0.4149530000000  0.4863300000000  0.5554770000000 1.0
C      1  0.5472060000000  0.4991920000000  0.4150980000000 1.0
C      1  0.4515560000000  0.5013420000000  0.4975260000000 1.0
C      1  0.4785290000000  0.4840480000000  0.5606080000000 1.0
C      1  0.4518170000000  0.5394660000000  0.5311020000000 1.0
C      1  0.5029300000000  0.3980440000000  0.4884160000000 1.0
C      1  0.5342110000000  0.4480880000000  0.4867970000000 1.0
C      1  0.5837610000000  0.5141480000000  0.4487590000000 1.0
C      1  0.5600040000000  0.4776970000000  0.4842460000000 1.0
C      1  0.5543390000000  0.4215250000000  0.5511900000000 1.0
C      1  0.5754340000000  0.5613340000000  0.4786410000000 1.0
C      1  0.4914390000000  0.5453080000000  0.5221980000000 1.0
C      1  0.5237700000000  0.5188980000000  0.4002260000000 1.0
C      1  0.4720840000000  0.5192290000000  0.4826720000000 1.0
C      1  0.5159000000000  0.4481190000000  0.4345360000000 1.0
C      1  0.5129040000000  0.5449890000000  0.4647510000000 1.0
C      1  0.5005790000000  0.4641910000000  0.4755720000000 1.0
C      1  0.4827940000000  0.5483410000000  0.5544340000000 1.0
C      1  0.4798220000000  0.5075100000000  0.4552110000000 1.0
C      1  0.4916180000000  0.4776860000000  0.4498540000000 1.0
C      1  0.5274480000000  0.5182770000000  0.5081420000000 1.0
C      1  0.5249390000000  0.5477760000000  0.4157250000000 1.0
C      1  0.4758130000000  0.4698150000000  0.4942060000000 1.0
C      1  0.5160290000000  0.5686420000000  0.5211410000000 1.0
C      1  0.4119900000000  0.5307330000000  0.5108940000000 1.0
C      1  0.5664620000000  0.5308890000000  0.5455610000000 1.0
C      1  0.5085200000000  0.4347880000000  0.5715940000000 1.0
C      1  0.5329870000000  0.4931490000000  0.4577430000000 1.0
C      1  0.5460510000000  0.5041440000000  0.5406090000000 1.0
C      1  0.5788960000000  0.4400160000000  0.4507850000000 1.0
C      1  0.5106850000000  0.5784030000000  0.4707120000000 1.0
C      1  0.4915260000000  0.5777780000000  0.5513370000000 1.0
C      1  0.4817420000000  0.4527280000000  0.4329480000000 1.0
C      1  0.4199360000000  0.4782730000000  0.4490000000000 1.0
C      1  0.5644880000000  0.4643990000000  0.5412480000000 1.0
C      1  0.5938390000000  0.4667570000000  0.5142540000000 1.0
C      1  0.5677610000000  0.4696290000000  0.4520550000000 1.0
C      1  0.4609050000000  0.4754580000000  0.5882020000000 1.0
C      1  0.5892830000000  0.5416580000000  0.4999040000000 1.0
C      1  0.4198620000000  0.4908920000000  0.4974110000000 1.0
C      1  0.4501000000000  0.5050770000000  0.5616890000000 1.0
C      1  0.4444470000000  0.4241210000000  0.4945410000000 1.0
C      1  0.5205140000000  0.4239780000000  0.4580560000000 1.0
C      1  0.3902760000000  0.4794510000000  0.5211640000000 1.0
C      1  0.4858780000000  0.4962610000000  0.5979310000000 1.0
C      1  0.5588030000000  0.5913680000000  0.5155980000000 1.0
C      1  0.5265690000000  0.4811110000000  0.4895410000000 1.0
C      1  0.5459870000000  0.4639920000000  0.5624970000000 1.0
C      1  0.4304000000000  0.4899630000000  0.5843110000000 1.0
C      1  0.5731170000000  0.4485950000000  0.4959970000000 1.0
C      1  0.5616780000000  0.5238620000000  0.4710340000000 1.0
C      1  0.5706590000000  0.4274310000000  0.4740610000000 1.0
C      1  0.4577910000000  0.4632140000000  0.4183510000000 1.0
C      1  0.4630490000000  0.4882980000000  0.4077660000000 1.0
C      1  0.4640880000000  0.5343590000000  0.5718520000000 1.0
C      1  0.5009590000000  0.5133860000000  0.5290630000000 1.0
END
