TITL C-2847953-8112-463 -0.0018408339871256 125000 -472.874221636017 0 0 87 (C1) n - 1
REM
REM in /home/bkarasulu/work/CARBON/AIRSS/Generating-Clusters/AIREBO/with-SteepDescent/Only-C1/SD-CG-opt/Try1-1.4A-POS3A/HFTN-CG
REM
REM
REM
REM
REM
REM ./C.cell (11c1c37f851c82e70ff6c80c92926a4b)
REM
REM compiler GCC version 9.2.1 20190827 (Red Hat 9.2.1-1)
REM options -cpp -mtune=generic -march=x86-64 -g -O0 -fpre-include=/usr/include/finclude/math-vector-fortran.h
REM seed 1788423923 -1139934581 -422711775 798518986 39487199 -1967882093 -269113536 -404035183 130382816 -652387728 -94617513 407625348 -1463998478 -423334166 -727133809 306621222 -1867926135 837565560 -1783672574 675275514 1256223106 -23448326 1960602669 -869542296 601014846 -1138782388 142804457 1770727067 -1543227491 -664605176 1830239410 -1077828977 -1745020597
REM
CELL 1.54180   50.00000   50.00000   50.00000   90.00000   90.00000   90.00000
LATT -1
SFAC C  
C      1  0.5743310000000  0.5200680000000  0.5120710000000 1.0
C      1  0.4125300000000  0.4820050000000  0.5091110000000 1.0
C      1  0.4619590000000  0.5141430000000  0.4196990000000 1.0
C      1  0.5341020000000  0.4877370000000  0.4290330000000 1.0
C      1  0.5542410000000  0.5134760000000  0.5590660000000 1.0
C      1  0.5114980000000  0.4687860000000  0.5001120000000 1.0
C      1  0.5281690000000  0.5182350000000  0.5718230000000 1.0
C      1  0.5625540000000  0.4834950000000  0.5483310000000 1.0
C      1  0.4956430000000  0.4533950000000  0.5670190000000 1.0
C      1  0.5084770000000  0.4235040000000  0.5086590000000 1.0
C      1  0.4875110000000  0.5705920000000  0.4999920000000 1.0
C      1  0.5365000000000  0.4284710000000  0.4981430000000 1.0
C      1  0.4647940000000  0.4301840000000  0.5373350000000 1.0
C      1  0.4479590000000  0.4464490000000  0.5234950000000 1.0
C      1  0.4390780000000  0.4791310000000  0.4458150000000 1.0
C      1  0.5037800000000  0.5393750000000  0.4385200000000 1.0
C      1  0.5390830000000  0.4576060000000  0.4836220000000 1.0
C      1  0.4746830000000  0.5326860000000  0.5321340000000 1.0
C      1  0.4357990000000  0.4522740000000  0.4669670000000 1.0
C      1  0.4363570000000  0.5229300000000  0.5373450000000 1.0
C      1  0.4894570000000  0.4701320000000  0.4313630000000 1.0
C      1  0.4914120000000  0.5138580000000  0.4573010000000 1.0
C      1  0.4910360000000  0.5625500000000  0.5833890000000 1.0
C      1  0.4196240000000  0.4907080000000  0.4844380000000 1.0
C      1  0.4862810000000  0.5010130000000  0.5787220000000 1.0
C      1  0.4711750000000  0.5538060000000  0.5572140000000 1.0
C      1  0.4366620000000  0.4757490000000  0.5291990000000 1.0
C      1  0.4518640000000  0.4917390000000  0.4813190000000 1.0
C      1  0.5093820000000  0.5654840000000  0.5571370000000 1.0
C      1  0.4781120000000  0.5319610000000  0.5829210000000 1.0
C      1  0.5340120000000  0.4793570000000  0.5666100000000 1.0
C      1  0.5099980000000  0.5187950000000  0.4967010000000 1.0
C      1  0.4790970000000  0.5114420000000  0.5089360000000 1.0
C      1  0.5179340000000  0.4833910000000  0.5301490000000 1.0
C      1  0.5761650000000  0.5022510000000  0.4470800000000 1.0
C      1  0.5718500000000  0.5288050000000  0.4866570000000 1.0
C      1  0.4789710000000  0.4591430000000  0.4967980000000 1.0
C      1  0.4683090000000  0.4822360000000  0.5185240000000 1.0
C      1  0.4827190000000  0.4245730000000  0.4441290000000 1.0
C      1  0.4353370000000  0.5205610000000  0.4264960000000 1.0
C      1  0.5262210000000  0.5901260000000  0.5168550000000 1.0
C      1  0.4794260000000  0.5595120000000  0.4491580000000 1.0
C      1  0.4743080000000  0.5247650000000  0.4800920000000 1.0
C      1  0.5348130000000  0.5482690000000  0.5463780000000 1.0
C      1  0.4682120000000  0.5562060000000  0.4765210000000 1.0
C      1  0.5380370000000  0.4682750000000  0.4513160000000 1.0
C      1  0.5082750000000  0.4632030000000  0.4588400000000 1.0
C      1  0.5753760000000  0.4897820000000  0.5179740000000 1.0
C      1  0.4413930000000  0.4988990000000  0.5487980000000 1.0
C      1  0.4266450000000  0.5090050000000  0.4564380000000 1.0
C      1  0.5253690000000  0.5127430000000  0.4588440000000 1.0
C      1  0.4707390000000  0.4708810000000  0.4687090000000 1.0
C      1  0.4558330000000  0.4944150000000  0.5711660000000 1.0
C      1  0.5447150000000  0.4177520000000  0.5245130000000 1.0
C      1  0.4985740000000  0.4332670000000  0.5397550000000 1.0
C      1  0.4417970000000  0.5233620000000  0.4832870000000 1.0
C      1  0.5320450000000  0.4322900000000  0.5440890000000 1.0
C      1  0.5175480000000  0.4908150000000  0.4788280000000 1.0
C      1  0.5494170000000  0.5135100000000  0.4347990000000 1.0
C      1  0.4614300000000  0.4463860000000  0.4469590000000 1.0
C      1  0.4898530000000  0.4658940000000  0.5357330000000 1.0
C      1  0.5973900000000  0.4779000000000  0.4947770000000 1.0
C      1  0.4906470000000  0.4306050000000  0.4896270000000 1.0
C      1  0.4576550000000  0.4649210000000  0.4204890000000 1.0
C      1  0.5395560000000  0.5096310000000  0.5286380000000 1.0
C      1  0.5037370000000  0.5343860000000  0.5446050000000 1.0
C      1  0.5061190000000  0.5048350000000  0.5537720000000 1.0
C      1  0.5076180000000  0.4920620000000  0.4196150000000 1.0
C      1  0.4694470000000  0.4943850000000  0.4443090000000 1.0
C      1  0.5397890000000  0.4602740000000  0.5421600000000 1.0
C      1  0.4930120000000  0.5166410000000  0.4175760000000 1.0
C      1  0.5646170000000  0.4715470000000  0.4913600000000 1.0
C      1  0.5637620000000  0.5351540000000  0.5363900000000 1.0
C      1  0.5004760000000  0.4335540000000  0.4636060000000 1.0
C      1  0.5365430000000  0.5470220000000  0.4435220000000 1.0
C      1  0.4485670000000  0.5372060000000  0.5107780000000 1.0
C      1  0.5059480000000  0.5880290000000  0.5348010000000 1.0
C      1  0.5292980000000  0.5638020000000  0.4715270000000 1.0
C      1  0.5830480000000  0.4831200000000  0.4649920000000 1.0
C      1  0.4548150000000  0.5684100000000  0.5061230000000 1.0
C      1  0.4475560000000  0.4464400000000  0.4938990000000 1.0
C      1  0.5063520000000  0.5507720000000  0.4856390000000 1.0
C      1  0.4770140000000  0.5725240000000  0.5319010000000 1.0
C      1  0.5517130000000  0.5314010000000  0.4696730000000 1.0
C      1  0.5301650000000  0.5392240000000  0.5151560000000 1.0
C      1  0.5090960000000  0.4758790000000  0.5809290000000 1.0
C      1  0.5375880000000  0.5688230000000  0.5017090000000 1.0
END
