TITL C-2847955-7945-594 -0.000226250102685617 125000 -452.810772521978 0 0 80 (C1) n - 1
REM
REM in /home/bkarasulu/work/CARBON/AIRSS/Generating-Clusters/AIREBO/with-SteepDescent/Only-C1/SD-CG-opt/Try1-1.4A-POS3A/HFTN-CG
REM
REM
REM
REM
REM
REM ./C.cell (11c1c37f851c82e70ff6c80c92926a4b)
REM
REM compiler GCC version 9.2.1 20190827 (Red Hat 9.2.1-1)
REM options -cpp -mtune=generic -march=x86-64 -g -O0 -fpre-include=/usr/include/finclude/math-vector-fortran.h
REM seed -1176572969 -158372628 254239901 -233794625 1630839776 2066214757 2022224350 1685554309 1405612897 15441462 673806757 2106976919 1410626527 1645572551 1857612767 -1340980982 846813413 -218401925 490516172 -1116506391 -1212705481 902273664 -1649168465 -942249371 1633786106 -204521632 -1385477326 -1595627935 -1217304792 719590050 305285265 792865012 2070606565
REM
CELL 1.54180   50.00000   50.00000   50.00000   90.00000   90.00000   90.00000
LATT -1
SFAC C  
C      1  0.5510760000000  0.5401460000000  0.5148650000000 1.0
C      1  0.4400240000000  0.5744560000000  0.4618830000000 1.0
C      1  0.5142170000000  0.4225800000000  0.4863010000000 1.0
C      1  0.4285630000000  0.5129060000000  0.5374390000000 1.0
C      1  0.5089930000000  0.4623680000000  0.4479480000000 1.0
C      1  0.4973920000000  0.5084220000000  0.5091790000000 1.0
C      1  0.4583940000000  0.5299390000000  0.5914440000000 1.0
C      1  0.5518480000000  0.4949310000000  0.3962100000000 1.0
C      1  0.5389180000000  0.4640590000000  0.4899970000000 1.0
C      1  0.5072700000000  0.5008770000000  0.5408430000000 1.0
C      1  0.5958930000000  0.5121300000000  0.4800170000000 1.0
C      1  0.5088680000000  0.4568410000000  0.5099380000000 1.0
C      1  0.5593260000000  0.5270470000000  0.5441630000000 1.0
C      1  0.5306440000000  0.5095420000000  0.4452170000000 1.0
C      1  0.4502130000000  0.4725000000000  0.5485470000000 1.0
C      1  0.5399900000000  0.4625430000000  0.5440940000000 1.0
C      1  0.5113360000000  0.5394810000000  0.5135240000000 1.0
C      1  0.5682980000000  0.4992190000000  0.4667320000000 1.0
C      1  0.5634860000000  0.4807190000000  0.5587820000000 1.0
C      1  0.5578780000000  0.4794950000000  0.4470060000000 1.0
C      1  0.4212870000000  0.5009810000000  0.4487770000000 1.0
C      1  0.4474030000000  0.4542170000000  0.4639720000000 1.0
C      1  0.5394790000000  0.4222190000000  0.5173080000000 1.0
C      1  0.4649370000000  0.5387010000000  0.4377440000000 1.0
C      1  0.4754060000000  0.4933790000000  0.4286060000000 1.0
C      1  0.4844950000000  0.5598130000000  0.5350300000000 1.0
C      1  0.4207810000000  0.4569290000000  0.4839890000000 1.0
C      1  0.5305000000000  0.4281200000000  0.4681210000000 1.0
C      1  0.4416250000000  0.4337480000000  0.4899400000000 1.0
C      1  0.4443880000000  0.5076300000000  0.4710180000000 1.0
C      1  0.5405050000000  0.5477260000000  0.4874560000000 1.0
C      1  0.4406050000000  0.5371510000000  0.5195390000000 1.0
C      1  0.5073590000000  0.4987770000000  0.5884790000000 1.0
C      1  0.4254250000000  0.5572250000000  0.4728960000000 1.0
C      1  0.5834530000000  0.4858040000000  0.4931480000000 1.0
C      1  0.5539770000000  0.5482970000000  0.5657060000000 1.0
C      1  0.5759750000000  0.5029120000000  0.5521650000000 1.0
C      1  0.4790910000000  0.4595440000000  0.4568080000000 1.0
C      1  0.5103280000000  0.4704480000000  0.5393810000000 1.0
C      1  0.5124740000000  0.5566590000000  0.5429420000000 1.0
C      1  0.5498470000000  0.5257320000000  0.4637000000000 1.0
C      1  0.5172650000000  0.4892490000000  0.4631070000000 1.0
C      1  0.4475970000000  0.4352890000000  0.5173580000000 1.0
C      1  0.4642510000000  0.5422610000000  0.5434610000000 1.0
C      1  0.5142290000000  0.4862070000000  0.4936600000000 1.0
C      1  0.4665270000000  0.5200990000000  0.5662250000000 1.0
C      1  0.4836920000000  0.5202460000000  0.4287820000000 1.0
C      1  0.5493840000000  0.4492750000000  0.5184230000000 1.0
C      1  0.5435460000000  0.4660130000000  0.5776260000000 1.0
C      1  0.5013710000000  0.5683290000000  0.4585480000000 1.0
C      1  0.4797050000000  0.4598700000000  0.5418960000000 1.0
C      1  0.4335610000000  0.4583050000000  0.5289880000000 1.0
C      1  0.5091940000000  0.5610520000000  0.4877520000000 1.0
C      1  0.4588840000000  0.5539510000000  0.4981920000000 1.0
C      1  0.4767410000000  0.4841940000000  0.5211560000000 1.0
C      1  0.4820960000000  0.5658410000000  0.5077500000000 1.0
C      1  0.5016230000000  0.4197370000000  0.5126260000000 1.0
C      1  0.4711450000000  0.5687870000000  0.4516710000000 1.0
C      1  0.4274050000000  0.5017020000000  0.5067520000000 1.0
C      1  0.4929390000000  0.4732710000000  0.4219720000000 1.0
C      1  0.5104050000000  0.5281490000000  0.4331990000000 1.0
C      1  0.4573550000000  0.4847520000000  0.4527800000000 1.0
C      1  0.5151970000000  0.5555790000000  0.4385590000000 1.0
C      1  0.4468940000000  0.4993850000000  0.5540210000000 1.0
C      1  0.4884000000000  0.4028660000000  0.5378730000000 1.0
C      1  0.4751750000000  0.4329110000000  0.5290030000000 1.0
C      1  0.4730130000000  0.5174910000000  0.4865110000000 1.0
C      1  0.5477860000000  0.4935750000000  0.4226680000000 1.0
C      1  0.4584570000000  0.4995640000000  0.5075040000000 1.0
C      1  0.5952300000000  0.5402560000000  0.4784850000000 1.0
C      1  0.4193020000000  0.4724960000000  0.5077350000000 1.0
C      1  0.5238460000000  0.4774640000000  0.5934830000000 1.0
C      1  0.5310360000000  0.5172720000000  0.5288210000000 1.0
C      1  0.5706200000000  0.5503090000000  0.4718700000000 1.0
C      1  0.5755500000000  0.4642590000000  0.5057510000000 1.0
C      1  0.4279380000000  0.5307570000000  0.4886350000000 1.0
C      1  0.4946500000000  0.5085210000000  0.5668090000000 1.0
C      1  0.5408000000000  0.4575110000000  0.4586460000000 1.0
C      1  0.4629920000000  0.5429340000000  0.4705090000000 1.0
C      1  0.5322300000000  0.5640600000000  0.5603430000000 1.0
END
