TITL C-2847946-5639-552 -0.00162232044033235 125000 -622.656640134468 0 0 115 (C1) n - 1
REM
REM in /home/bkarasulu/work/CARBON/AIRSS/Generating-Clusters/AIREBO/with-SteepDescent/Only-C1/SD-CG-opt/Try1-1.4A-POS3A/HFTN-CG
REM
REM
REM
REM
REM
REM ./C.cell (11c1c37f851c82e70ff6c80c92926a4b)
REM
REM compiler GCC version 9.2.1 20190827 (Red Hat 9.2.1-1)
REM options -cpp -mtune=generic -march=x86-64 -g -O0 -fpre-include=/usr/include/finclude/math-vector-fortran.h
REM seed -160637174 -550374804 1849191640 780930126 -1405995515 -1687868357 254584089 754731542 528694238 -1666149615 -1504102044 -1986671022 -1202141569 1797013294 2049445792 460410855 -2005300697 -2127122012 -703568530 747466320 -297509773 -950293195 1469775303 -148260266 -25942311 -2105138669 1884806818 1162638391 347238012 -548612591 -1642956264 1750243357 -1751757264
REM
CELL 1.54180   50.00000   50.00000   50.00000   90.00000   90.00000   90.00000
LATT -1
SFAC C  
C      1  0.4851660000000  0.5083560000000  0.4689350000000 1.0
C      1  0.5563980000000  0.4902140000000  0.5697330000000 1.0
C      1  0.5728800000000  0.4305730000000  0.4998300000000 1.0
C      1  0.5020190000000  0.5320280000000  0.5315330000000 1.0
C      1  0.5198650000000  0.5848390000000  0.4453150000000 1.0
C      1  0.5453950000000  0.5584030000000  0.5294810000000 1.0
C      1  0.5694970000000  0.4635670000000  0.4982290000000 1.0
C      1  0.5506390000000  0.4478390000000  0.5433550000000 1.0
C      1  0.5538750000000  0.4227690000000  0.5255430000000 1.0
C      1  0.5146570000000  0.5951540000000  0.5394010000000 1.0
C      1  0.5391850000000  0.5415760000000  0.5839110000000 1.0
C      1  0.4823420000000  0.5123750000000  0.5828790000000 1.0
C      1  0.5603450000000  0.5478590000000  0.4391280000000 1.0
C      1  0.5533430000000  0.4918890000000  0.4272420000000 1.0
C      1  0.4684000000000  0.5593580000000  0.5657450000000 1.0
C      1  0.4600800000000  0.4894390000000  0.4578340000000 1.0
C      1  0.4783520000000  0.4702810000000  0.5053240000000 1.0
C      1  0.4551080000000  0.4525580000000  0.5324120000000 1.0
C      1  0.5096650000000  0.4859160000000  0.4581180000000 1.0
C      1  0.4655490000000  0.4368280000000  0.4531810000000 1.0
C      1  0.4856150000000  0.4187420000000  0.4430750000000 1.0
C      1  0.5411670000000  0.4749040000000  0.4513970000000 1.0
C      1  0.4506850000000  0.5248050000000  0.5388950000000 1.0
C      1  0.5432990000000  0.4152300000000  0.4357170000000 1.0
C      1  0.5430550000000  0.4135750000000  0.4938880000000 1.0
C      1  0.5675680000000  0.4371040000000  0.4686640000000 1.0
C      1  0.5581530000000  0.5733770000000  0.5063700000000 1.0
C      1  0.4366220000000  0.5021200000000  0.4932150000000 1.0
C      1  0.5453550000000  0.5173840000000  0.5647020000000 1.0
C      1  0.5132310000000  0.5176820000000  0.5581040000000 1.0
C      1  0.5040650000000  0.4398140000000  0.5037010000000 1.0
C      1  0.5271510000000  0.5277220000000  0.4478200000000 1.0
C      1  0.4664260000000  0.5848810000000  0.4837480000000 1.0
C      1  0.4523640000000  0.4807530000000  0.5492200000000 1.0
C      1  0.5182710000000  0.4978720000000  0.4887640000000 1.0
C      1  0.5050060000000  0.4885340000000  0.5426380000000 1.0
C      1  0.5340500000000  0.4436310000000  0.4484710000000 1.0
C      1  0.5202350000000  0.5576460000000  0.5720910000000 1.0
C      1  0.5408370000000  0.4470820000000  0.5740000000000 1.0
C      1  0.4785190000000  0.4909590000000  0.5605190000000 1.0
C      1  0.4694910000000  0.4724750000000  0.4186750000000 1.0
C      1  0.5281760000000  0.5351810000000  0.5141810000000 1.0
C      1  0.5628520000000  0.5229630000000  0.4845170000000 1.0
C      1  0.4101920000000  0.5366390000000  0.4783030000000 1.0
C      1  0.4229550000000  0.4383080000000  0.5514100000000 1.0
C      1  0.4456230000000  0.4710910000000  0.4825400000000 1.0
C      1  0.4022960000000  0.4608290000000  0.5076640000000 1.0
C      1  0.4626810000000  0.5628110000000  0.5384990000000 1.0
C      1  0.4176010000000  0.5274030000000  0.5048400000000 1.0
C      1  0.5409810000000  0.4591420000000  0.5131530000000 1.0
C      1  0.5410750000000  0.4730750000000  0.5863490000000 1.0
C      1  0.5154070000000  0.5353080000000  0.4101600000000 1.0
C      1  0.5062870000000  0.4572570000000  0.4761210000000 1.0
C      1  0.5759620000000  0.4879040000000  0.5199430000000 1.0
C      1  0.5255820000000  0.4047620000000  0.5199520000000 1.0
C      1  0.4794040000000  0.4383860000000  0.5488800000000 1.0
C      1  0.5507540000000  0.5097700000000  0.5134260000000 1.0
C      1  0.4500920000000  0.5512590000000  0.4382090000000 1.0
C      1  0.5801210000000  0.5573670000000  0.4948090000000 1.0
C      1  0.5314880000000  0.5237990000000  0.4813230000000 1.0
C      1  0.4145400000000  0.5684610000000  0.5306950000000 1.0
C      1  0.5269330000000  0.4857240000000  0.5167990000000 1.0
C      1  0.4871140000000  0.5611020000000  0.5221150000000 1.0
C      1  0.5671930000000  0.4767410000000  0.4711510000000 1.0
C      1  0.4776620000000  0.5388170000000  0.4372240000000 1.0
C      1  0.4738450000000  0.4299790000000  0.5770100000000 1.0
C      1  0.5008680000000  0.4218030000000  0.5337380000000 1.0
C      1  0.4957770000000  0.4915450000000  0.4274700000000 1.0
C      1  0.4962140000000  0.5437000000000  0.4956700000000 1.0
C      1  0.4567770000000  0.5248320000000  0.4778600000000 1.0
C      1  0.4742320000000  0.4536640000000  0.4776950000000 1.0
C      1  0.5818560000000  0.5009100000000  0.4737610000000 1.0
C      1  0.4325610000000  0.4252760000000  0.5236550000000 1.0
C      1  0.4093450000000  0.4733980000000  0.4573490000000 1.0
C      1  0.4388070000000  0.5578630000000  0.4136170000000 1.0
C      1  0.5398900000000  0.5837250000000  0.4881820000000 1.0
C      1  0.4999900000000  0.4999410000000  0.6047530000000 1.0
C      1  0.5672240000000  0.4757850000000  0.5472680000000 1.0
C      1  0.5083490000000  0.4429030000000  0.4033270000000 1.0
C      1  0.4283240000000  0.4612430000000  0.5606570000000 1.0
C      1  0.5243920000000  0.5610600000000  0.4689940000000 1.0
C      1  0.5957900000000  0.5082050000000  0.5011820000000 1.0
C      1  0.4673580000000  0.3958490000000  0.5013560000000 1.0
C      1  0.4546600000000  0.5704550000000  0.5865980000000 1.0
C      1  0.5525650000000  0.5185260000000  0.4303540000000 1.0
C      1  0.5580590000000  0.5296640000000  0.5400310000000 1.0
C      1  0.4967460000000  0.4667890000000  0.4049420000000 1.0
C      1  0.4991610000000  0.5388970000000  0.4635650000000 1.0
C      1  0.4450800000000  0.4021650000000  0.5103680000000 1.0
C      1  0.4950700000000  0.4070240000000  0.5045480000000 1.0
C      1  0.4542400000000  0.5219640000000  0.5662900000000 1.0
C      1  0.4331380000000  0.4547750000000  0.4554440000000 1.0
C      1  0.5574330000000  0.5520300000000  0.4700520000000 1.0
C      1  0.4765040000000  0.5163200000000  0.5225500000000 1.0
C      1  0.5300940000000  0.5565430000000  0.4297910000000 1.0
C      1  0.4977260000000  0.5886560000000  0.5180110000000 1.0
C      1  0.5144130000000  0.5989310000000  0.4746860000000 1.0
C      1  0.4925400000000  0.5417330000000  0.5704790000000 1.0
C      1  0.4546240000000  0.4905150000000  0.5188760000000 1.0
C      1  0.4096950000000  0.4918340000000  0.4751720000000 1.0
C      1  0.5225540000000  0.4846980000000  0.6039850000000 1.0
C      1  0.5374270000000  0.4450430000000  0.4822880000000 1.0
C      1  0.4483480000000  0.5723120000000  0.4613940000000 1.0
C      1  0.4326530000000  0.4541400000000  0.5069100000000 1.0
C      1  0.4942440000000  0.5213410000000  0.4202900000000 1.0
C      1  0.4883600000000  0.4989220000000  0.4996340000000 1.0
C      1  0.4314520000000  0.5365630000000  0.4607660000000 1.0
C      1  0.4359610000000  0.5501770000000  0.5216890000000 1.0
C      1  0.4492300000000  0.5558640000000  0.4908760000000 1.0
C      1  0.5291290000000  0.5734210000000  0.5504030000000 1.0
C      1  0.5121240000000  0.4273010000000  0.4296130000000 1.0
C      1  0.4909320000000  0.5957980000000  0.4913940000000 1.0
C      1  0.5986010000000  0.5369990000000  0.5018620000000 1.0
C      1  0.4530710000000  0.4559330000000  0.4314040000000 1.0
C      1  0.4956710000000  0.4607740000000  0.5291230000000 1.0
END
