TITL C-2848497-6229-660 1873.13231098504 125000 -930.029113715854 0 0 175 (C1) n - 1
REM
REM in /home/bkarasulu/work/CARBON/AIRSS/Generating-Clusters/AIREBO/with-SteepDescent/Only-C1/SD-CG-opt/Try1-1.4A-POS3A/HFTN-CG
REM
REM
REM
REM
REM
REM ./C.cell (11c1c37f851c82e70ff6c80c92926a4b)
REM
REM compiler GCC version 9.2.1 20190827 (Red Hat 9.2.1-1)
REM options -cpp -mtune=generic -march=x86-64 -g -O0 -fpre-include=/usr/include/finclude/math-vector-fortran.h
REM seed 834970809 1991092273 -1074225377 2066956366 995713351 934297051 1082377531 1419576936 2087080184 1086399064 -1271802622 -820020027 2019103293 335649656 -1873126936 611773601 -1375540172 -616800508 188513178 -1381496238 472957768 -1361810316 1754040534 1419623032 -434022862 -186925654 -977925249 1875658424 -1535179807 -1111493244 -55150707 -785423829 1431740
REM
CELL 1.54180   50.00000   50.00000   50.00000   90.00000   90.00000   90.00000
LATT -1
SFAC C  
C      1  0.4408820000000  0.4484220000000  0.5643150000000 1.0
C      1  0.4662680000000  0.4278140000000  0.4221190000000 1.0
C      1  0.5024040000000  0.6017190000000  0.5606460000000 1.0
C      1  0.4448400000000  0.5981200000000  0.5069510000000 1.0
C      1  0.4582950000000  0.6144640000000  0.5266820000000 1.0
C      1  0.3958300000000  0.4929690000000  0.5332090000000 1.0
C      1  0.4746580000000  0.4096870000000  0.5181950000000 1.0
C      1  0.5573730000000  0.5025670000000  0.5837370000000 1.0
C      1  0.5001210000000  0.4083270000000  0.5730500000000 1.0
C      1  0.5101080000000  0.5832110000000  0.4735690000000 1.0
C      1  0.4427360000000  0.4050810000000  0.5461220000000 1.0
C      1  0.5189930000000  0.5762700000000  0.5224630000000 1.0
C      1  0.4600160000000  0.5870070000000  0.4511430000000 1.0
C      1  0.4564190000000  0.4774790000000  0.4234610000000 1.0
C      1  0.5647320000000  0.5042930000000  0.4666510000000 1.0
C      1  0.5323290000000  0.3955170000000  0.5219060000000 1.0
C      1  0.5139750000000  0.4601520000000  0.5991080000000 1.0
C      1  0.4502050000000  0.5356280000000  0.4185960000000 1.0
C      1  0.4753260000000  0.5410950000000  0.4124290000000 1.0
C      1  0.4540950000000  0.5522730000000  0.4891770000000 1.0
C      1  0.4816220000000  0.5259590000000  0.5609260000000 1.0
C      1  0.5252900000000  0.5542950000000  0.3982890000000 1.0
C      1  0.4416040000000  0.4082220000000  0.5136780000000 1.0
C      1  0.5887240000000  0.4361780000000  0.5619780000000 1.0
C      1  0.4286810000000  0.5342820000000  0.4952740000000 1.0
C      1  0.6163550000000  0.5268350000000  0.4614460000000 1.0
C      1  0.5162230000000  0.4856150000000  0.4611420000000 1.0
C      1  0.4695720000000  0.5529890000000  0.5186580000000 1.0
C      1  0.3900380000000  0.5032640000000  0.5067470000000 1.0
C      1  0.5429690000000  0.5184850000000  0.5652750000000 1.0
C      1  0.4976650000000  0.3992920000000  0.5409590000000 1.0
C      1  0.4528260000000  0.5067290000000  0.5303390000000 1.0
C      1  0.4916650000000  0.4000680000000  0.4931180000000 1.0
C      1  0.4098160000000  0.5054370000000  0.5763580000000 1.0
C      1  0.4076750000000  0.4373730000000  0.5391980000000 1.0
C      1  0.4835880000000  0.5905200000000  0.4339690000000 1.0
C      1  0.4484090000000  0.5064470000000  0.4966210000000 1.0
C      1  0.4951430000000  0.4113220000000  0.4442790000000 1.0
C      1  0.5542620000000  0.4104470000000  0.4559970000000 1.0
C      1  0.4809900000000  0.4699800000000  0.4068340000000 1.0
C      1  0.5524460000000  0.4565620000000  0.4781520000000 1.0
C      1  0.4412590000000  0.5717120000000  0.5210740000000 1.0
C      1  0.3969550000000  0.4907880000000  0.4594680000000 1.0
C      1  0.4608920000000  0.4706650000000  0.4549390000000 1.0
C      1  0.5357880000000  0.5003440000000  0.4020690000000 1.0
C      1  0.4832900000000  0.4549060000000  0.5951860000000 1.0
C      1  0.5598890000000  0.4838340000000  0.5374950000000 1.0
C      1  0.5571720000000  0.4003250000000  0.5353670000000 1.0
C      1  0.4818300000000  0.5421950000000  0.4626190000000 1.0
C      1  0.5203910000000  0.4906170000000  0.5931720000000 1.0
C      1  0.5221310000000  0.4932000000000  0.4999590000000 1.0
C      1  0.5324210000000  0.5149140000000  0.4674210000000 1.0
C      1  0.4494280000000  0.4681710000000  0.5081910000000 1.0
C      1  0.4249500000000  0.4238300000000  0.5578600000000 1.0
C      1  0.4607510000000  0.4401370000000  0.4699250000000 1.0
C      1  0.5927330000000  0.4759420000000  0.5412940000000 1.0
C      1  0.5268700000000  0.4672370000000  0.5156730000000 1.0
C      1  0.5166690000000  0.5227060000000  0.5262140000000 1.0
C      1  0.4595150000000  0.5175030000000  0.4664400000000 1.0
C      1  0.5649510000000  0.5161890000000  0.4235450000000 1.0
C      1  0.4697710000000  0.4083380000000  0.5583840000000 1.0
C      1  0.5492900000000  0.5538220000000  0.4941620000000 1.0
C      1  0.4605520000000  0.4583250000000  0.6202760000000 1.0
C      1  0.5108610000000  0.5916370000000  0.4475240000000 1.0
C      1  0.5870800000000  0.5232070000000  0.4766010000000 1.0
C      1  0.5012370000000  0.5002140000000  0.5699860000000 1.0
C      1  0.6312750000000  0.4714770000000  0.4491890000000 1.0
C      1  0.5497820000000  0.4741870000000  0.5883430000000 1.0
C      1  0.4245500000000  0.5197460000000  0.5257340000000 1.0
C      1  0.5114700000000  0.6070750000000  0.5319410000000 1.0
C      1  0.5223840000000  0.5424850000000  0.5742130000000 1.0
C      1  0.5125150000000  0.4219930000000  0.5202690000000 1.0
C      1  0.5601130000000  0.4506630000000  0.4220260000000 1.0
C      1  0.4277840000000  0.4826570000000  0.5692160000000 1.0
C      1  0.5533360000000  0.5421710000000  0.5483460000000 1.0
C      1  0.4744960000000  0.6009630000000  0.5455540000000 1.0
C      1  0.3953960000000  0.5351170000000  0.5173770000000 1.0
C      1  0.5006070000000  0.5743720000000  0.4130330000000 1.0
C      1  0.5364940000000  0.5708150000000  0.5500210000000 1.0
C      1  0.5152410000000  0.4309670000000  0.5812920000000 1.0
C      1  0.5506970000000  0.4078250000000  0.4886860000000 1.0
C      1  0.5712190000000  0.5473480000000  0.4287770000000 1.0
C      1  0.4225260000000  0.5514240000000  0.4132200000000 1.0
C      1  0.3901530000000  0.4842220000000  0.4859200000000 1.0
C      1  0.5629940000000  0.4837900000000  0.4140520000000 1.0
C      1  0.5157050000000  0.4364310000000  0.4447530000000 1.0
C      1  0.4387250000000  0.4425850000000  0.4919280000000 1.0
C      1  0.4875460000000  0.5734800000000  0.5350890000000 1.0
C      1  0.5618580000000  0.5345480000000  0.5199970000000 1.0
C      1  0.4356250000000  0.4984760000000  0.4098520000000 1.0
C      1  0.4550650000000  0.4961080000000  0.5616650000000 1.0
C      1  0.6027320000000  0.5609690000000  0.5476100000000 1.0
C      1  0.5700530000000  0.5704150000000  0.5435790000000 1.0
C      1  0.4912470000000  0.4724330000000  0.4421290000000 1.0
C      1  0.4428600000000  0.5108380000000  0.4407050000000 1.0
C      1  0.4141490000000  0.5205710000000  0.4252620000000 1.0
C      1  0.4665240000000  0.4837010000000  0.6019690000000 1.0
C      1  0.5142090000000  0.5754670000000  0.5758590000000 1.0
C      1  0.5836570000000  0.4085340000000  0.4970130000000 1.0
C      1  0.5546630000000  0.4281570000000  0.5159860000000 1.0
C      1  0.5096180000000  0.5483290000000  0.5074140000000 1.0
C      1  0.5464550000000  0.4526430000000  0.5393300000000 1.0
C      1  0.5023510000000  0.5494290000000  0.5494960000000 1.0
C      1  0.5778830000000  0.5759540000000  0.5109600000000 1.0
C      1  0.6195720000000  0.5098590000000  0.5175270000000 1.0
C      1  0.5384730000000  0.5221430000000  0.5001140000000 1.0
C      1  0.4298070000000  0.4808370000000  0.4850400000000 1.0
C      1  0.4726860000000  0.4832830000000  0.3813040000000 1.0
C      1  0.4960000000000  0.6178690000000  0.5106530000000 1.0
C      1  0.6063450000000  0.4766810000000  0.4475540000000 1.0
C      1  0.5540980000000  0.5676530000000  0.4104510000000 1.0
C      1  0.4444010000000  0.4675430000000  0.5361720000000 1.0
C      1  0.4857110000000  0.4367010000000  0.5351450000000 1.0
C      1  0.4524200000000  0.5577940000000  0.4556670000000 1.0
C      1  0.4235830000000  0.5452770000000  0.4466440000000 1.0
C      1  0.4126680000000  0.5572950000000  0.5306820000000 1.0
C      1  0.5906620000000  0.5215910000000  0.5095080000000 1.0
C      1  0.5930690000000  0.5469980000000  0.4528880000000 1.0
C      1  0.4526370000000  0.3949420000000  0.4862400000000 1.0
C      1  0.5225560000000  0.5567210000000  0.4320940000000 1.0
C      1  0.5197950000000  0.4546330000000  0.5599310000000 1.0
C      1  0.4934960000000  0.4447480000000  0.4225140000000 1.0
C      1  0.4025320000000  0.5154840000000  0.5514820000000 1.0
C      1  0.5809630000000  0.4617230000000  0.4947470000000 1.0
C      1  0.5078580000000  0.5107850000000  0.4316320000000 1.0
C      1  0.5976830000000  0.4486800000000  0.5391760000000 1.0
C      1  0.5429590000000  0.5343530000000  0.4425140000000 1.0
C      1  0.5427050000000  0.4421520000000  0.5965390000000 1.0
C      1  0.5646710000000  0.5558810000000  0.4654610000000 1.0
C      1  0.4117830000000  0.4678140000000  0.5430020000000 1.0
C      1  0.5176780000000  0.5214600000000  0.5993690000000 1.0
C      1  0.4925420000000  0.5053230000000  0.4995640000000 1.0
C      1  0.4467740000000  0.4351950000000  0.4399360000000 1.0
C      1  0.5508310000000  0.4862160000000  0.4882000000000 1.0
C      1  0.5036410000000  0.4787600000000  0.5458430000000 1.0
C      1  0.4673450000000  0.5112990000000  0.5881030000000 1.0
C      1  0.5498610000000  0.4682870000000  0.4484300000000 1.0
C      1  0.4550730000000  0.6007400000000  0.4761020000000 1.0
C      1  0.4101900000000  0.5400370000000  0.4741210000000 1.0
C      1  0.5267760000000  0.4846930000000  0.4301170000000 1.0
C      1  0.4956240000000  0.5384770000000  0.4349160000000 1.0
C      1  0.5744710000000  0.4915560000000  0.5097920000000 1.0
C      1  0.5044840000000  0.5292360000000  0.4805220000000 1.0
C      1  0.5292100000000  0.4405220000000  0.4971070000000 1.0
C      1  0.5587500000000  0.5860730000000  0.4889480000000 1.0
C      1  0.4826580000000  0.5226870000000  0.5270860000000 1.0
C      1  0.4728980000000  0.4715500000000  0.5534070000000 1.0
C      1  0.5393800000000  0.5870760000000  0.4340650000000 1.0
C      1  0.5445410000000  0.4297810000000  0.4391380000000 1.0
C      1  0.5281060000000  0.5876590000000  0.4942080000000 1.0
C      1  0.4868860000000  0.5571060000000  0.5854300000000 1.0
C      1  0.4254510000000  0.4521400000000  0.4365950000000 1.0
C      1  0.5613420000000  0.4480740000000  0.5695640000000 1.0
C      1  0.4901030000000  0.5325010000000  0.5993370000000 1.0
C      1  0.5871330000000  0.4377830000000  0.5129370000000 1.0
C      1  0.4501840000000  0.4958370000000  0.3818230000000 1.0
C      1  0.4813390000000  0.5710850000000  0.4813950000000 1.0
C      1  0.4614470000000  0.5528110000000  0.5662750000000 1.0
C      1  0.4739790000000  0.4410310000000  0.5667740000000 1.0
C      1  0.4395400000000  0.5553330000000  0.5506090000000 1.0
C      1  0.4145610000000  0.4286060000000  0.5103890000000 1.0
C      1  0.5120920000000  0.4533450000000  0.4706580000000 1.0
C      1  0.5276230000000  0.5235980000000  0.3903230000000 1.0
C      1  0.4070180000000  0.4569640000000  0.4932150000000 1.0
C      1  0.4859490000000  0.4550880000000  0.4871800000000 1.0
C      1  0.5778920000000  0.4854390000000  0.4445730000000 1.0
C      1  0.4947290000000  0.4613710000000  0.5179950000000 1.0
C      1  0.4289330000000  0.4819430000000  0.4520190000000 1.0
C      1  0.5968910000000  0.5536050000000  0.5191690000000 1.0
C      1  0.5303360000000  0.4995370000000  0.5423310000000 1.0
C      1  0.4757660000000  0.4101810000000  0.4681490000000 1.0
C      1  0.5602190000000  0.5880250000000  0.4563490000000 1.0
C      1  0.4813740000000  0.6034480000000  0.4920000000000 1.0
C      1  0.4734480000000  0.4837320000000  0.4925940000000 1.0
C      1  0.5199990000000  0.3938330000000  0.4932490000000 1.0
END
