TITL C-2847946-5639-252 0.000368223968730697 125000 -785.431505199241 0 0 142 (C1) n - 1
REM
REM in /home/bkarasulu/work/CARBON/AIRSS/Generating-Clusters/AIREBO/with-SteepDescent/Only-C1/SD-CG-opt/Try1-1.4A-POS3A/HFTN-CG
REM
REM
REM
REM
REM
REM ./C.cell (11c1c37f851c82e70ff6c80c92926a4b)
REM
REM compiler GCC version 9.2.1 20190827 (Red Hat 9.2.1-1)
REM options -cpp -mtune=generic -march=x86-64 -g -O0 -fpre-include=/usr/include/finclude/math-vector-fortran.h
REM seed 349693159 323790225 1199622794 874654924 -625443653 -1684283958 -231015810 -389195077 758275866 -1136706158 -1571227959 -2004844188 1370837309 -804904700 -1592895892 627487124 506552391 186078569 1368950315 -1304018511 -1500776551 -224013632 -1226343573 1379011799 -795291758 2120522127 1292972235 1316773615 -340392994 1398940803 440587351 -1810063168 -284595964
REM
CELL 1.54180   50.00000   50.00000   50.00000   90.00000   90.00000   90.00000
LATT -1
SFAC C  
C      1  0.5110410000000  0.5935760000000  0.5170600000000 1.0
C      1  0.5703670000000  0.4509730000000  0.5345570000000 1.0
C      1  0.5301080000000  0.4983320000000  0.5675300000000 1.0
C      1  0.4664280000000  0.4885520000000  0.4372140000000 1.0
C      1  0.5272910000000  0.5135000000000  0.5138740000000 1.0
C      1  0.4850940000000  0.4320370000000  0.4314900000000 1.0
C      1  0.4978360000000  0.4743760000000  0.5986000000000 1.0
C      1  0.5762040000000  0.5256700000000  0.5666940000000 1.0
C      1  0.4712210000000  0.5740880000000  0.5521320000000 1.0
C      1  0.4608640000000  0.4050130000000  0.4770330000000 1.0
C      1  0.4414200000000  0.4967440000000  0.4179820000000 1.0
C      1  0.4909580000000  0.5483760000000  0.5755600000000 1.0
C      1  0.5573540000000  0.5887770000000  0.5007620000000 1.0
C      1  0.5917180000000  0.5364430000000  0.4678590000000 1.0
C      1  0.4483260000000  0.4052150000000  0.5025010000000 1.0
C      1  0.5810080000000  0.5321740000000  0.4396970000000 1.0
C      1  0.5337070000000  0.5523620000000  0.5331890000000 1.0
C      1  0.5020140000000  0.5456470000000  0.5435170000000 1.0
C      1  0.4022930000000  0.4747610000000  0.4486610000000 1.0
C      1  0.4886340000000  0.5711510000000  0.4795710000000 1.0
C      1  0.4228420000000  0.5441740000000  0.4801600000000 1.0
C      1  0.4683180000000  0.5195110000000  0.4967610000000 1.0
C      1  0.4373280000000  0.4612750000000  0.4355650000000 1.0
C      1  0.4501390000000  0.5354190000000  0.5626620000000 1.0
C      1  0.4668660000000  0.4968870000000  0.3976080000000 1.0
C      1  0.5217410000000  0.5810300000000  0.5443850000000 1.0
C      1  0.4634270000000  0.5774430000000  0.4622440000000 1.0
C      1  0.4713820000000  0.5495590000000  0.3997520000000 1.0
C      1  0.4757690000000  0.5562220000000  0.4447940000000 1.0
C      1  0.4792210000000  0.5177430000000  0.5665320000000 1.0
C      1  0.5142590000000  0.4854370000000  0.3973520000000 1.0
C      1  0.5331670000000  0.4691810000000  0.4164920000000 1.0
C      1  0.4785390000000  0.4716230000000  0.4863050000000 1.0
C      1  0.5364720000000  0.4216670000000  0.4698250000000 1.0
C      1  0.5277200000000  0.4385070000000  0.5763670000000 1.0
C      1  0.4392050000000  0.4907050000000  0.4851590000000 1.0
C      1  0.4160470000000  0.4784840000000  0.4209860000000 1.0
C      1  0.4508760000000  0.5263250000000  0.4041380000000 1.0
C      1  0.4039840000000  0.4665480000000  0.5562000000000 1.0
C      1  0.5614260000000  0.5558230000000  0.5760470000000 1.0
C      1  0.5978360000000  0.4659210000000  0.4599420000000 1.0
C      1  0.4896190000000  0.4988930000000  0.5395680000000 1.0
C      1  0.4397270000000  0.4291260000000  0.5438250000000 1.0
C      1  0.5023560000000  0.4292000000000  0.5853650000000 1.0
C      1  0.5670110000000  0.4824670000000  0.5258240000000 1.0
C      1  0.5316680000000  0.5560380000000  0.4524370000000 1.0
C      1  0.5476910000000  0.5296890000000  0.5493760000000 1.0
C      1  0.5269860000000  0.4494360000000  0.4652190000000 1.0
C      1  0.4427630000000  0.4925880000000  0.5848660000000 1.0
C      1  0.5520100000000  0.4934040000000  0.4674200000000 1.0
C      1  0.4409250000000  0.4694280000000  0.4609490000000 1.0
C      1  0.5226430000000  0.4797170000000  0.4777900000000 1.0
C      1  0.4847960000000  0.5875470000000  0.5075830000000 1.0
C      1  0.4881040000000  0.5578360000000  0.4197320000000 1.0
C      1  0.4082880000000  0.4464320000000  0.4585150000000 1.0
C      1  0.4840040000000  0.4213530000000  0.5641560000000 1.0
C      1  0.5096540000000  0.4076050000000  0.4834100000000 1.0
C      1  0.4521610000000  0.5309070000000  0.5316400000000 1.0
C      1  0.4370770000000  0.5259770000000  0.5038650000000 1.0
C      1  0.5132710000000  0.4046810000000  0.5160810000000 1.0
C      1  0.4948130000000  0.4602580000000  0.5473350000000 1.0
C      1  0.5118950000000  0.5274120000000  0.4717700000000 1.0
C      1  0.4260740000000  0.4542150000000  0.5334900000000 1.0
C      1  0.4340830000000  0.4633950000000  0.5047550000000 1.0
C      1  0.5283140000000  0.5248940000000  0.4242910000000 1.0
C      1  0.5514740000000  0.4930310000000  0.5018440000000 1.0
C      1  0.5244700000000  0.4523910000000  0.5496760000000 1.0
C      1  0.5701700000000  0.4330240000000  0.5149650000000 1.0
C      1  0.5441600000000  0.4676470000000  0.4466560000000 1.0
C      1  0.5848320000000  0.4902410000000  0.4624860000000 1.0
C      1  0.4743650000000  0.5535830000000  0.5256510000000 1.0
C      1  0.4622790000000  0.5013410000000  0.5243590000000 1.0
C      1  0.4947850000000  0.4176460000000  0.5388760000000 1.0
C      1  0.5883070000000  0.4982820000000  0.5578200000000 1.0
C      1  0.5652010000000  0.4506400000000  0.6113440000000 1.0
C      1  0.5940350000000  0.4982670000000  0.5285850000000 1.0
C      1  0.4639110000000  0.4223830000000  0.4485280000000 1.0
C      1  0.4350210000000  0.5959510000000  0.4648780000000 1.0
C      1  0.5260200000000  0.4343800000000  0.5251570000000 1.0
C      1  0.5402660000000  0.5233700000000  0.4563770000000 1.0
C      1  0.5646950000000  0.5587060000000  0.4489390000000 1.0
C      1  0.4483430000000  0.4792460000000  0.5383480000000 1.0
C      1  0.4837060000000  0.4295940000000  0.4825220000000 1.0
C      1  0.4730600000000  0.5301450000000  0.4558630000000 1.0
C      1  0.5020320000000  0.4977170000000  0.4672960000000 1.0
C      1  0.5165250000000  0.5165340000000  0.5435260000000 1.0
C      1  0.4297040000000  0.4784910000000  0.5648830000000 1.0
C      1  0.5856710000000  0.5870230000000  0.4922770000000 1.0
C      1  0.5520440000000  0.4580960000000  0.5879700000000 1.0
C      1  0.4530070000000  0.5764740000000  0.5123630000000 1.0
C      1  0.5242590000000  0.4768440000000  0.5888170000000 1.0
C      1  0.5729630000000  0.5578240000000  0.4819020000000 1.0
C      1  0.5219430000000  0.5116170000000  0.3940870000000 1.0
C      1  0.3680350000000  0.5079300000000  0.4638250000000 1.0
C      1  0.4364740000000  0.5190850000000  0.5858790000000 1.0
C      1  0.4881660000000  0.4808390000000  0.4045880000000 1.0
C      1  0.5187260000000  0.5572410000000  0.4210150000000 1.0
C      1  0.4987040000000  0.5795360000000  0.5643020000000 1.0
C      1  0.4353070000000  0.5838410000000  0.5375280000000 1.0
C      1  0.4637450000000  0.5616620000000  0.5893960000000 1.0
C      1  0.5010050000000  0.5182120000000  0.4407980000000 1.0
C      1  0.5202540000000  0.4825680000000  0.5089070000000 1.0
C      1  0.5461260000000  0.5567640000000  0.5031580000000 1.0
C      1  0.4547880000000  0.4474910000000  0.4829190000000 1.0
C      1  0.4249310000000  0.5321850000000  0.4253220000000 1.0
C      1  0.6062010000000  0.5054170000000  0.5050830000000 1.0
C      1  0.5162810000000  0.4398110000000  0.4203430000000 1.0
C      1  0.5735910000000  0.5050220000000  0.4358380000000 1.0
C      1  0.4913520000000  0.4734700000000  0.5170070000000 1.0
C      1  0.3953700000000  0.5030940000000  0.4605780000000 1.0
C      1  0.4675780000000  0.4661620000000  0.5613940000000 1.0
C      1  0.4874640000000  0.4645240000000  0.4320050000000 1.0
C      1  0.5206170000000  0.5379250000000  0.4984320000000 1.0
C      1  0.5452570000000  0.4085130000000  0.4433310000000 1.0
C      1  0.4420270000000  0.5675640000000  0.5650750000000 1.0
C      1  0.5984340000000  0.5120510000000  0.4793160000000 1.0
C      1  0.5381600000000  0.3941730000000  0.4981500000000 1.0
C      1  0.5725780000000  0.4693600000000  0.5631450000000 1.0
C      1  0.4153270000000  0.5103730000000  0.4846960000000 1.0
C      1  0.4143090000000  0.5299260000000  0.4504560000000 1.0
C      1  0.4336770000000  0.4303500000000  0.4624970000000 1.0
C      1  0.4597560000000  0.4358210000000  0.5622770000000 1.0
C      1  0.5479030000000  0.5190980000000  0.5817320000000 1.0
C      1  0.4681340000000  0.4992580000000  0.4694430000000 1.0
C      1  0.4391220000000  0.5701580000000  0.4843980000000 1.0
C      1  0.4921020000000  0.4470990000000  0.6053690000000 1.0
C      1  0.4747370000000  0.4884890000000  0.5833720000000 1.0
C      1  0.4958410000000  0.4543770000000  0.4626560000000 1.0
C      1  0.6092820000000  0.5995470000000  0.4933470000000 1.0
C      1  0.4369720000000  0.4062920000000  0.5272850000000 1.0
C      1  0.5485510000000  0.5735700000000  0.4229620000000 1.0
C      1  0.5334100000000  0.4171780000000  0.4202400000000 1.0
C      1  0.4878030000000  0.5450060000000  0.4980280000000 1.0
C      1  0.4945090000000  0.4398250000000  0.5130970000000 1.0
C      1  0.5584990000000  0.4174810000000  0.4953520000000 1.0
C      1  0.5289480000000  0.5917590000000  0.4945390000000 1.0
C      1  0.5514980000000  0.5759560000000  0.5600570000000 1.0
C      1  0.5399860000000  0.5448540000000  0.5970290000000 1.0
C      1  0.5183640000000  0.5761130000000  0.4726880000000 1.0
C      1  0.5135210000000  0.5483280000000  0.5991180000000 1.0
C      1  0.5496090000000  0.4984570000000  0.4222810000000 1.0
C      1  0.5433400000000  0.4760050000000  0.5497300000000 1.0
END
