TITL C-2848499-1157-346 0.000253254173419007 125000 -787.696995951491 0 0 143 (C1) n - 1
REM
REM in /home/bkarasulu/work/CARBON/AIRSS/Generating-Clusters/AIREBO/with-SteepDescent/Only-C1/SD-CG-opt/Try1-1.4A-POS3A/HFTN-CG
REM
REM
REM
REM
REM
REM ./C.cell (11c1c37f851c82e70ff6c80c92926a4b)
REM
REM compiler GCC version 9.2.1 20190827 (Red Hat 9.2.1-1)
REM options -cpp -mtune=generic -march=x86-64 -g -O0 -fpre-include=/usr/include/finclude/math-vector-fortran.h
REM seed 1490722109 -1834950083 -1514046696 1566147369 1152587382 157974551 -2002297174 -58719945 -815962048 1458770221 -1341753100 -1013548991 987663377 2015441090 1804511983 99472187 -1913997855 681690194 -647311370 1800981379 -956084116 2079640433 -101461049 470832428 2033352069 565594473 453589689 242248654 1270990282 -1672438717 256553711 95191659 262730754
REM
CELL 1.54180   50.00000   50.00000   50.00000   90.00000   90.00000   90.00000
LATT -1
SFAC C  
C      1  0.5532300000000  0.4639530000000  0.5455270000000 1.0
C      1  0.5109700000000  0.4236020000000  0.5011290000000 1.0
C      1  0.4200880000000  0.4846760000000  0.4708730000000 1.0
C      1  0.4522790000000  0.5674440000000  0.5530870000000 1.0
C      1  0.5327810000000  0.4935330000000  0.5071840000000 1.0
C      1  0.4067110000000  0.4155300000000  0.4902230000000 1.0
C      1  0.5388880000000  0.4583880000000  0.4304180000000 1.0
C      1  0.4205210000000  0.5139250000000  0.5728690000000 1.0
C      1  0.5144940000000  0.4675310000000  0.5544690000000 1.0
C      1  0.5284490000000  0.4173270000000  0.4623260000000 1.0
C      1  0.4661250000000  0.5647130000000  0.4307540000000 1.0
C      1  0.5262150000000  0.5961010000000  0.5162020000000 1.0
C      1  0.5218330000000  0.4252000000000  0.5550320000000 1.0
C      1  0.5765270000000  0.4971590000000  0.5022620000000 1.0
C      1  0.5202650000000  0.5348060000000  0.4847380000000 1.0
C      1  0.4905170000000  0.5845860000000  0.4436660000000 1.0
C      1  0.5483930000000  0.4274670000000  0.5142060000000 1.0
C      1  0.5853240000000  0.5073700000000  0.4504220000000 1.0
C      1  0.4603640000000  0.4807390000000  0.4356090000000 1.0
C      1  0.4867520000000  0.5425310000000  0.4153100000000 1.0
C      1  0.4552890000000  0.4161060000000  0.5037620000000 1.0
C      1  0.5753340000000  0.5102930000000  0.5610530000000 1.0
C      1  0.4637930000000  0.4384620000000  0.5583740000000 1.0
C      1  0.4381760000000  0.4961160000000  0.4499370000000 1.0
C      1  0.4205690000000  0.5424290000000  0.5225780000000 1.0
C      1  0.4606390000000  0.4898520000000  0.5321380000000 1.0
C      1  0.5780210000000  0.5387570000000  0.4564460000000 1.0
C      1  0.5447150000000  0.5642050000000  0.4273410000000 1.0
C      1  0.4141670000000  0.4557210000000  0.4636360000000 1.0
C      1  0.4942330000000  0.4001420000000  0.5213970000000 1.0
C      1  0.6005980000000  0.4727440000000  0.5224980000000 1.0
C      1  0.5048050000000  0.5125500000000  0.4501230000000 1.0
C      1  0.4142610000000  0.5191780000000  0.5415300000000 1.0
C      1  0.5096850000000  0.5193970000000  0.4250660000000 1.0
C      1  0.4580200000000  0.4471300000000  0.5034180000000 1.0
C      1  0.5323630000000  0.4342140000000  0.5790050000000 1.0
C      1  0.5970630000000  0.5037550000000  0.5357310000000 1.0
C      1  0.4602860000000  0.4708680000000  0.5573860000000 1.0
C      1  0.4395690000000  0.5612200000000  0.5289250000000 1.0
C      1  0.5594390000000  0.5643820000000  0.4519190000000 1.0
C      1  0.4741260000000  0.5846410000000  0.5478230000000 1.0
C      1  0.4845150000000  0.4043160000000  0.4909820000000 1.0
C      1  0.5082000000000  0.3956720000000  0.4727410000000 1.0
C      1  0.4413040000000  0.4426280000000  0.4528970000000 1.0
C      1  0.4355380000000  0.5050230000000  0.4172170000000 1.0
C      1  0.4013810000000  0.4963270000000  0.5261360000000 1.0
C      1  0.5740890000000  0.4525520000000  0.4731190000000 1.0
C      1  0.5831050000000  0.4781280000000  0.5528400000000 1.0
C      1  0.5417790000000  0.5593430000000  0.5476300000000 1.0
C      1  0.4525770000000  0.4621760000000  0.4769050000000 1.0
C      1  0.5448190000000  0.5117620000000  0.5582380000000 1.0
C      1  0.4361890000000  0.5604880000000  0.4756680000000 1.0
C      1  0.5401810000000  0.4633140000000  0.5763430000000 1.0
C      1  0.5149570000000  0.4268490000000  0.4347580000000 1.0
C      1  0.4181600000000  0.4732650000000  0.5229080000000 1.0
C      1  0.5676900000000  0.4278840000000  0.4956290000000 1.0
C      1  0.4546450000000  0.4498530000000  0.4266560000000 1.0
C      1  0.4269800000000  0.4548080000000  0.5421830000000 1.0
C      1  0.4011110000000  0.5076950000000  0.4785170000000 1.0
C      1  0.4893430000000  0.5349020000000  0.4705610000000 1.0
C      1  0.5183820000000  0.5793330000000  0.5445530000000 1.0
C      1  0.5168230000000  0.5275470000000  0.3943330000000 1.0
C      1  0.5805360000000  0.5545720000000  0.5258720000000 1.0
C      1  0.5499440000000  0.4703580000000  0.4891520000000 1.0
C      1  0.5544140000000  0.5998040000000  0.5112010000000 1.0
C      1  0.5797930000000  0.5403740000000  0.5710830000000 1.0
C      1  0.4161680000000  0.5346830000000  0.4671550000000 1.0
C      1  0.4766740000000  0.4614210000000  0.5223670000000 1.0
C      1  0.4311080000000  0.4658660000000  0.5708040000000 1.0
C      1  0.4356470000000  0.4799170000000  0.4988960000000 1.0
C      1  0.4468660000000  0.5151740000000  0.5503050000000 1.0
C      1  0.5351960000000  0.5323520000000  0.5366300000000 1.0
C      1  0.5684520000000  0.4761970000000  0.3979030000000 1.0
C      1  0.5129330000000  0.5442760000000  0.5934720000000 1.0
C      1  0.5211270000000  0.4913820000000  0.4649630000000 1.0
C      1  0.5200030000000  0.5768380000000  0.4306720000000 1.0
C      1  0.5059800000000  0.4559720000000  0.4386370000000 1.0
C      1  0.5699350000000  0.5599620000000  0.5520900000000 1.0
C      1  0.5040370000000  0.4627680000000  0.5060300000000 1.0
C      1  0.5013090000000  0.5530740000000  0.4444220000000 1.0
C      1  0.5381190000000  0.4880730000000  0.4388660000000 1.0
C      1  0.5032890000000  0.5294300000000  0.5331750000000 1.0
C      1  0.5097530000000  0.5619720000000  0.5713520000000 1.0
C      1  0.5684300000000  0.4680030000000  0.5173010000000 1.0
C      1  0.4974880000000  0.4638050000000  0.5990280000000 1.0
C      1  0.4611430000000  0.5406130000000  0.5663580000000 1.0
C      1  0.5271190000000  0.4500210000000  0.5281850000000 1.0
C      1  0.4502810000000  0.5070500000000  0.5046970000000 1.0
C      1  0.5053800000000  0.5062930000000  0.5580150000000 1.0
C      1  0.5477990000000  0.5762100000000  0.4760150000000 1.0
C      1  0.3978180000000  0.4381460000000  0.4764960000000 1.0
C      1  0.5249700000000  0.4095840000000  0.5281210000000 1.0
C      1  0.4882540000000  0.4586110000000  0.5685360000000 1.0
C      1  0.4408490000000  0.4123750000000  0.4591640000000 1.0
C      1  0.4905820000000  0.5896150000000  0.4739020000000 1.0
C      1  0.5296100000000  0.4436430000000  0.4829120000000 1.0
C      1  0.5505910000000  0.4582780000000  0.4016910000000 1.0
C      1  0.4333430000000  0.4072340000000  0.4850980000000 1.0
C      1  0.4672820000000  0.4956420000000  0.4070910000000 1.0
C      1  0.4739160000000  0.4124180000000  0.5410750000000 1.0
C      1  0.3878060000000  0.5042410000000  0.5021280000000 1.0
C      1  0.5515330000000  0.5162790000000  0.4311270000000 1.0
C      1  0.5454770000000  0.5248880000000  0.5053020000000 1.0
C      1  0.5634690000000  0.4977360000000  0.4732560000000 1.0
C      1  0.4654020000000  0.5312690000000  0.5946870000000 1.0
C      1  0.4674920000000  0.5340210000000  0.4966080000000 1.0
C      1  0.4665830000000  0.5121180000000  0.4595860000000 1.0
C      1  0.5752320000000  0.5244030000000  0.5217940000000 1.0
C      1  0.5998510000000  0.4596970000000  0.4941530000000 1.0
C      1  0.5676520000000  0.5437910000000  0.4877670000000 1.0
C      1  0.4890850000000  0.5146100000000  0.5094790000000 1.0
C      1  0.4877110000000  0.5747150000000  0.5187440000000 1.0
C      1  0.5237330000000  0.5170370000000  0.5843920000000 1.0
C      1  0.5924290000000  0.5225100000000  0.4861090000000 1.0
C      1  0.4881740000000  0.5422160000000  0.6081220000000 1.0
C      1  0.4965140000000  0.4372610000000  0.5357690000000 1.0
C      1  0.4769680000000  0.4822280000000  0.4720350000000 1.0
C      1  0.5025400000000  0.4930360000000  0.4916870000000 1.0
C      1  0.4391430000000  0.4928720000000  0.5831580000000 1.0
C      1  0.4597970000000  0.5839400000000  0.4846770000000 1.0
C      1  0.4843960000000  0.5166330000000  0.3950650000000 1.0
C      1  0.4891410000000  0.5483030000000  0.5541870000000 1.0
C      1  0.5267670000000  0.4924260000000  0.5368740000000 1.0
C      1  0.5743480000000  0.4925280000000  0.4226750000000 1.0
C      1  0.5697240000000  0.5729880000000  0.5018620000000 1.0
C      1  0.5165940000000  0.5796110000000  0.4892370000000 1.0
C      1  0.4278540000000  0.5297850000000  0.4980580000000 1.0
C      1  0.4667730000000  0.5593350000000  0.4634510000000 1.0
C      1  0.5011340000000  0.4581020000000  0.4724370000000 1.0
C      1  0.4543320000000  0.5333280000000  0.4364310000000 1.0
C      1  0.4608630000000  0.5616510000000  0.5075190000000 1.0
C      1  0.4636400000000  0.5031590000000  0.5930980000000 1.0
C      1  0.4978300000000  0.6039550000000  0.5332630000000 1.0
C      1  0.5100640000000  0.5541240000000  0.5107910000000 1.0
C      1  0.5525410000000  0.4384210000000  0.4508580000000 1.0
C      1  0.4238510000000  0.5306260000000  0.4364880000000 1.0
C      1  0.4434460000000  0.4261850000000  0.5340570000000 1.0
C      1  0.5423200000000  0.5388440000000  0.4137900000000 1.0
C      1  0.5236540000000  0.4848720000000  0.5937820000000 1.0
C      1  0.5416640000000  0.5182790000000  0.4641140000000 1.0
C      1  0.4840610000000  0.4658740000000  0.4201500000000 1.0
C      1  0.4910510000000  0.4941090000000  0.5863530000000 1.0
C      1  0.5835780000000  0.4733800000000  0.4489390000000 1.0
END
