TITL C-2848508-1660-115 -0.00269795531807876 125000 -146.408392736337 0 0 27 (C1) n - 1
REM
REM in /home/bkarasulu/work/CARBON/AIRSS/Generating-Clusters/AIREBO/with-SteepDescent/Only-C1/SD-CG-opt/Try1-1.4A-POS3A/HFTN-CG
REM
REM
REM
REM
REM
REM ./C.cell (11c1c37f851c82e70ff6c80c92926a4b)
REM
REM compiler GCC version 9.2.1 20190827 (Red Hat 9.2.1-1)
REM options -cpp -mtune=generic -march=x86-64 -g -O0 -fpre-include=/usr/include/finclude/math-vector-fortran.h
REM seed 433951606 285306712 -1721702729 -636744685 -1773967801 -1837906256 1681054008 -323007353 239861804 -1987235570 288873661 -1257488515 1382828299 -1584858824 -914238445 -1888843637 -508451109 85614875 -1143252382 545932364 -1144527327 2045681940 -773596164 299169789 2128354193 -982453026 -1342870500 1335492075 1270487744 1369255367 -2049563695 1046579616 939605070
REM
CELL 1.54180   50.00000   50.00000   50.00000   90.00000   90.00000   90.00000
LATT -1
SFAC C  
C      1  0.5096060000000  0.4632320000000  0.4789960000000 1.0
C      1  0.5116010000000  0.4677590000000  0.5127390000000 1.0
C      1  0.5065260000000  0.4998000000000  0.4427760000000 1.0
C      1  0.4773630000000  0.5558560000000  0.4731480000000 1.0
C      1  0.5235480000000  0.5383720000000  0.5349280000000 1.0
C      1  0.5291450000000  0.4950480000000  0.5192010000000 1.0
C      1  0.5066680000000  0.5120940000000  0.4725790000000 1.0
C      1  0.4736190000000  0.4132000000000  0.5457480000000 1.0
C      1  0.4578530000000  0.5013790000000  0.5314010000000 1.0
C      1  0.4481560000000  0.5184950000000  0.5120930000000 1.0
C      1  0.5290360000000  0.5370880000000  0.4788060000000 1.0
C      1  0.5377740000000  0.5100910000000  0.4975960000000 1.0
C      1  0.4793420000000  0.4868990000000  0.5429560000000 1.0
C      1  0.4609060000000  0.5355060000000  0.4945240000000 1.0
C      1  0.5208450000000  0.5107860000000  0.5411540000000 1.0
C      1  0.5361850000000  0.4527940000000  0.4384950000000 1.0
C      1  0.4898110000000  0.4624380000000  0.5325400000000 1.0
C      1  0.4886040000000  0.4741490000000  0.4300840000000 1.0
C      1  0.4824370000000  0.4372630000000  0.5402560000000 1.0
C      1  0.5154670000000  0.4672690000000  0.4497620000000 1.0
C      1  0.5176790000000  0.5453700000000  0.5097680000000 1.0
C      1  0.4966570000000  0.5082710000000  0.5835090000000 1.0
C      1  0.4924700000000  0.5340800000000  0.4932430000000 1.0
C      1  0.5034810000000  0.5316130000000  0.4368400000000 1.0
C      1  0.5045960000000  0.5491490000000  0.4583220000000 1.0
C      1  0.5014110000000  0.4899800000000  0.4910660000000 1.0
C      1  0.4992150000000  0.5020160000000  0.5574700000000 1.0
END
