TITL C-2848506-1665-550 -0.000826863838153466 125000 -308.233095708825 0 0 61 (C1) n - 1
REM
REM in /home/bkarasulu/work/CARBON/AIRSS/Generating-Clusters/AIREBO/with-SteepDescent/Only-C1/SD-CG-opt/Try1-1.4A-POS3A/HFTN-CG
REM
REM
REM
REM
REM
REM ./C.cell (11c1c37f851c82e70ff6c80c92926a4b)
REM
REM compiler GCC version 9.2.1 20190827 (Red Hat 9.2.1-1)
REM options -cpp -mtune=generic -march=x86-64 -g -O0 -fpre-include=/usr/include/finclude/math-vector-fortran.h
REM seed 64776301 373138651 -1754110962 171414258 -1989047974 -834562717 1002579202 839149016 -1924879183 -1134458906 -1872156003 1238722734 969675130 930451149 -422384049 672574230 -37422435 585256181 -1503589817 765262197 -1479952425 1898067991 -1881889466 1007264054 532362920 -830155196 311205055 -246252869 -565198110 1730034113 970686903 2059475814 -1217018647
REM
CELL 1.54180   50.00000   50.00000   50.00000   90.00000   90.00000   90.00000
LATT -1
SFAC C  
C      1  0.4887680000000  0.4800990000000  0.4524200000000 1.0
C      1  0.4726040000000  0.5016530000000  0.4991800000000 1.0
C      1  0.5772160000000  0.4813760000000  0.5359910000000 1.0
C      1  0.5063840000000  0.4860290000000  0.5188600000000 1.0
C      1  0.4488620000000  0.5389100000000  0.5245320000000 1.0
C      1  0.4453590000000  0.5218040000000  0.5479010000000 1.0
C      1  0.4296820000000  0.5587880000000  0.4325440000000 1.0
C      1  0.5003590000000  0.4579620000000  0.4754860000000 1.0
C      1  0.4494370000000  0.4592570000000  0.4804000000000 1.0
C      1  0.5206160000000  0.4864160000000  0.4509480000000 1.0
C      1  0.4799850000000  0.5288090000000  0.5152930000000 1.0
C      1  0.5216380000000  0.4847620000000  0.5490250000000 1.0
C      1  0.5342360000000  0.5633200000000  0.4975630000000 1.0
C      1  0.4844530000000  0.4341820000000  0.5029740000000 1.0
C      1  0.4588700000000  0.4746010000000  0.5082650000000 1.0
C      1  0.5404740000000  0.5169220000000  0.5219740000000 1.0
C      1  0.5177170000000  0.5184160000000  0.5461670000000 1.0
C      1  0.4335630000000  0.4972590000000  0.5061230000000 1.0
C      1  0.5140020000000  0.4291350000000  0.4873020000000 1.0
C      1  0.4699370000000  0.4478080000000  0.4657460000000 1.0
C      1  0.5120620000000  0.5514930000000  0.5078020000000 1.0
C      1  0.4401650000000  0.4928760000000  0.5384790000000 1.0
C      1  0.4986910000000  0.5227850000000  0.4544870000000 1.0
C      1  0.5227810000000  0.4662330000000  0.4989440000000 1.0
C      1  0.4839390000000  0.4612150000000  0.5183660000000 1.0
C      1  0.4911840000000  0.5260110000000  0.4217150000000 1.0
C      1  0.5209340000000  0.5571610000000  0.4535290000000 1.0
C      1  0.5362020000000  0.4420230000000  0.4683130000000 1.0
C      1  0.5699400000000  0.5145850000000  0.5352340000000 1.0
C      1  0.4638750000000  0.4586040000000  0.5732520000000 1.0
C      1  0.5216340000000  0.5348450000000  0.4323080000000 1.0
C      1  0.5708970000000  0.4890750000000  0.5042970000000 1.0
C      1  0.4429310000000  0.5485330000000  0.4517970000000 1.0
C      1  0.5400700000000  0.5116800000000  0.4443490000000 1.0
C      1  0.5490610000000  0.4932030000000  0.4785600000000 1.0
C      1  0.4966230000000  0.5638390000000  0.4634680000000 1.0
C      1  0.5476080000000  0.4717290000000  0.5215550000000 1.0
C      1  0.4715770000000  0.4553880000000  0.4363640000000 1.0
C      1  0.5109340000000  0.5175220000000  0.5068310000000 1.0
C      1  0.4659720000000  0.5762120000000  0.5020950000000 1.0
C      1  0.4963200000000  0.4399950000000  0.5405180000000 1.0
C      1  0.5183650000000  0.5077940000000  0.4773030000000 1.0
C      1  0.4718690000000  0.5049280000000  0.4653440000000 1.0
C      1  0.4570960000000  0.5341600000000  0.4744990000000 1.0
C      1  0.5275530000000  0.4529690000000  0.5384940000000 1.0
C      1  0.5529900000000  0.4926210000000  0.5557660000000 1.0
C      1  0.5528330000000  0.4603350000000  0.4841640000000 1.0
C      1  0.4977750000000  0.5622950000000  0.5511010000000 1.0
C      1  0.4781480000000  0.4398380000000  0.5647110000000 1.0
C      1  0.4636830000000  0.4897800000000  0.5630170000000 1.0
C      1  0.4802850000000  0.5527190000000  0.4910990000000 1.0
C      1  0.5660860000000  0.5211210000000  0.5011240000000 1.0
C      1  0.4390330000000  0.5274000000000  0.4992130000000 1.0
C      1  0.4928810000000  0.5348830000000  0.5461640000000 1.0
C      1  0.4961140000000  0.4817270000000  0.5695470000000 1.0
C      1  0.5195210000000  0.4263660000000  0.5196630000000 1.0
C      1  0.5288280000000  0.4557870000000  0.4456570000000 1.0
C      1  0.5539470000000  0.5265300000000  0.4713260000000 1.0
C      1  0.5415430000000  0.5543750000000  0.4719420000000 1.0
C      1  0.4431660000000  0.4893740000000  0.4748800000000 1.0
C      1  0.4707200000000  0.5224840000000  0.5640270000000 1.0
END
