TITL C-2847956-8218-261 -0.00195465363333417 125000 -620.435855836093 0 0 116 (C1) n - 1
REM
REM in /home/bkarasulu/work/CARBON/AIRSS/Generating-Clusters/AIREBO/with-SteepDescent/Only-C1/SD-CG-opt/Try1-1.4A-POS3A/HFTN-CG
REM
REM
REM
REM
REM
REM ./C.cell (11c1c37f851c82e70ff6c80c92926a4b)
REM
REM compiler GCC version 9.2.1 20190827 (Red Hat 9.2.1-1)
REM options -cpp -mtune=generic -march=x86-64 -g -O0 -fpre-include=/usr/include/finclude/math-vector-fortran.h
REM seed 33654148 -2124941095 -1761792738 143137554 -1727357089 -1472905198 417425501 1634866495 517636006 9117662 -437230829 -1826159866 719746786 299845201 32858011 1351353921 59096543 913748064 -1567981136 524253057 -1390288687 452636130 -970903379 -432238677 -506661712 475685593 -1629248818 1273228563 739122412 88589808 -1679810940 -1028865104 -1750093483
REM
CELL 1.54180   50.00000   50.00000   50.00000   90.00000   90.00000   90.00000
LATT -1
SFAC C  
C      1  0.4556310000000  0.4283140000000  0.4440320000000 1.0
C      1  0.4565590000000  0.4027990000000  0.5395930000000 1.0
C      1  0.5000560000000  0.5028390000000  0.4428010000000 1.0
C      1  0.5543590000000  0.4823840000000  0.5617590000000 1.0
C      1  0.5448160000000  0.4686160000000  0.4854760000000 1.0
C      1  0.4886260000000  0.5639830000000  0.5718710000000 1.0
C      1  0.4685330000000  0.5035940000000  0.3770630000000 1.0
C      1  0.4172330000000  0.5046440000000  0.5323960000000 1.0
C      1  0.4344510000000  0.5507250000000  0.5339600000000 1.0
C      1  0.5694060000000  0.4712530000000  0.5401910000000 1.0
C      1  0.4744920000000  0.5436120000000  0.5862310000000 1.0
C      1  0.4657530000000  0.5979900000000  0.5254570000000 1.0
C      1  0.5255560000000  0.5708200000000  0.5353570000000 1.0
C      1  0.4886450000000  0.5212040000000  0.5927920000000 1.0
C      1  0.4486160000000  0.4258320000000  0.4942760000000 1.0
C      1  0.4785300000000  0.4744270000000  0.5208320000000 1.0
C      1  0.4769100000000  0.4916680000000  0.4254760000000 1.0
C      1  0.4660360000000  0.5096570000000  0.5076450000000 1.0
C      1  0.5295390000000  0.4888300000000  0.4363460000000 1.0
C      1  0.5592370000000  0.5432550000000  0.4387010000000 1.0
C      1  0.5527050000000  0.5109070000000  0.4404560000000 1.0
C      1  0.5141540000000  0.4983710000000  0.3968580000000 1.0
C      1  0.5579130000000  0.5658730000000  0.5257170000000 1.0
C      1  0.4467760000000  0.5433990000000  0.5788660000000 1.0
C      1  0.4319940000000  0.5192080000000  0.5779340000000 1.0
C      1  0.4881460000000  0.5352540000000  0.5444220000000 1.0
C      1  0.4507150000000  0.4593580000000  0.4685140000000 1.0
C      1  0.4665950000000  0.4807780000000  0.4896120000000 1.0
C      1  0.5699100000000  0.5301440000000  0.5609770000000 1.0
C      1  0.5745200000000  0.4686030000000  0.4588850000000 1.0
C      1  0.4994920000000  0.5133120000000  0.5027060000000 1.0
C      1  0.5036980000000  0.5531840000000  0.4394840000000 1.0
C      1  0.4501310000000  0.5717500000000  0.4580470000000 1.0
C      1  0.4803040000000  0.4296800000000  0.5572960000000 1.0
C      1  0.4316520000000  0.5566930000000  0.4727890000000 1.0
C      1  0.4333220000000  0.4491890000000  0.5221890000000 1.0
C      1  0.5759390000000  0.5459170000000  0.5178120000000 1.0
C      1  0.5176660000000  0.4718510000000  0.5443650000000 1.0
C      1  0.5860980000000  0.5106270000000  0.4771420000000 1.0
C      1  0.4508130000000  0.4811860000000  0.4424230000000 1.0
C      1  0.4579780000000  0.4830670000000  0.5536790000000 1.0
C      1  0.5722920000000  0.5367740000000  0.4869800000000 1.0
C      1  0.4848610000000  0.4438320000000  0.5270780000000 1.0
C      1  0.4287770000000  0.4359490000000  0.4572220000000 1.0
C      1  0.5109170000000  0.4432060000000  0.5573820000000 1.0
C      1  0.4683250000000  0.5781300000000  0.5512850000000 1.0
C      1  0.4447170000000  0.4774220000000  0.5228660000000 1.0
C      1  0.5360220000000  0.4173760000000  0.4869350000000 1.0
C      1  0.4624570000000  0.4519460000000  0.4292670000000 1.0
C      1  0.4219500000000  0.4399390000000  0.4957160000000 1.0
C      1  0.5252990000000  0.4645200000000  0.4579260000000 1.0
C      1  0.5353700000000  0.5736640000000  0.5029240000000 1.0
C      1  0.5271010000000  0.4660150000000  0.5143800000000 1.0
C      1  0.4167910000000  0.5317280000000  0.4640330000000 1.0
C      1  0.4725940000000  0.5578570000000  0.5243120000000 1.0
C      1  0.5545930000000  0.4480940000000  0.4526270000000 1.0
C      1  0.4450220000000  0.5544570000000  0.5039830000000 1.0
C      1  0.4418100000000  0.5231350000000  0.5284500000000 1.0
C      1  0.4714920000000  0.4327120000000  0.4737850000000 1.0
C      1  0.5011240000000  0.4980780000000  0.5695060000000 1.0
C      1  0.5283620000000  0.5281520000000  0.4732350000000 1.0
C      1  0.4878310000000  0.4678830000000  0.5612240000000 1.0
C      1  0.5294200000000  0.5030020000000  0.5512810000000 1.0
C      1  0.4895240000000  0.5440940000000  0.5008590000000 1.0
C      1  0.4947250000000  0.3912730000000  0.4865740000000 1.0
C      1  0.4755660000000  0.5472960000000  0.4393080000000 1.0
C      1  0.5523280000000  0.4225600000000  0.4654290000000 1.0
C      1  0.4972020000000  0.5188110000000  0.4692260000000 1.0
C      1  0.5408880000000  0.5405280000000  0.4994760000000 1.0
C      1  0.5040460000000  0.4819960000000  0.5020060000000 1.0
C      1  0.5593280000000  0.5349460000000  0.5901480000000 1.0
C      1  0.5797960000000  0.5255530000000  0.5361040000000 1.0
C      1  0.5150680000000  0.5516940000000  0.5567340000000 1.0
C      1  0.5021700000000  0.4199330000000  0.4815880000000 1.0
C      1  0.5225360000000  0.5278700000000  0.4396310000000 1.0
C      1  0.4887920000000  0.4646990000000  0.4417850000000 1.0
C      1  0.5102310000000  0.4368090000000  0.5099920000000 1.0
C      1  0.5126080000000  0.4794970000000  0.6232370000000 1.0
C      1  0.5572400000000  0.5549340000000  0.4637280000000 1.0
C      1  0.5360590000000  0.5319730000000  0.5655370000000 1.0
C      1  0.4836400000000  0.5016620000000  0.5405660000000 1.0
C      1  0.5760610000000  0.4968020000000  0.4541760000000 1.0
C      1  0.5026380000000  0.4939030000000  0.6032240000000 1.0
C      1  0.5344050000000  0.5691560000000  0.4724010000000 1.0
C      1  0.5398570000000  0.4025380000000  0.5613310000000 1.0
C      1  0.4041620000000  0.5176830000000  0.4877910000000 1.0
C      1  0.5642000000000  0.4517810000000  0.5189320000000 1.0
C      1  0.5424130000000  0.4293950000000  0.5180940000000 1.0
C      1  0.5349440000000  0.5005550000000  0.4853990000000 1.0
C      1  0.5124250000000  0.4252090000000  0.4495980000000 1.0
C      1  0.4280590000000  0.5050110000000  0.4513630000000 1.0
C      1  0.4954930000000  0.4725420000000  0.4731820000000 1.0
C      1  0.5468320000000  0.4936860000000  0.5163500000000 1.0
C      1  0.5281160000000  0.5183990000000  0.5205020000000 1.0
C      1  0.4996820000000  0.5778200000000  0.5193260000000 1.0
C      1  0.5258110000000  0.5224660000000  0.4062150000000 1.0
C      1  0.5090620000000  0.5711900000000  0.4607990000000 1.0
C      1  0.4578960000000  0.4260530000000  0.5246400000000 1.0
C      1  0.4713050000000  0.5410630000000  0.4724640000000 1.0
C      1  0.5142020000000  0.4505280000000  0.4289490000000 1.0
C      1  0.4427520000000  0.5616340000000  0.5573650000000 1.0
C      1  0.4313010000000  0.4987870000000  0.5583620000000 1.0
C      1  0.5588280000000  0.4773590000000  0.5882750000000 1.0
C      1  0.4541830000000  0.5655260000000  0.4290130000000 1.0
C      1  0.5269480000000  0.4734120000000  0.4074670000000 1.0
C      1  0.4285060000000  0.4979500000000  0.5010060000000 1.0
C      1  0.4257130000000  0.4814790000000  0.4733780000000 1.0
C      1  0.5773640000000  0.4630320000000  0.4910060000000 1.0
C      1  0.5768460000000  0.4982310000000  0.5242820000000 1.0
C      1  0.5469990000000  0.5432210000000  0.4117690000000 1.0
C      1  0.4780720000000  0.5895550000000  0.5005460000000 1.0
C      1  0.5310440000000  0.4226600000000  0.5472260000000 1.0
C      1  0.4781780000000  0.5743280000000  0.4745060000000 1.0
C      1  0.4468220000000  0.5239970000000  0.4889610000000 1.0
C      1  0.5910310000000  0.4915550000000  0.4980850000000 1.0
C      1  0.4854660000000  0.4966960000000  0.3972640000000 1.0
END
