TITL C-2848499-1157-211 0.000791397996796665 125000 -839.222042380666 0 0 148 (C1) n - 1
REM
REM in /home/bkarasulu/work/CARBON/AIRSS/Generating-Clusters/AIREBO/with-SteepDescent/Only-C1/SD-CG-opt/Try1-1.4A-POS3A/HFTN-CG
REM
REM
REM
REM
REM
REM ./C.cell (11c1c37f851c82e70ff6c80c92926a4b)
REM
REM compiler GCC version 9.2.1 20190827 (Red Hat 9.2.1-1)
REM options -cpp -mtune=generic -march=x86-64 -g -O0 -fpre-include=/usr/include/finclude/math-vector-fortran.h
REM seed 2098530460 1450967591 -328899509 -299188242 1773701216 -67053788 1572709611 -726651684 -1794582356 193930552 -909996049 -728007103 -1589972914 2098940558 -1460550507 1749676058 793248118 1355435221 1916013851 119324610 -938709471 989207984 -853582533 1915109597 263735841 683230450 1725387153 -1409089164 776677913 1916137126 -1351296839 952516223 -1197875343
REM
CELL 1.54180   50.00000   50.00000   50.00000   90.00000   90.00000   90.00000
LATT -1
SFAC C  
C      1  0.5555540000000  0.5453660000000  0.5185770000000 1.0
C      1  0.5482840000000  0.5226190000000  0.5859170000000 1.0
C      1  0.5865700000000  0.5292030000000  0.4836820000000 1.0
C      1  0.4741660000000  0.4824590000000  0.4892480000000 1.0
C      1  0.5471820000000  0.4694430000000  0.4361650000000 1.0
C      1  0.5340760000000  0.5296300000000  0.4222640000000 1.0
C      1  0.4824290000000  0.5023460000000  0.5888840000000 1.0
C      1  0.4166300000000  0.5028640000000  0.4358750000000 1.0
C      1  0.4832010000000  0.4083330000000  0.5252020000000 1.0
C      1  0.5164810000000  0.4826330000000  0.5269860000000 1.0
C      1  0.4749610000000  0.4414510000000  0.4239240000000 1.0
C      1  0.5085640000000  0.4519670000000  0.4792170000000 1.0
C      1  0.4726910000000  0.5708740000000  0.5093470000000 1.0
C      1  0.4041680000000  0.4388530000000  0.5203860000000 1.0
C      1  0.4621190000000  0.4318450000000  0.5146690000000 1.0
C      1  0.4115970000000  0.4690180000000  0.5221660000000 1.0
C      1  0.4047770000000  0.4966730000000  0.5176230000000 1.0
C      1  0.5906740000000  0.5137640000000  0.5529570000000 1.0
C      1  0.4558720000000  0.4417720000000  0.4495130000000 1.0
C      1  0.5151770000000  0.4330120000000  0.5299100000000 1.0
C      1  0.4690960000000  0.5163110000000  0.5608900000000 1.0
C      1  0.4762820000000  0.5499540000000  0.4865380000000 1.0
C      1  0.5602570000000  0.5543550000000  0.4395330000000 1.0
C      1  0.5309860000000  0.4477300000000  0.4222270000000 1.0
C      1  0.5927100000000  0.4326190000000  0.5013540000000 1.0
C      1  0.4490290000000  0.5522980000000  0.4677290000000 1.0
C      1  0.4921550000000  0.4144000000000  0.5558620000000 1.0
C      1  0.5437300000000  0.5518080000000  0.4883380000000 1.0
C      1  0.4848370000000  0.4453730000000  0.5581500000000 1.0
C      1  0.5442550000000  0.5193090000000  0.5353250000000 1.0
C      1  0.5356400000000  0.4406640000000  0.4612760000000 1.0
C      1  0.5063080000000  0.5969410000000  0.5229850000000 1.0
C      1  0.4938830000000  0.5334290000000  0.5271150000000 1.0
C      1  0.4961320000000  0.6006490000000  0.4968230000000 1.0
C      1  0.4642360000000  0.4823290000000  0.5403730000000 1.0
C      1  0.4637980000000  0.5321720000000  0.5131380000000 1.0
C      1  0.5767580000000  0.5052070000000  0.4760460000000 1.0
C      1  0.5411450000000  0.5825380000000  0.4826230000000 1.0
C      1  0.5098410000000  0.5127130000000  0.5125790000000 1.0
C      1  0.4949280000000  0.5052660000000  0.4872720000000 1.0
C      1  0.5278860000000  0.4584440000000  0.5486160000000 1.0
C      1  0.4549100000000  0.4570420000000  0.5610860000000 1.0
C      1  0.4137510000000  0.5410260000000  0.5386290000000 1.0
C      1  0.4532570000000  0.5787640000000  0.4463860000000 1.0
C      1  0.5568600000000  0.4488300000000  0.5041610000000 1.0
C      1  0.4224800000000  0.5450480000000  0.5110330000000 1.0
C      1  0.5095600000000  0.5520090000000  0.4329660000000 1.0
C      1  0.4081530000000  0.4767750000000  0.4831730000000 1.0
C      1  0.5852420000000  0.5376540000000  0.5105810000000 1.0
C      1  0.5325380000000  0.5231850000000  0.4948930000000 1.0
C      1  0.4194290000000  0.5111140000000  0.5406620000000 1.0
C      1  0.5490930000000  0.5980010000000  0.5035460000000 1.0
C      1  0.6026510000000  0.5240610000000  0.5279640000000 1.0
C      1  0.5043590000000  0.6017660000000  0.4471690000000 1.0
C      1  0.4590210000000  0.6068340000000  0.4647360000000 1.0
C      1  0.4442390000000  0.5340360000000  0.5759140000000 1.0
C      1  0.5636330000000  0.4158500000000  0.5089710000000 1.0
C      1  0.5012250000000  0.4479830000000  0.4343490000000 1.0
C      1  0.4257500000000  0.5535750000000  0.5609710000000 1.0
C      1  0.4690120000000  0.6059260000000  0.4905650000000 1.0
C      1  0.4185060000000  0.5455110000000  0.4543690000000 1.0
C      1  0.5163480000000  0.4597880000000  0.5779850000000 1.0
C      1  0.4658900000000  0.5264570000000  0.4533010000000 1.0
C      1  0.4330140000000  0.5028610000000  0.5711500000000 1.0
C      1  0.5651170000000  0.5301010000000  0.4252720000000 1.0
C      1  0.4496630000000  0.4599740000000  0.4211360000000 1.0
C      1  0.5401080000000  0.4004160000000  0.4961880000000 1.0
C      1  0.4405140000000  0.4855540000000  0.4893580000000 1.0
C      1  0.4407010000000  0.4161390000000  0.4934420000000 1.0
C      1  0.4192770000000  0.4760480000000  0.4436780000000 1.0
C      1  0.5134710000000  0.5380440000000  0.5738710000000 1.0
C      1  0.5345820000000  0.4945580000000  0.5840790000000 1.0
C      1  0.4765620000000  0.5746560000000  0.5758550000000 1.0
C      1  0.4694390000000  0.3981060000000  0.4956890000000 1.0
C      1  0.5498800000000  0.4648200000000  0.5811880000000 1.0
C      1  0.4349290000000  0.4355900000000  0.5563450000000 1.0
C      1  0.4940940000000  0.4967270000000  0.5483820000000 1.0
C      1  0.4492080000000  0.5355450000000  0.4181420000000 1.0
C      1  0.4820520000000  0.4553640000000  0.5002430000000 1.0
C      1  0.4421550000000  0.5746860000000  0.5520390000000 1.0
C      1  0.5661800000000  0.4046100000000  0.5382480000000 1.0
C      1  0.4316470000000  0.4300590000000  0.5297450000000 1.0
C      1  0.5103600000000  0.4123730000000  0.5058600000000 1.0
C      1  0.5040530000000  0.5540300000000  0.4723100000000 1.0
C      1  0.5527730000000  0.4186900000000  0.5576250000000 1.0
C      1  0.5285770000000  0.4604140000000  0.5042380000000 1.0
C      1  0.4902660000000  0.5326520000000  0.5905020000000 1.0
C      1  0.5223970000000  0.5109730000000  0.5577820000000 1.0
C      1  0.5660030000000  0.5274800000000  0.5589620000000 1.0
C      1  0.4434790000000  0.4673840000000  0.5179420000000 1.0
C      1  0.5760210000000  0.5046470000000  0.4244360000000 1.0
C      1  0.4536670000000  0.4857470000000  0.4089140000000 1.0
C      1  0.5120740000000  0.5867960000000  0.4735600000000 1.0
C      1  0.5072330000000  0.5540370000000  0.5462790000000 1.0
C      1  0.4081390000000  0.5202830000000  0.4567970000000 1.0
C      1  0.5250540000000  0.4171190000000  0.5568370000000 1.0
C      1  0.5311410000000  0.4868340000000  0.4570940000000 1.0
C      1  0.5206150000000  0.4202300000000  0.4384050000000 1.0
C      1  0.4321220000000  0.4467200000000  0.4934140000000 1.0
C      1  0.4709680000000  0.4930070000000  0.4578490000000 1.0
C      1  0.5430030000000  0.5504720000000  0.5667340000000 1.0
C      1  0.5787450000000  0.4462180000000  0.5300510000000 1.0
C      1  0.5144500000000  0.5095550000000  0.4414490000000 1.0
C      1  0.4602120000000  0.5965860000000  0.5421580000000 1.0
C      1  0.4803590000000  0.4905830000000  0.4000090000000 1.0
C      1  0.4935080000000  0.4576210000000  0.5288840000000 1.0
C      1  0.5082820000000  0.5024840000000  0.4083680000000 1.0
C      1  0.5792740000000  0.4548400000000  0.4793640000000 1.0
C      1  0.5646250000000  0.4471900000000  0.5592600000000 1.0
C      1  0.6161810000000  0.4800660000000  0.4952830000000 1.0
C      1  0.4353850000000  0.5656950000000  0.4959360000000 1.0
C      1  0.4954920000000  0.4209330000000  0.4764080000000 1.0
C      1  0.6057760000000  0.4910250000000  0.5239080000000 1.0
C      1  0.4007090000000  0.4491890000000  0.4893230000000 1.0
C      1  0.4644260000000  0.4219110000000  0.4711100000000 1.0
C      1  0.4483420000000  0.5934790000000  0.5104520000000 1.0
C      1  0.4795140000000  0.5376710000000  0.4257730000000 1.0
C      1  0.4967430000000  0.5231210000000  0.4629150000000 1.0
C      1  0.4542570000000  0.5589830000000  0.5305290000000 1.0
C      1  0.5269040000000  0.4101360000000  0.4697450000000 1.0
C      1  0.5051400000000  0.5342000000000  0.4050030000000 1.0
C      1  0.5938960000000  0.4905350000000  0.4413530000000 1.0
C      1  0.5647190000000  0.4485680000000  0.4533610000000 1.0
C      1  0.6082730000000  0.4573160000000  0.5187950000000 1.0
C      1  0.4347340000000  0.5562110000000  0.4307140000000 1.0
C      1  0.5564780000000  0.4870650000000  0.4143670000000 1.0
C      1  0.4994730000000  0.4745560000000  0.4554870000000 1.0
C      1  0.4692720000000  0.5502720000000  0.5860530000000 1.0
C      1  0.5362230000000  0.4929730000000  0.3969610000000 1.0
C      1  0.4456140000000  0.4704000000000  0.4593230000000 1.0
C      1  0.4780860000000  0.6013230000000  0.4411420000000 1.0
C      1  0.4361800000000  0.5176960000000  0.4995650000000 1.0
C      1  0.4903230000000  0.5836330000000  0.5460740000000 1.0
C      1  0.5384750000000  0.5649060000000  0.5383970000000 1.0
C      1  0.4566550000000  0.4834010000000  0.5795120000000 1.0
C      1  0.4506880000000  0.5108960000000  0.5361940000000 1.0
C      1  0.5065730000000  0.4851240000000  0.5983370000000 1.0
C      1  0.4376060000000  0.5093320000000  0.4167210000000 1.0
C      1  0.5857290000000  0.4841920000000  0.5497850000000 1.0
C      1  0.5477720000000  0.4987580000000  0.4827350000000 1.0
C      1  0.5915640000000  0.4610630000000  0.4391720000000 1.0
C      1  0.5337600000000  0.5923730000000  0.5263330000000 1.0
C      1  0.5469770000000  0.4934270000000  0.5164910000000 1.0
C      1  0.5560180000000  0.4759540000000  0.5432870000000 1.0
C      1  0.4836250000000  0.4624700000000  0.5875520000000 1.0
C      1  0.4079880000000  0.5084870000000  0.4858240000000 1.0
C      1  0.5340940000000  0.5534460000000  0.4563920000000 1.0
C      1  0.5953740000000  0.4805200000000  0.4738340000000 1.0
END
