TITL C-2847958-8115-691 -4.53486890703164e-05 125000 -674.05911079646 0 0 124 (C1) n - 1
REM
REM in /home/bkarasulu/work/CARBON/AIRSS/Generating-Clusters/AIREBO/with-SteepDescent/Only-C1/SD-CG-opt/Try1-1.4A-POS3A/HFTN-CG
REM
REM
REM
REM
REM
REM ./C.cell (11c1c37f851c82e70ff6c80c92926a4b)
REM
REM compiler GCC version 9.2.1 20190827 (Red Hat 9.2.1-1)
REM options -cpp -mtune=generic -march=x86-64 -g -O0 -fpre-include=/usr/include/finclude/math-vector-fortran.h
REM seed -1741024070 -1487095242 134094448 -282650676 -322017112 1397753631 -173960095 1895814142 2058235065 -1733788181 2134325864 2140190316 -1681325655 1685763310 1709201758 13691267 -799084949 -592345019 -1994985821 258511345 806558482 -1932855948 -406589243 -1272285167 -2063868554 -784804485 256689788 -44054131 1376669481 1328704152 -455856675 -1655879526 -210171570
REM
CELL 1.54180   50.00000   50.00000   50.00000   90.00000   90.00000   90.00000
LATT -1
SFAC C  
C      1  0.5801530000000  0.4837550000000  0.5094750000000 1.0
C      1  0.5205890000000  0.4096090000000  0.5203730000000 1.0
C      1  0.4914190000000  0.5064390000000  0.5436160000000 1.0
C      1  0.5404500000000  0.5164440000000  0.4156270000000 1.0
C      1  0.5337190000000  0.4748410000000  0.5607580000000 1.0
C      1  0.4653030000000  0.5843620000000  0.5424540000000 1.0
C      1  0.4034600000000  0.5269910000000  0.4961030000000 1.0
C      1  0.5911890000000  0.4542230000000  0.4849600000000 1.0
C      1  0.4975380000000  0.5104280000000  0.4462300000000 1.0
C      1  0.5033660000000  0.4642350000000  0.5095940000000 1.0
C      1  0.5774900000000  0.4463500000000  0.5406380000000 1.0
C      1  0.5922470000000  0.5398800000000  0.4767180000000 1.0
C      1  0.4446940000000  0.5076460000000  0.5838770000000 1.0
C      1  0.5197730000000  0.4396760000000  0.4940900000000 1.0
C      1  0.4084690000000  0.4551810000000  0.5197000000000 1.0
C      1  0.5191810000000  0.5707170000000  0.5418920000000 1.0
C      1  0.5222370000000  0.5307870000000  0.5508430000000 1.0
C      1  0.4440900000000  0.5241580000000  0.4362740000000 1.0
C      1  0.4950420000000  0.5766820000000  0.4564160000000 1.0
C      1  0.4522090000000  0.5380530000000  0.5702930000000 1.0
C      1  0.4211060000000  0.5540530000000  0.4611970000000 1.0
C      1  0.5636160000000  0.4522110000000  0.4433000000000 1.0
C      1  0.4933990000000  0.3958140000000  0.5113820000000 1.0
C      1  0.5555660000000  0.4106590000000  0.4776340000000 1.0
C      1  0.5541420000000  0.5412800000000  0.4246610000000 1.0
C      1  0.4672980000000  0.5519520000000  0.5335050000000 1.0
C      1  0.5288250000000  0.4516660000000  0.4084460000000 1.0
C      1  0.5454200000000  0.5063090000000  0.5553190000000 1.0
C      1  0.5424300000000  0.5415210000000  0.5760090000000 1.0
C      1  0.5099100000000  0.5991920000000  0.5065970000000 1.0
C      1  0.5623680000000  0.4565310000000  0.5612380000000 1.0
C      1  0.5099210000000  0.4522130000000  0.5697920000000 1.0
C      1  0.4643840000000  0.4724050000000  0.5043910000000 1.0
C      1  0.5188660000000  0.4182560000000  0.4423470000000 1.0
C      1  0.5021400000000  0.4149160000000  0.4854280000000 1.0
C      1  0.4673280000000  0.4231400000000  0.4523170000000 1.0
C      1  0.4718370000000  0.5402850000000  0.4784990000000 1.0
C      1  0.4762320000000  0.4713560000000  0.4294170000000 1.0
C      1  0.4213570000000  0.4640850000000  0.5498860000000 1.0
C      1  0.4464240000000  0.4767080000000  0.4442630000000 1.0
C      1  0.4779120000000  0.4117130000000  0.5374190000000 1.0
C      1  0.5332110000000  0.5651940000000  0.4283510000000 1.0
C      1  0.5580460000000  0.5640680000000  0.4483860000000 1.0
C      1  0.5173020000000  0.4960870000000  0.5291790000000 1.0
C      1  0.4400060000000  0.4808290000000  0.5641490000000 1.0
C      1  0.4859720000000  0.4510620000000  0.5335950000000 1.0
C      1  0.5492200000000  0.5249680000000  0.4697390000000 1.0
C      1  0.4995960000000  0.5163190000000  0.5712700000000 1.0
C      1  0.5233060000000  0.4821290000000  0.4578250000000 1.0
C      1  0.5780590000000  0.4666670000000  0.4627120000000 1.0
C      1  0.4911680000000  0.4842520000000  0.4641220000000 1.0
C      1  0.4941530000000  0.5499660000000  0.5500830000000 1.0
C      1  0.5340000000000  0.5342060000000  0.5210630000000 1.0
C      1  0.4816740000000  0.4984650000000  0.4115910000000 1.0
C      1  0.5553100000000  0.4598380000000  0.4175890000000 1.0
C      1  0.4594090000000  0.4422720000000  0.5193360000000 1.0
C      1  0.4042480000000  0.4714680000000  0.4974660000000 1.0
C      1  0.4417470000000  0.5075800000000  0.5236370000000 1.0
C      1  0.5417500000000  0.5174150000000  0.5934730000000 1.0
C      1  0.4673280000000  0.4533600000000  0.4557600000000 1.0
C      1  0.5515160000000  0.4682860000000  0.5015890000000 1.0
C      1  0.4842540000000  0.4595610000000  0.4818490000000 1.0
C      1  0.4034460000000  0.5371270000000  0.5463430000000 1.0
C      1  0.5341590000000  0.5864150000000  0.5062870000000 1.0
C      1  0.5863760000000  0.4541160000000  0.5151520000000 1.0
C      1  0.4078710000000  0.5009510000000  0.5037220000000 1.0
C      1  0.5767760000000  0.5101260000000  0.5188310000000 1.0
C      1  0.4740580000000  0.5210340000000  0.5900340000000 1.0
C      1  0.5047360000000  0.5601760000000  0.5129420000000 1.0
C      1  0.4620210000000  0.4977940000000  0.5464890000000 1.0
C      1  0.4963270000000  0.5788590000000  0.5661350000000 1.0
C      1  0.5468940000000  0.5621360000000  0.5526770000000 1.0
C      1  0.4372510000000  0.5372960000000  0.5397540000000 1.0
C      1  0.4562010000000  0.5491520000000  0.4428180000000 1.0
C      1  0.4537270000000  0.5124670000000  0.4132130000000 1.0
C      1  0.4663720000000  0.4149220000000  0.5055920000000 1.0
C      1  0.4335360000000  0.4410870000000  0.5328000000000 1.0
C      1  0.4147970000000  0.5294570000000  0.4703220000000 1.0
C      1  0.4722120000000  0.5052170000000  0.5087130000000 1.0
C      1  0.4644950000000  0.5675830000000  0.5701560000000 1.0
C      1  0.5198320000000  0.5304270000000  0.4613030000000 1.0
C      1  0.5130560000000  0.4306930000000  0.5364380000000 1.0
C      1  0.5707660000000  0.5161430000000  0.5578170000000 1.0
C      1  0.4494050000000  0.5647080000000  0.4709670000000 1.0
C      1  0.5094870000000  0.4954780000000  0.4976540000000 1.0
C      1  0.4941370000000  0.4233270000000  0.5611010000000 1.0
C      1  0.5632350000000  0.5544280000000  0.4793370000000 1.0
C      1  0.5288590000000  0.4874210000000  0.4290250000000 1.0
C      1  0.5703780000000  0.4953040000000  0.4675620000000 1.0
C      1  0.4802280000000  0.5837630000000  0.5130880000000 1.0
C      1  0.4943180000000  0.5646640000000  0.4808780000000 1.0
C      1  0.4597600000000  0.5368030000000  0.5068120000000 1.0
C      1  0.5463700000000  0.5074860000000  0.5153500000000 1.0
C      1  0.5655520000000  0.5735780000000  0.5087040000000 1.0
C      1  0.5911030000000  0.5147770000000  0.4804410000000 1.0
C      1  0.4799770000000  0.4600610000000  0.5639360000000 1.0
C      1  0.5399610000000  0.4141560000000  0.4995040000000 1.0
C      1  0.5708050000000  0.5614980000000  0.5353170000000 1.0
C      1  0.4685380000000  0.5096500000000  0.4641170000000 1.0
C      1  0.4965830000000  0.4147120000000  0.4578000000000 1.0
C      1  0.4384000000000  0.4918730000000  0.4936450000000 1.0
C      1  0.5051110000000  0.4737960000000  0.4126520000000 1.0
C      1  0.4958830000000  0.4949910000000  0.5966100000000 1.0
C      1  0.5337980000000  0.5541440000000  0.4963570000000 1.0
C      1  0.5371490000000  0.4572260000000  0.4728260000000 1.0
C      1  0.4096130000000  0.4819540000000  0.4681180000000 1.0
C      1  0.5004020000000  0.5227390000000  0.4841790000000 1.0
C      1  0.5826740000000  0.5343220000000  0.5364080000000 1.0
C      1  0.4564920000000  0.4138170000000  0.4281670000000 1.0
C      1  0.4961890000000  0.5275570000000  0.5173670000000 1.0
C      1  0.5322640000000  0.4673770000000  0.5276050000000 1.0
C      1  0.4685240000000  0.4822120000000  0.5826150000000 1.0
C      1  0.5273540000000  0.4934770000000  0.5885020000000 1.0
C      1  0.4810610000000  0.5605340000000  0.4349400000000 1.0
C      1  0.4058890000000  0.5464730000000  0.5167760000000 1.0
C      1  0.5406690000000  0.4953600000000  0.4841000000000 1.0
C      1  0.4351530000000  0.5035500000000  0.4618410000000 1.0
C      1  0.4316850000000  0.5627070000000  0.5178420000000 1.0
C      1  0.5077910000000  0.5187540000000  0.4160100000000 1.0
C      1  0.4503280000000  0.5750740000000  0.5007850000000 1.0
C      1  0.5088770000000  0.5465720000000  0.4340260000000 1.0
C      1  0.5453300000000  0.4299440000000  0.4550560000000 1.0
C      1  0.4535610000000  0.4109330000000  0.4782130000000 1.0
C      1  0.5578260000000  0.4889120000000  0.4104870000000 1.0
END
