TITL C-2847949-8115-437 -6.16928934651589e-05 125000 -176.577862498229 0 0 32 (C1) n - 1
REM
REM in /home/bkarasulu/work/CARBON/AIRSS/Generating-Clusters/AIREBO/with-SteepDescent/Only-C1/SD-CG-opt/Try1-1.4A-POS3A/HFTN-CG
REM
REM
REM
REM
REM
REM ./C.cell (11c1c37f851c82e70ff6c80c92926a4b)
REM
REM compiler GCC version 9.2.1 20190827 (Red Hat 9.2.1-1)
REM options -cpp -mtune=generic -march=x86-64 -g -O0 -fpre-include=/usr/include/finclude/math-vector-fortran.h
REM seed 957110567 -1395204374 -821627907 1026972755 -1370931204 716509516 -179370977 -1506139726 -997500173 1444941778 717429635 -1769240145 -1352601131 -335229518 1539038425 231226443 -53167868 1211212117 577346190 -1580240886 768579038 -664858988 -1939804139 2048959345 1649082881 -1748867878 439071480 1411055259 -1791948519 300503519 -2110878778 -1660981702 -1273574532
REM
CELL 1.54180   50.00000   50.00000   50.00000   90.00000   90.00000   90.00000
LATT -1
SFAC C  
C      1  0.5294420000000  0.5462460000000  0.5258820000000 1.0
C      1  0.4977990000000  0.4987810000000  0.5492750000000 1.0
C      1  0.4498290000000  0.4894890000000  0.5347530000000 1.0
C      1  0.4885030000000  0.4616340000000  0.4250220000000 1.0
C      1  0.5772990000000  0.4947950000000  0.4911690000000 1.0
C      1  0.5052900000000  0.5473330000000  0.5112100000000 1.0
C      1  0.5326190000000  0.4664400000000  0.4860090000000 1.0
C      1  0.5563080000000  0.5170040000000  0.4993580000000 1.0
C      1  0.5050620000000  0.5103710000000  0.4743040000000 1.0
C      1  0.5024290000000  0.4539440000000  0.5250740000000 1.0
C      1  0.5515330000000  0.4851220000000  0.4764420000000 1.0
C      1  0.4710150000000  0.4595960000000  0.4803420000000 1.0
C      1  0.4672160000000  0.5424190000000  0.5004630000000 1.0
C      1  0.4598640000000  0.4742160000000  0.5073270000000 1.0
C      1  0.4824160000000  0.4890260000000  0.4683540000000 1.0
C      1  0.4793200000000  0.4483300000000  0.5100590000000 1.0
C      1  0.4961680000000  0.4666780000000  0.4506930000000 1.0
C      1  0.5162700000000  0.5374520000000  0.4588660000000 1.0
C      1  0.5214640000000  0.4708380000000  0.5118050000000 1.0
C      1  0.5167210000000  0.4543660000000  0.4657370000000 1.0
C      1  0.4890180000000  0.5608520000000  0.4897270000000 1.0
C      1  0.4967500000000  0.4648330000000  0.5508620000000 1.0
C      1  0.5408250000000  0.5200960000000  0.5222120000000 1.0
C      1  0.5019600000000  0.5598380000000  0.4642750000000 1.0
C      1  0.4412470000000  0.5010030000000  0.5038860000000 1.0
C      1  0.4699210000000  0.4806430000000  0.5586620000000 1.0
C      1  0.4693770000000  0.5158640000000  0.5417470000000 1.0
C      1  0.5165760000000  0.4996310000000  0.5232070000000 1.0
C      1  0.4641530000000  0.5394270000000  0.5290690000000 1.0
C      1  0.4679690000000  0.5121570000000  0.4886740000000 1.0
C      1  0.4980710000000  0.5173790000000  0.5044150000000 1.0
C      1  0.5375660000000  0.5141950000000  0.4711230000000 1.0
END
