TITL C-2848509-3138-602 0.00428072460190469 125000 -954.949335910789 0 0 171 (C1) n - 1
REM
REM in /home/bkarasulu/work/CARBON/AIRSS/Generating-Clusters/AIREBO/with-SteepDescent/Only-C1/SD-CG-opt/Try1-1.4A-POS3A/HFTN-CG
REM
REM
REM
REM
REM
REM ./C.cell (11c1c37f851c82e70ff6c80c92926a4b)
REM
REM compiler GCC version 9.2.1 20190827 (Red Hat 9.2.1-1)
REM options -cpp -mtune=generic -march=x86-64 -g -O0 -fpre-include=/usr/include/finclude/math-vector-fortran.h
REM seed -337111390 1807317944 -2026524871 -1978772201 922352495 676404415 -718974279 -1998600261 1723610996 1315872382 -1233048137 -1991806376 -320633143 -1001432165 -531555254 -1874646800 -1928121193 921897024 -1173337383 -249729548 1984582740 1245532841 -65490063 -373183731 496827590 1597033017 326050564 2131661118 2100501761 1083168408 -1340667366 1727432282 314098618
REM
CELL 1.54180   50.00000   50.00000   50.00000   90.00000   90.00000   90.00000
LATT -1
SFAC C  
C      1  0.5432860000000  0.5242370000000  0.4611220000000 1.0
C      1  0.5484850000000  0.4383760000000  0.5161950000000 1.0
C      1  0.5473010000000  0.4121860000000  0.4829220000000 1.0
C      1  0.5102340000000  0.5296150000000  0.5488040000000 1.0
C      1  0.5058930000000  0.4875870000000  0.4526320000000 1.0
C      1  0.4359260000000  0.5650520000000  0.5193230000000 1.0
C      1  0.4248120000000  0.4724860000000  0.4331990000000 1.0
C      1  0.4804370000000  0.5002430000000  0.3897050000000 1.0
C      1  0.5501320000000  0.5531980000000  0.4172320000000 1.0
C      1  0.5686400000000  0.5354600000000  0.6008830000000 1.0
C      1  0.5494960000000  0.4465920000000  0.4053590000000 1.0
C      1  0.5220750000000  0.5222550000000  0.4272410000000 1.0
C      1  0.4162280000000  0.4895560000000  0.5790890000000 1.0
C      1  0.4266850000000  0.4426980000000  0.5311420000000 1.0
C      1  0.4383710000000  0.4265650000000  0.4487270000000 1.0
C      1  0.5156770000000  0.5360440000000  0.3871840000000 1.0
C      1  0.4814440000000  0.4736410000000  0.4809100000000 1.0
C      1  0.4916080000000  0.6160640000000  0.4970340000000 1.0
C      1  0.5337050000000  0.4100980000000  0.5115820000000 1.0
C      1  0.5167780000000  0.5844210000000  0.4741920000000 1.0
C      1  0.4666820000000  0.4207590000000  0.5520270000000 1.0
C      1  0.4980870000000  0.4692210000000  0.5717580000000 1.0
C      1  0.5422010000000  0.5905230000000  0.5574230000000 1.0
C      1  0.5386100000000  0.5314490000000  0.5950050000000 1.0
C      1  0.5649210000000  0.5385270000000  0.4831540000000 1.0
C      1  0.5397680000000  0.5728700000000  0.4339740000000 1.0
C      1  0.5428200000000  0.4221430000000  0.4506720000000 1.0
C      1  0.5092270000000  0.4512950000000  0.5450710000000 1.0
C      1  0.5290690000000  0.5833210000000  0.5058830000000 1.0
C      1  0.5134740000000  0.5126440000000  0.5049810000000 1.0
C      1  0.4613820000000  0.5162530000000  0.4121080000000 1.0
C      1  0.6119730000000  0.4853800000000  0.4712150000000 1.0
C      1  0.4582440000000  0.6035680000000  0.5408540000000 1.0
C      1  0.5018520000000  0.4282620000000  0.5919210000000 1.0
C      1  0.5667600000000  0.4947930000000  0.5031830000000 1.0
C      1  0.5511800000000  0.4263210000000  0.5648040000000 1.0
C      1  0.5084160000000  0.4579530000000  0.4930240000000 1.0
C      1  0.5689660000000  0.5842750000000  0.5080070000000 1.0
C      1  0.4705700000000  0.4675190000000  0.3909000000000 1.0
C      1  0.3968500000000  0.4807950000000  0.5039010000000 1.0
C      1  0.3933710000000  0.5036500000000  0.4869660000000 1.0
C      1  0.4161440000000  0.5310450000000  0.5525220000000 1.0
C      1  0.4293810000000  0.4534870000000  0.4536390000000 1.0
C      1  0.5267950000000  0.3953040000000  0.5386030000000 1.0
C      1  0.5525110000000  0.5437420000000  0.5390950000000 1.0
C      1  0.4811020000000  0.5633920000000  0.4870380000000 1.0
C      1  0.5502340000000  0.5760260000000  0.5314810000000 1.0
C      1  0.4425950000000  0.4644300000000  0.4830010000000 1.0
C      1  0.5147920000000  0.5214860000000  0.6171180000000 1.0
C      1  0.4839960000000  0.4852540000000  0.5377270000000 1.0
C      1  0.4562460000000  0.4435910000000  0.5317350000000 1.0
C      1  0.4506790000000  0.5533860000000  0.4913680000000 1.0
C      1  0.4719080000000  0.5041570000000  0.4770840000000 1.0
C      1  0.5947080000000  0.5763030000000  0.5040470000000 1.0
C      1  0.4164810000000  0.4664770000000  0.5383000000000 1.0
C      1  0.4707120000000  0.5929810000000  0.4597930000000 1.0
C      1  0.5956380000000  0.5537070000000  0.4873620000000 1.0
C      1  0.5975840000000  0.5069230000000  0.5380110000000 1.0
C      1  0.4599730000000  0.5450030000000  0.4434760000000 1.0
C      1  0.4387930000000  0.5082490000000  0.5917420000000 1.0
C      1  0.4671100000000  0.4922760000000  0.6023890000000 1.0
C      1  0.4795530000000  0.4169810000000  0.4652750000000 1.0
C      1  0.4600600000000  0.4956850000000  0.5693030000000 1.0
C      1  0.5366030000000  0.4938910000000  0.4153740000000 1.0
C      1  0.4670610000000  0.4040550000000  0.5224090000000 1.0
C      1  0.4916300000000  0.5717260000000  0.4092450000000 1.0
C      1  0.4473810000000  0.4099770000000  0.4730200000000 1.0
C      1  0.3962640000000  0.5014920000000  0.4586990000000 1.0
C      1  0.4063140000000  0.5492890000000  0.4704010000000 1.0
C      1  0.4992940000000  0.4062660000000  0.5117660000000 1.0
C      1  0.5439320000000  0.4002320000000  0.5591980000000 1.0
C      1  0.4831690000000  0.4115050000000  0.4335720000000 1.0
C      1  0.4677500000000  0.4544080000000  0.5051090000000 1.0
C      1  0.4917770000000  0.5510690000000  0.3907140000000 1.0
C      1  0.5761840000000  0.4433910000000  0.4563400000000 1.0
C      1  0.4911470000000  0.5300380000000  0.6011640000000 1.0
C      1  0.4413300000000  0.4089630000000  0.5005850000000 1.0
C      1  0.5664190000000  0.4369610000000  0.4807980000000 1.0
C      1  0.4128920000000  0.4572420000000  0.4966650000000 1.0
C      1  0.4684740000000  0.5061570000000  0.4437920000000 1.0
C      1  0.4461690000000  0.5551640000000  0.5916850000000 1.0
C      1  0.4956230000000  0.3945110000000  0.4833330000000 1.0
C      1  0.4998720000000  0.4549240000000  0.5994520000000 1.0
C      1  0.4758560000000  0.5013510000000  0.5107450000000 1.0
C      1  0.5314270000000  0.4410360000000  0.4306890000000 1.0
C      1  0.6166460000000  0.5422260000000  0.4730790000000 1.0
C      1  0.4967550000000  0.5776870000000  0.5607480000000 1.0
C      1  0.4023520000000  0.5317570000000  0.4967550000000 1.0
C      1  0.4334250000000  0.5286910000000  0.5014700000000 1.0
C      1  0.5861690000000  0.4910540000000  0.4494810000000 1.0
C      1  0.4998700000000  0.4777360000000  0.4047970000000 1.0
C      1  0.4968920000000  0.6036220000000  0.4702470000000 1.0
C      1  0.5512290000000  0.4960890000000  0.5616270000000 1.0
C      1  0.5092960000000  0.5217100000000  0.4587450000000 1.0
C      1  0.5952610000000  0.4927960000000  0.5154570000000 1.0
C      1  0.5852750000000  0.5294040000000  0.5807410000000 1.0
C      1  0.4941210000000  0.5563060000000  0.5401820000000 1.0
C      1  0.5105090000000  0.4760510000000  0.5217350000000 1.0
C      1  0.5092470000000  0.5711720000000  0.4367480000000 1.0
C      1  0.4555220000000  0.4230400000000  0.4260200000000 1.0
C      1  0.6114490000000  0.5158600000000  0.4674600000000 1.0
C      1  0.5549380000000  0.4801130000000  0.5905700000000 1.0
C      1  0.4716240000000  0.4602980000000  0.5547550000000 1.0
C      1  0.4671620000000  0.4486440000000  0.4655660000000 1.0
C      1  0.5098520000000  0.4958190000000  0.6291410000000 1.0
C      1  0.5802840000000  0.5088540000000  0.4768610000000 1.0
C      1  0.5184780000000  0.4080420000000  0.4670780000000 1.0
C      1  0.4670790000000  0.5376760000000  0.3887320000000 1.0
C      1  0.4352340000000  0.5245440000000  0.4320860000000 1.0
C      1  0.5510330000000  0.5246690000000  0.5109570000000 1.0
C      1  0.4962980000000  0.5027410000000  0.4261550000000 1.0
C      1  0.4962690000000  0.5002430000000  0.5855700000000 1.0
C      1  0.5171090000000  0.5544130000000  0.4638010000000 1.0
C      1  0.5347780000000  0.4729880000000  0.4421810000000 1.0
C      1  0.4490880000000  0.5929030000000  0.5178080000000 1.0
C      1  0.5329090000000  0.5015960000000  0.4831170000000 1.0
C      1  0.6289960000000  0.4587100000000  0.5079860000000 1.0
C      1  0.4637070000000  0.4798360000000  0.4282590000000 1.0
C      1  0.4950410000000  0.3945930000000  0.5434180000000 1.0
C      1  0.5322080000000  0.5456180000000  0.5671530000000 1.0
C      1  0.5302260000000  0.5018120000000  0.5862450000000 1.0
C      1  0.4406070000000  0.5279850000000  0.5332500000000 1.0
C      1  0.4423370000000  0.4688590000000  0.4091380000000 1.0
C      1  0.5680600000000  0.4666790000000  0.4451450000000 1.0
C      1  0.5262990000000  0.5397210000000  0.4931120000000 1.0
C      1  0.4763680000000  0.5965380000000  0.5601200000000 1.0
C      1  0.4299660000000  0.5360050000000  0.5814230000000 1.0
C      1  0.4417150000000  0.4976190000000  0.4904320000000 1.0
C      1  0.3939590000000  0.4854100000000  0.5340560000000 1.0
C      1  0.5476890000000  0.4696430000000  0.3950300000000 1.0
C      1  0.6128080000000  0.4780360000000  0.4985070000000 1.0
C      1  0.5283820000000  0.5101350000000  0.5320110000000 1.0
C      1  0.5540070000000  0.5264500000000  0.4314560000000 1.0
C      1  0.5524250000000  0.5702550000000  0.4848010000000 1.0
C      1  0.5691840000000  0.5007380000000  0.4243340000000 1.0
C      1  0.5058140000000  0.4386430000000  0.4656430000000 1.0
C      1  0.5564030000000  0.4630540000000  0.4967100000000 1.0
C      1  0.6078800000000  0.5196340000000  0.5633820000000 1.0
C      1  0.4641940000000  0.5482720000000  0.5286470000000 1.0
C      1  0.4325330000000  0.4646260000000  0.5746770000000 1.0
C      1  0.5231160000000  0.5751710000000  0.5699470000000 1.0
C      1  0.4222240000000  0.5474790000000  0.4513100000000 1.0
C      1  0.5694520000000  0.5187410000000  0.5530580000000 1.0
C      1  0.4918380000000  0.4764080000000  0.6172270000000 1.0
C      1  0.4728920000000  0.5496950000000  0.5955460000000 1.0
C      1  0.5152570000000  0.5048490000000  0.3912240000000 1.0
C      1  0.4879200000000  0.5106840000000  0.5568560000000 1.0
C      1  0.5523370000000  0.5818200000000  0.4560700000000 1.0
C      1  0.4945200000000  0.4378990000000  0.5163760000000 1.0
C      1  0.4028740000000  0.5026850000000  0.5570820000000 1.0
C      1  0.5400860000000  0.5495830000000  0.3911260000000 1.0
C      1  0.4085290000000  0.5494460000000  0.5248610000000 1.0
C      1  0.4857490000000  0.4619020000000  0.4429700000000 1.0
C      1  0.4854890000000  0.5312480000000  0.5104360000000 1.0
C      1  0.4664820000000  0.5933920000000  0.4936360000000 1.0
C      1  0.5679020000000  0.4641100000000  0.6052540000000 1.0
C      1  0.4192770000000  0.4268740000000  0.5078080000000 1.0
C      1  0.4165180000000  0.4989300000000  0.4390270000000 1.0
C      1  0.4403690000000  0.4839240000000  0.5477990000000 1.0
C      1  0.4779610000000  0.4457230000000  0.4140800000000 1.0
C      1  0.4485600000000  0.4411090000000  0.5708150000000 1.0
C      1  0.5342250000000  0.4723430000000  0.4761930000000 1.0
C      1  0.4472610000000  0.4995260000000  0.5243800000000 1.0
C      1  0.5132330000000  0.6116150000000  0.5137350000000 1.0
C      1  0.5374540000000  0.4791960000000  0.5404980000000 1.0
C      1  0.5067520000000  0.5578180000000  0.5086510000000 1.0
C      1  0.4797560000000  0.5359260000000  0.4678400000000 1.0
C      1  0.4751940000000  0.5723500000000  0.4384120000000 1.0
C      1  0.5053570000000  0.4292080000000  0.4217440000000 1.0
C      1  0.5421260000000  0.4476010000000  0.5443890000000 1.0
C      1  0.4971290000000  0.4237010000000  0.5608730000000 1.0
END
