TITL C-2847948-6138-44 -0.0045780935613505 125000 -742.391809178381 0 0 144 (C1) n - 1
REM
REM in /home/bkarasulu/work/CARBON/AIRSS/Generating-Clusters/AIREBO/with-SteepDescent/Only-C1/SD-CG-opt/Try1-1.4A-POS3A/HFTN-CG
REM
REM
REM
REM
REM
REM ./C.cell (11c1c37f851c82e70ff6c80c92926a4b)
REM
REM compiler GCC version 9.2.1 20190827 (Red Hat 9.2.1-1)
REM options -cpp -mtune=generic -march=x86-64 -g -O0 -fpre-include=/usr/include/finclude/math-vector-fortran.h
REM seed -1576107826 1555072059 -634238795 -427368155 1423324666 1824176506 1236319352 100991642 1600592060 1551218044 116022847 1234395073 -927015173 -1465733263 1306079184 -1192655148 -1240816865 -1962609585 1604875041 -276631556 559273530 -1258647929 -891356063 1420380798 -674016106 1290645931 2092130710 -1203213261 2124340976 -755723950 -1931112854 -203808635 946160032
REM
CELL 1.54180   50.00000   50.00000   50.00000   90.00000   90.00000   90.00000
LATT -1
SFAC C  
C      1  0.5285270000000  0.4429660000000  0.5624240000000 1.0
C      1  0.4820100000000  0.4650910000000  0.5684030000000 1.0
C      1  0.4453240000000  0.5145300000000  0.4208780000000 1.0
C      1  0.4692530000000  0.5449810000000  0.5807000000000 1.0
C      1  0.5701940000000  0.5802250000000  0.4839860000000 1.0
C      1  0.5078910000000  0.5030440000000  0.5159310000000 1.0
C      1  0.5979870000000  0.4758880000000  0.4542110000000 1.0
C      1  0.5128690000000  0.5396380000000  0.4645880000000 1.0
C      1  0.4497350000000  0.5729290000000  0.4513210000000 1.0
C      1  0.5222130000000  0.4640660000000  0.4433900000000 1.0
C      1  0.5261410000000  0.5117890000000  0.5905620000000 1.0
C      1  0.5410440000000  0.4912010000000  0.4978630000000 1.0
C      1  0.4413130000000  0.4704570000000  0.5247520000000 1.0
C      1  0.4795130000000  0.4979880000000  0.5225820000000 1.0
C      1  0.5539370000000  0.5464880000000  0.5622490000000 1.0
C      1  0.4435410000000  0.4714420000000  0.4572670000000 1.0
C      1  0.5279420000000  0.5728100000000  0.4803130000000 1.0
C      1  0.4717680000000  0.4851580000000  0.4181620000000 1.0
C      1  0.5199210000000  0.4865670000000  0.6090790000000 1.0
C      1  0.4513380000000  0.5134470000000  0.4900540000000 1.0
C      1  0.5057960000000  0.4708500000000  0.5050010000000 1.0
C      1  0.4517070000000  0.5332990000000  0.4555840000000 1.0
C      1  0.5651640000000  0.5151130000000  0.5690050000000 1.0
C      1  0.4363210000000  0.5774820000000  0.4826170000000 1.0
C      1  0.5470450000000  0.4834870000000  0.4456850000000 1.0
C      1  0.4109350000000  0.4728460000000  0.4938720000000 1.0
C      1  0.5555460000000  0.4310380000000  0.5649920000000 1.0
C      1  0.5333020000000  0.4862920000000  0.5306300000000 1.0
C      1  0.4657790000000  0.4540290000000  0.4425470000000 1.0
C      1  0.5183510000000  0.5088260000000  0.4780140000000 1.0
C      1  0.5007600000000  0.3990070000000  0.5353470000000 1.0
C      1  0.4312830000000  0.4413570000000  0.5231430000000 1.0
C      1  0.5355610000000  0.4453610000000  0.4108550000000 1.0
C      1  0.4978820000000  0.4135640000000  0.4411170000000 1.0
C      1  0.4462120000000  0.4456250000000  0.5599860000000 1.0
C      1  0.5529820000000  0.4357430000000  0.4521010000000 1.0
C      1  0.4430140000000  0.4840510000000  0.4952220000000 1.0
C      1  0.5942680000000  0.5449640000000  0.5136460000000 1.0
C      1  0.5165840000000  0.5654300000000  0.4427230000000 1.0
C      1  0.5299500000000  0.4060310000000  0.5471710000000 1.0
C      1  0.4752420000000  0.5130570000000  0.4669220000000 1.0
C      1  0.4068520000000  0.4941630000000  0.5200530000000 1.0
C      1  0.5006730000000  0.5539880000000  0.4149350000000 1.0
C      1  0.5104020000000  0.4236870000000  0.4182220000000 1.0
C      1  0.4795050000000  0.5615550000000  0.5290770000000 1.0
C      1  0.5342900000000  0.4540030000000  0.5316590000000 1.0
C      1  0.4728220000000  0.4266310000000  0.4575440000000 1.0
C      1  0.5739380000000  0.4381600000000  0.5421190000000 1.0
C      1  0.5288930000000  0.5796830000000  0.5252610000000 1.0
C      1  0.5855620000000  0.4899240000000  0.5154690000000 1.0
C      1  0.4875900000000  0.5242430000000  0.5845320000000 1.0
C      1  0.4716620000000  0.5939460000000  0.5226150000000 1.0
C      1  0.5660010000000  0.5011940000000  0.4677080000000 1.0
C      1  0.4935730000000  0.4642330000000  0.4592750000000 1.0
C      1  0.5026080000000  0.4121650000000  0.5661150000000 1.0
C      1  0.4157290000000  0.4562790000000  0.4645600000000 1.0
C      1  0.5226880000000  0.5197320000000  0.4155970000000 1.0
C      1  0.4738120000000  0.5127640000000  0.4023330000000 1.0
C      1  0.4724510000000  0.5393260000000  0.4966270000000 1.0
C      1  0.5655330000000  0.5410500000000  0.4330170000000 1.0
C      1  0.4736870000000  0.5809990000000  0.4699290000000 1.0
C      1  0.5365290000000  0.5893540000000  0.4563820000000 1.0
C      1  0.4412980000000  0.5338040000000  0.5712470000000 1.0
C      1  0.4218140000000  0.5145830000000  0.4731850000000 1.0
C      1  0.5154540000000  0.4589870000000  0.5894210000000 1.0
C      1  0.5185690000000  0.5587370000000  0.5800660000000 1.0
C      1  0.4413680000000  0.5015410000000  0.4491900000000 1.0
C      1  0.5803540000000  0.4563210000000  0.5142520000000 1.0
C      1  0.4612780000000  0.4011260000000  0.5123740000000 1.0
C      1  0.4661290000000  0.5241080000000  0.5263670000000 1.0
C      1  0.4935140000000  0.4350130000000  0.5793790000000 1.0
C      1  0.4306040000000  0.5456660000000  0.4792920000000 1.0
C      1  0.4253360000000  0.5444570000000  0.5128650000000 1.0
C      1  0.4603890000000  0.4858850000000  0.5803900000000 1.0
C      1  0.5239490000000  0.5304570000000  0.5619640000000 1.0
C      1  0.4709340000000  0.4565210000000  0.4119800000000 1.0
C      1  0.4391560000000  0.5035980000000  0.5729780000000 1.0
C      1  0.4959540000000  0.5023850000000  0.5661940000000 1.0
C      1  0.5044960000000  0.5789350000000  0.5688710000000 1.0
C      1  0.4964450000000  0.4474230000000  0.4042470000000 1.0
C      1  0.4533440000000  0.4241370000000  0.5261610000000 1.0
C      1  0.4964410000000  0.5609880000000  0.4853590000000 1.0
C      1  0.5560630000000  0.4401890000000  0.4831010000000 1.0
C      1  0.5041920000000  0.4767590000000  0.5454200000000 1.0
C      1  0.5253110000000  0.4849110000000  0.5697520000000 1.0
C      1  0.4878360000000  0.4409220000000  0.4834890000000 1.0
C      1  0.5772540000000  0.4720880000000  0.5435710000000 1.0
C      1  0.4971630000000  0.5913760000000  0.4530120000000 1.0
C      1  0.4268670000000  0.4911380000000  0.5473790000000 1.0
C      1  0.5010980000000  0.5868110000000  0.5070040000000 1.0
C      1  0.4568100000000  0.5516380000000  0.4318590000000 1.0
C      1  0.5709490000000  0.4182920000000  0.5008550000000 1.0
C      1  0.4127560000000  0.5462090000000  0.5603920000000 1.0
C      1  0.5113180000000  0.5505650000000  0.5247950000000 1.0
C      1  0.4960860000000  0.4204620000000  0.5093730000000 1.0
C      1  0.4622700000000  0.4612820000000  0.4837840000000 1.0
C      1  0.4524200000000  0.5620060000000  0.5084970000000 1.0
C      1  0.4735200000000  0.4677210000000  0.5152530000000 1.0
C      1  0.3983520000000  0.4994460000000  0.4781760000000 1.0
C      1  0.5498750000000  0.5559140000000  0.4947200000000 1.0
C      1  0.5544940000000  0.4868910000000  0.5574880000000 1.0
C      1  0.4455100000000  0.5674880000000  0.5679420000000 1.0
C      1  0.5852630000000  0.5247590000000  0.5502630000000 1.0
C      1  0.5427370000000  0.5184700000000  0.5362660000000 1.0
C      1  0.5513420000000  0.5945590000000  0.5041520000000 1.0
C      1  0.5574820000000  0.4484540000000  0.4284310000000 1.0
C      1  0.5062310000000  0.4384340000000  0.5363960000000 1.0
C      1  0.5274500000000  0.4175630000000  0.4991490000000 1.0
C      1  0.5176520000000  0.5954640000000  0.5517520000000 1.0
C      1  0.5072210000000  0.4074980000000  0.4732480000000 1.0
C      1  0.4484920000000  0.5913400000000  0.5473080000000 1.0
C      1  0.5043460000000  0.6048790000000  0.4790940000000 1.0
C      1  0.5604820000000  0.4698840000000  0.4917270000000 1.0
C      1  0.4746390000000  0.4458990000000  0.5413140000000 1.0
C      1  0.4395400000000  0.4320660000000  0.4626720000000 1.0
C      1  0.4814700000000  0.3952880000000  0.4917960000000 1.0
C      1  0.4755720000000  0.5429570000000  0.4137510000000 1.0
C      1  0.5362890000000  0.5115670000000  0.4397780000000 1.0
C      1  0.5756890000000  0.4746360000000  0.4319640000000 1.0
C      1  0.4785730000000  0.5686880000000  0.5601040000000 1.0
C      1  0.4944010000000  0.4896780000000  0.4808470000000 1.0
C      1  0.5463830000000  0.5354610000000  0.4605710000000 1.0
C      1  0.5252900000000  0.4509540000000  0.4930810000000 1.0
C      1  0.4330020000000  0.5164220000000  0.5254660000000 1.0
C      1  0.3909160000000  0.4509320000000  0.4484310000000 1.0
C      1  0.5724880000000  0.5572160000000  0.4622720000000 1.0
C      1  0.4796900000000  0.4913220000000  0.4440970000000 1.0
C      1  0.5721920000000  0.5197120000000  0.5192820000000 1.0
C      1  0.4949300000000  0.5280420000000  0.5443180000000 1.0
C      1  0.4602960000000  0.5982930000000  0.4939860000000 1.0
C      1  0.5481080000000  0.4235540000000  0.5254910000000 1.0
C      1  0.4072750000000  0.5529010000000  0.5367560000000 1.0
C      1  0.5532030000000  0.5222580000000  0.4911710000000 1.0
C      1  0.5696690000000  0.5595890000000  0.5182070000000 1.0
C      1  0.5057100000000  0.5012050000000  0.4048750000000 1.0
C      1  0.5363390000000  0.5477340000000  0.4214430000000 1.0
C      1  0.5223790000000  0.5288400000000  0.5039980000000 1.0
C      1  0.5893780000000  0.4828980000000  0.4824200000000 1.0
C      1  0.5759760000000  0.5106970000000  0.4386880000000 1.0
C      1  0.5219620000000  0.4363690000000  0.4631320000000 1.0
C      1  0.4251320000000  0.4594730000000  0.5596420000000 1.0
C      1  0.4069170000000  0.4446360000000  0.5103450000000 1.0
C      1  0.5547980000000  0.5648560000000  0.5415660000000 1.0
C      1  0.5151810000000  0.4725360000000  0.4111820000000 1.0
END
