TITL C-2847951-7423-401 -0.00408164427222172 125000 -546.647603405249 0 0 101 (C1) n - 1
REM
REM in /home/bkarasulu/work/CARBON/AIRSS/Generating-Clusters/AIREBO/with-SteepDescent/Only-C1/SD-CG-opt/Try1-1.4A-POS3A/HFTN-CG
REM
REM
REM
REM
REM
REM ./C.cell (11c1c37f851c82e70ff6c80c92926a4b)
REM
REM compiler GCC version 9.2.1 20190827 (Red Hat 9.2.1-1)
REM options -cpp -mtune=generic -march=x86-64 -g -O0 -fpre-include=/usr/include/finclude/math-vector-fortran.h
REM seed -102629010 191753457 -547117922 975285227 1904881275 -1047923931 -607962437 403903754 -1001738100 1425187995 -970576151 1092861396 1768822588 2057338699 -638119135 -1566640071 13266939 288855988 302799526 -2126501960 951106890 402686113 -171759017 1216716746 2103713494 -450964900 343144217 -707703427 340049114 -56208626 977130894 1812896520 410467145
REM
CELL 1.54180   50.00000   50.00000   50.00000   90.00000   90.00000   90.00000
LATT -1
SFAC C  
C      1  0.5191530000000  0.4840970000000  0.5214070000000 1.0
C      1  0.4652460000000  0.4507520000000  0.5772080000000 1.0
C      1  0.4517760000000  0.5371890000000  0.4519910000000 1.0
C      1  0.5060580000000  0.5408680000000  0.5075930000000 1.0
C      1  0.4508340000000  0.5104860000000  0.4360030000000 1.0
C      1  0.5259500000000  0.4262800000000  0.5334440000000 1.0
C      1  0.5759670000000  0.4761120000000  0.4725970000000 1.0
C      1  0.5521540000000  0.5607270000000  0.4947340000000 1.0
C      1  0.5445630000000  0.5296090000000  0.4977510000000 1.0
C      1  0.4879030000000  0.5836340000000  0.4614850000000 1.0
C      1  0.5039510000000  0.4008990000000  0.4408060000000 1.0
C      1  0.5121370000000  0.4874790000000  0.4028520000000 1.0
C      1  0.5693920000000  0.4628150000000  0.4995570000000 1.0
C      1  0.5497560000000  0.5480550000000  0.4522770000000 1.0
C      1  0.5027260000000  0.4567690000000  0.5651220000000 1.0
C      1  0.5438060000000  0.4975660000000  0.5644940000000 1.0
C      1  0.5375800000000  0.5751190000000  0.4675650000000 1.0
C      1  0.5486270000000  0.4445200000000  0.4449440000000 1.0
C      1  0.4801480000000  0.4569930000000  0.4531430000000 1.0
C      1  0.4782360000000  0.4145520000000  0.5449900000000 1.0
C      1  0.4641280000000  0.4743150000000  0.4352720000000 1.0
C      1  0.5220000000000  0.4793030000000  0.4638040000000 1.0
C      1  0.4350860000000  0.4930580000000  0.5417040000000 1.0
C      1  0.4576780000000  0.4416330000000  0.5451780000000 1.0
C      1  0.5310570000000  0.4448530000000  0.5562180000000 1.0
C      1  0.4776650000000  0.5169330000000  0.5497620000000 1.0
C      1  0.5344220000000  0.4334040000000  0.4660250000000 1.0
C      1  0.5888550000000  0.5149100000000  0.5353400000000 1.0
C      1  0.5415420000000  0.4477780000000  0.4902170000000 1.0
C      1  0.5401800000000  0.5076200000000  0.5233170000000 1.0
C      1  0.5031690000000  0.4245350000000  0.4561510000000 1.0
C      1  0.4830380000000  0.5304460000000  0.4499150000000 1.0
C      1  0.4979780000000  0.4119660000000  0.5259510000000 1.0
C      1  0.4970350000000  0.5066290000000  0.5725710000000 1.0
C      1  0.5729060000000  0.4722790000000  0.5471950000000 1.0
C      1  0.5332040000000  0.4765790000000  0.5490520000000 1.0
C      1  0.5158790000000  0.5121880000000  0.4921760000000 1.0
C      1  0.5058210000000  0.5548660000000  0.5531630000000 1.0
C      1  0.4469460000000  0.4690050000000  0.4939670000000 1.0
C      1  0.5562870000000  0.5719990000000  0.5239660000000 1.0
C      1  0.5441510000000  0.5581010000000  0.5437530000000 1.0
C      1  0.4619450000000  0.4739420000000  0.5453090000000 1.0
C      1  0.5375250000000  0.5216790000000  0.4334450000000 1.0
C      1  0.4165300000000  0.5323240000000  0.4859760000000 1.0
C      1  0.4837550000000  0.4790670000000  0.5811100000000 1.0
C      1  0.4460570000000  0.4314960000000  0.4807070000000 1.0
C      1  0.5295070000000  0.5434370000000  0.5701400000000 1.0
C      1  0.4294310000000  0.5069770000000  0.4692470000000 1.0
C      1  0.5622840000000  0.4510890000000  0.5591240000000 1.0
C      1  0.4658670000000  0.5857890000000  0.5052120000000 1.0
C      1  0.4716950000000  0.4296460000000  0.4683030000000 1.0
C      1  0.5095760000000  0.5167990000000  0.4169480000000 1.0
C      1  0.4925400000000  0.4796250000000  0.5420950000000 1.0
C      1  0.5243870000000  0.5154510000000  0.5748630000000 1.0
C      1  0.4892570000000  0.4940700000000  0.4874410000000 1.0
C      1  0.4903980000000  0.5518720000000  0.4727360000000 1.0
C      1  0.4396590000000  0.5514190000000  0.4730250000000 1.0
C      1  0.4813130000000  0.4997000000000  0.4250770000000 1.0
C      1  0.5706130000000  0.5240220000000  0.4599510000000 1.0
C      1  0.5191670000000  0.5870990000000  0.4926940000000 1.0
C      1  0.4467190000000  0.5192990000000  0.4954770000000 1.0
C      1  0.4021840000000  0.4770560000000  0.5257280000000 1.0
C      1  0.4425530000000  0.5662600000000  0.5012640000000 1.0
C      1  0.5883280000000  0.4440310000000  0.5090610000000 1.0
C      1  0.4387590000000  0.4831350000000  0.4522470000000 1.0
C      1  0.5631170000000  0.5011690000000  0.4389070000000 1.0
C      1  0.5191100000000  0.5399950000000  0.4637120000000 1.0
C      1  0.5791020000000  0.5495800000000  0.4793290000000 1.0
C      1  0.4343360000000  0.5508380000000  0.5243210000000 1.0
C      1  0.4150990000000  0.5310860000000  0.5169210000000 1.0
C      1  0.4960700000000  0.4997910000000  0.4557140000000 1.0
C      1  0.5124170000000  0.5753920000000  0.4466300000000 1.0
C      1  0.4860230000000  0.4284320000000  0.5699020000000 1.0
C      1  0.5097280000000  0.4555680000000  0.4438410000000 1.0
C      1  0.4799210000000  0.5589950000000  0.5553680000000 1.0
C      1  0.4762680000000  0.4675660000000  0.4822850000000 1.0
C      1  0.4777340000000  0.4457900000000  0.5043820000000 1.0
C      1  0.4734640000000  0.5993000000000  0.4773250000000 1.0
C      1  0.5695360000000  0.4910110000000  0.5190120000000 1.0
C      1  0.4850540000000  0.5040710000000  0.5196650000000 1.0
C      1  0.5724520000000  0.5015610000000  0.5574590000000 1.0
C      1  0.4426730000000  0.4928450000000  0.5102940000000 1.0
C      1  0.4548440000000  0.5423250000000  0.5452320000000 1.0
C      1  0.4138010000000  0.4529500000000  0.5194530000000 1.0
C      1  0.5969190000000  0.4968730000000  0.4726490000000 1.0
C      1  0.5141580000000  0.4653910000000  0.4146430000000 1.0
C      1  0.4094800000000  0.5065150000000  0.5276510000000 1.0
C      1  0.5066330000000  0.5468670000000  0.4325500000000 1.0
C      1  0.5334370000000  0.5107220000000  0.4646370000000 1.0
C      1  0.4451840000000  0.4412550000000  0.5135400000000 1.0
C      1  0.5241900000000  0.5358870000000  0.5314480000000 1.0
C      1  0.4763030000000  0.5292270000000  0.5000760000000 1.0
C      1  0.5185270000000  0.4680880000000  0.4957310000000 1.0
C      1  0.5078290000000  0.4400460000000  0.5101350000000 1.0
C      1  0.4284240000000  0.4567710000000  0.4682110000000 1.0
C      1  0.4464640000000  0.5159690000000  0.5623440000000 1.0
C      1  0.5724420000000  0.5112040000000  0.4913980000000 1.0
C      1  0.4952170000000  0.5711420000000  0.4987480000000 1.0
C      1  0.5534420000000  0.4746940000000  0.4516700000000 1.0
C      1  0.4514990000000  0.4862890000000  0.5755620000000 1.0
C      1  0.4640660000000  0.6025880000000  0.5274170000000 1.0
END
