TITL C-2848505-4874-481 -2.47191178603176e-05 125000 -288.313642329821 0 0 56 (C1) n - 1
REM
REM in /home/bkarasulu/work/CARBON/AIRSS/Generating-Clusters/AIREBO/with-SteepDescent/Only-C1/SD-CG-opt/Try1-1.4A-POS3A/HFTN-CG
REM
REM
REM
REM
REM
REM ./C.cell (11c1c37f851c82e70ff6c80c92926a4b)
REM
REM compiler GCC version 9.2.1 20190827 (Red Hat 9.2.1-1)
REM options -cpp -mtune=generic -march=x86-64 -g -O0 -fpre-include=/usr/include/finclude/math-vector-fortran.h
REM seed -151167475 2145733396 -118963956 1350597050 -724002393 -69377712 -1759648398 2074922415 857894785 -1314071040 -1391412433 -1697826980 348724647 -130849924 2020436564 -1637694651 264187431 -1450499230 2051844146 1533839071 1893137428 -1871877334 -1587605642 738427039 -1709943353 -829878390 980406027 -1232254225 1100844112 -1918222066 -656172173 1423332036 1751052872
REM
CELL 1.54180   50.00000   50.00000   50.00000   90.00000   90.00000   90.00000
LATT -1
SFAC C  
C      1  0.5062910000000  0.4354910000000  0.4950200000000 1.0
C      1  0.5243990000000  0.4118980000000  0.5121870000000 1.0
C      1  0.4398240000000  0.5657350000000  0.5360870000000 1.0
C      1  0.5181620000000  0.4474570000000  0.4550800000000 1.0
C      1  0.4146110000000  0.4815010000000  0.5456110000000 1.0
C      1  0.5497040000000  0.5000880000000  0.5465460000000 1.0
C      1  0.5032000000000  0.5608170000000  0.5012330000000 1.0
C      1  0.4830180000000  0.5189570000000  0.4313410000000 1.0
C      1  0.5043860000000  0.4960600000000  0.4686490000000 1.0
C      1  0.5296050000000  0.4977110000000  0.5083300000000 1.0
C      1  0.4852920000000  0.5031710000000  0.5155480000000 1.0
C      1  0.4728030000000  0.4545620000000  0.5052630000000 1.0
C      1  0.5580560000000  0.5134790000000  0.5724290000000 1.0
C      1  0.5334930000000  0.5638520000000  0.4939840000000 1.0
C      1  0.5578430000000  0.4919060000000  0.4935150000000 1.0
C      1  0.5288220000000  0.5406770000000  0.4465250000000 1.0
C      1  0.4562290000000  0.5091040000000  0.4500530000000 1.0
C      1  0.4875470000000  0.5482350000000  0.4765880000000 1.0
C      1  0.4593990000000  0.5430450000000  0.5350280000000 1.0
C      1  0.4364140000000  0.4852220000000  0.5311220000000 1.0
C      1  0.4628780000000  0.4927700000000  0.5465200000000 1.0
C      1  0.5651430000000  0.5106280000000  0.5209770000000 1.0
C      1  0.4901160000000  0.4361180000000  0.4675130000000 1.0
C      1  0.4464160000000  0.4526010000000  0.4923670000000 1.0
C      1  0.5576940000000  0.5042120000000  0.4678890000000 1.0
C      1  0.4335260000000  0.4798410000000  0.4981820000000 1.0
C      1  0.4672570000000  0.4824680000000  0.4629950000000 1.0
C      1  0.4670440000000  0.5404070000000  0.4517710000000 1.0
C      1  0.4899940000000  0.5434610000000  0.5503570000000 1.0
C      1  0.5552390000000  0.5479730000000  0.4523460000000 1.0
C      1  0.5674700000000  0.5309420000000  0.4716380000000 1.0
C      1  0.4907450000000  0.4764430000000  0.5358580000000 1.0
C      1  0.4986460000000  0.5292400000000  0.5141990000000 1.0
C      1  0.5687620000000  0.5367290000000  0.4994850000000 1.0
C      1  0.5427060000000  0.4685230000000  0.5499720000000 1.0
C      1  0.5337570000000  0.5015980000000  0.4524350000000 1.0
C      1  0.4572830000000  0.5406300000000  0.4842410000000 1.0
C      1  0.4636070000000  0.5230860000000  0.5606120000000 1.0
C      1  0.5292520000000  0.5305460000000  0.4994490000000 1.0
C      1  0.5104600000000  0.4279630000000  0.5338430000000 1.0
C      1  0.4592360000000  0.5245200000000  0.5107990000000 1.0
C      1  0.4833930000000  0.4313210000000  0.5198090000000 1.0
C      1  0.5371190000000  0.4539700000000  0.4742380000000 1.0
C      1  0.5165980000000  0.5515100000000  0.5310690000000 1.0
C      1  0.5108980000000  0.5176590000000  0.4330240000000 1.0
C      1  0.4908230000000  0.4796000000000  0.4951740000000 1.0
C      1  0.5207790000000  0.4655370000000  0.5016980000000 1.0
C      1  0.5116110000000  0.5288840000000  0.4712870000000 1.0
C      1  0.5174890000000  0.4972690000000  0.5385360000000 1.0
C      1  0.4300660000000  0.4960320000000  0.4678780000000 1.0
C      1  0.4635220000000  0.4508700000000  0.4666520000000 1.0
C      1  0.5185600000000  0.4575390000000  0.5345340000000 1.0
C      1  0.4952560000000  0.4692310000000  0.4516120000000 1.0
C      1  0.5480040000000  0.5394810000000  0.5264460000000 1.0
C      1  0.4936500000000  0.5103140000000  0.5553860000000 1.0
C      1  0.4559040000000  0.5011130000000  0.4890690000000 1.0
END
