TITL C-2847946-5639-146 -0.00064131596799906 125000 -667.686586550104 0 0 122 (C1) n - 1
REM
REM in /home/bkarasulu/work/CARBON/AIRSS/Generating-Clusters/AIREBO/with-SteepDescent/Only-C1/SD-CG-opt/Try1-1.4A-POS3A/HFTN-CG
REM
REM
REM
REM
REM
REM ./C.cell (11c1c37f851c82e70ff6c80c92926a4b)
REM
REM compiler GCC version 9.2.1 20190827 (Red Hat 9.2.1-1)
REM options -cpp -mtune=generic -march=x86-64 -g -O0 -fpre-include=/usr/include/finclude/math-vector-fortran.h
REM seed -527014216 -1505362654 155927596 635526101 827719586 -1096495128 1829672737 850433288 1785722716 535320327 -1584975929 -145903053 -445849987 -816062976 1492610798 -1099052365 807142551 -1909719979 -885744906 -1914202614 530207492 -1683854924 1008966225 1139282542 380700463 1590937924 -1286773440 -1725834628 104653215 1082728502 116849560 982930649 265636845
REM
CELL 1.54180   50.00000   50.00000   50.00000   90.00000   90.00000   90.00000
LATT -1
SFAC C  
C      1  0.4370110000000  0.5368700000000  0.4425170000000 1.0
C      1  0.5295090000000  0.5871010000000  0.4909520000000 1.0
C      1  0.4310110000000  0.4759990000000  0.5615230000000 1.0
C      1  0.4651070000000  0.5071360000000  0.5483300000000 1.0
C      1  0.4167470000000  0.4934500000000  0.4642600000000 1.0
C      1  0.5581310000000  0.4250960000000  0.5625700000000 1.0
C      1  0.4848110000000  0.5260810000000  0.4331470000000 1.0
C      1  0.4592250000000  0.5518190000000  0.5259240000000 1.0
C      1  0.4714920000000  0.4762880000000  0.5389640000000 1.0
C      1  0.4961780000000  0.5919390000000  0.5191630000000 1.0
C      1  0.4188260000000  0.4939080000000  0.5433490000000 1.0
C      1  0.4379930000000  0.5705480000000  0.5425620000000 1.0
C      1  0.5301300000000  0.5152640000000  0.5054200000000 1.0
C      1  0.4730050000000  0.5131430000000  0.5872880000000 1.0
C      1  0.4793240000000  0.4604890000000  0.5138910000000 1.0
C      1  0.5792200000000  0.4752390000000  0.5606190000000 1.0
C      1  0.4398830000000  0.5820810000000  0.5112970000000 1.0
C      1  0.4906880000000  0.4151660000000  0.5016550000000 1.0
C      1  0.5289160000000  0.4922520000000  0.5854010000000 1.0
C      1  0.5637280000000  0.4981050000000  0.4846660000000 1.0
C      1  0.5401420000000  0.5539450000000  0.5663990000000 1.0
C      1  0.5079420000000  0.4596200000000  0.3910610000000 1.0
C      1  0.5457420000000  0.4731240000000  0.5662890000000 1.0
C      1  0.5038450000000  0.5746780000000  0.5440700000000 1.0
C      1  0.4569040000000  0.5367610000000  0.4675490000000 1.0
C      1  0.5774240000000  0.4407210000000  0.4894980000000 1.0
C      1  0.5009720000000  0.4897360000000  0.5492830000000 1.0
C      1  0.4580350000000  0.4871670000000  0.5749540000000 1.0
C      1  0.5160630000000  0.4617000000000  0.5393250000000 1.0
C      1  0.4304930000000  0.4659700000000  0.4645240000000 1.0
C      1  0.5192170000000  0.5611050000000  0.4335900000000 1.0
C      1  0.5813420000000  0.4690030000000  0.4844250000000 1.0
C      1  0.4387420000000  0.5440620000000  0.5593640000000 1.0
C      1  0.4561220000000  0.5063480000000  0.4990590000000 1.0
C      1  0.5382440000000  0.4664620000000  0.4691150000000 1.0
C      1  0.5771450000000  0.4963480000000  0.4311280000000 1.0
C      1  0.5592470000000  0.5530560000000  0.5247240000000 1.0
C      1  0.4946980000000  0.5566060000000  0.4787880000000 1.0
C      1  0.4494770000000  0.4905790000000  0.4399070000000 1.0
C      1  0.5939720000000  0.4982700000000  0.5615110000000 1.0
C      1  0.5379660000000  0.4430570000000  0.5685750000000 1.0
C      1  0.5102990000000  0.4345230000000  0.5526310000000 1.0
C      1  0.5757000000000  0.4352410000000  0.5177910000000 1.0
C      1  0.5425580000000  0.4760760000000  0.4996140000000 1.0
C      1  0.5473000000000  0.5812350000000  0.5183640000000 1.0
C      1  0.5819570000000  0.4897410000000  0.5121320000000 1.0
C      1  0.5079970000000  0.5254200000000  0.4815150000000 1.0
C      1  0.4827900000000  0.4312750000000  0.4748420000000 1.0
C      1  0.4996640000000  0.5690860000000  0.4513420000000 1.0
C      1  0.4625560000000  0.5031670000000  0.3943260000000 1.0
C      1  0.5841000000000  0.5193300000000  0.5455090000000 1.0
C      1  0.5160500000000  0.5301150000000  0.4233390000000 1.0
C      1  0.5286580000000  0.4152300000000  0.5314610000000 1.0
C      1  0.5334100000000  0.5440150000000  0.5147540000000 1.0
C      1  0.5819140000000  0.5350580000000  0.5214730000000 1.0
C      1  0.4696870000000  0.5693180000000  0.4987410000000 1.0
C      1  0.5204090000000  0.4739220000000  0.4411070000000 1.0
C      1  0.4629810000000  0.5485580000000  0.4299550000000 1.0
C      1  0.5219210000000  0.4338450000000  0.4432500000000 1.0
C      1  0.4968800000000  0.4719220000000  0.4173480000000 1.0
C      1  0.5207640000000  0.5061420000000  0.4028130000000 1.0
C      1  0.5444890000000  0.5316350000000  0.4419190000000 1.0
C      1  0.5655090000000  0.5313900000000  0.4918900000000 1.0
C      1  0.4214920000000  0.5392820000000  0.5231730000000 1.0
C      1  0.4705990000000  0.4845050000000  0.4658940000000 1.0
C      1  0.5097920000000  0.4711500000000  0.5072420000000 1.0
C      1  0.4397360000000  0.4800670000000  0.4941110000000 1.0
C      1  0.4788410000000  0.4306990000000  0.5219170000000 1.0
C      1  0.3945090000000  0.4616990000000  0.5146740000000 1.0
C      1  0.4569850000000  0.4228770000000  0.5443910000000 1.0
C      1  0.4503280000000  0.5214610000000  0.5258590000000 1.0
C      1  0.4895970000000  0.5284740000000  0.5543160000000 1.0
C      1  0.4080150000000  0.5036130000000  0.4888840000000 1.0
C      1  0.5581370000000  0.4275930000000  0.4724110000000 1.0
C      1  0.5511980000000  0.4373780000000  0.4451050000000 1.0
C      1  0.4536630000000  0.4541420000000  0.5532970000000 1.0
C      1  0.4968710000000  0.5960220000000  0.4869420000000 1.0
C      1  0.5319520000000  0.5716790000000  0.5471980000000 1.0
C      1  0.4890200000000  0.5040750000000  0.4095700000000 1.0
C      1  0.4406590000000  0.4350670000000  0.4969720000000 1.0
C      1  0.5541660000000  0.5064520000000  0.5225040000000 1.0
C      1  0.4702340000000  0.5880310000000  0.4703560000000 1.0
C      1  0.4427930000000  0.4969080000000  0.4088520000000 1.0
C      1  0.5184370000000  0.4113650000000  0.5057570000000 1.0
C      1  0.4852420000000  0.5211520000000  0.5064230000000 1.0
C      1  0.5327650000000  0.4235770000000  0.4854410000000 1.0
C      1  0.4807700000000  0.5168220000000  0.4630240000000 1.0
C      1  0.5122600000000  0.4459720000000  0.4724390000000 1.0
C      1  0.4631330000000  0.5380870000000  0.5733510000000 1.0
C      1  0.5806940000000  0.4616290000000  0.5315170000000 1.0
C      1  0.4126030000000  0.4832800000000  0.5143470000000 1.0
C      1  0.4185810000000  0.5213460000000  0.5498870000000 1.0
C      1  0.5597830000000  0.4691560000000  0.4429400000000 1.0
C      1  0.5345800000000  0.4844610000000  0.4132990000000 1.0
C      1  0.5654340000000  0.5357830000000  0.5771370000000 1.0
C      1  0.5001190000000  0.4776030000000  0.4752900000000 1.0
C      1  0.4082500000000  0.5307700000000  0.4945610000000 1.0
C      1  0.5490380000000  0.5637670000000  0.4313470000000 1.0
C      1  0.5341680000000  0.5258690000000  0.5860910000000 1.0
C      1  0.5513630000000  0.5189320000000  0.5511270000000 1.0
C      1  0.4764730000000  0.4512280000000  0.4300650000000 1.0
C      1  0.5055420000000  0.5014890000000  0.5177940000000 1.0
C      1  0.5518550000000  0.5005160000000  0.4534740000000 1.0
C      1  0.5101380000000  0.5637270000000  0.5062870000000 1.0
C      1  0.4331360000000  0.5536790000000  0.4947920000000 1.0
C      1  0.4410070000000  0.4191810000000  0.5163480000000 1.0
C      1  0.4777410000000  0.4618040000000  0.5841570000000 1.0
C      1  0.4449990000000  0.5664140000000  0.4679260000000 1.0
C      1  0.4906850000000  0.4306920000000  0.4425650000000 1.0
C      1  0.5583290000000  0.4187810000000  0.5338520000000 1.0
C      1  0.4252800000000  0.5113450000000  0.4417370000000 1.0
C      1  0.4634290000000  0.4573780000000  0.4851370000000 1.0
C      1  0.4521810000000  0.4590130000000  0.4414390000000 1.0
C      1  0.5185250000000  0.5177890000000  0.5571100000000 1.0
C      1  0.4724700000000  0.5731850000000  0.4398370000000 1.0
C      1  0.4900530000000  0.5469720000000  0.5280250000000 1.0
C      1  0.5535570000000  0.5635840000000  0.4868170000000 1.0
C      1  0.5187810000000  0.5002220000000  0.4613860000000 1.0
C      1  0.5509220000000  0.4756630000000  0.5325780000000 1.0
C      1  0.4969300000000  0.4891580000000  0.5827550000000 1.0
C      1  0.5383980000000  0.5375920000000  0.4723270000000 1.0
C      1  0.4815020000000  0.4373070000000  0.5631980000000 1.0
END
