TITL C-2847958-8115-766 0.00193190902796538 125000 -954.425718408433 0 0 170 (C1) n - 1
REM
REM in /home/bkarasulu/work/CARBON/AIRSS/Generating-Clusters/AIREBO/with-SteepDescent/Only-C1/SD-CG-opt/Try1-1.4A-POS3A/HFTN-CG
REM
REM
REM
REM
REM
REM ./C.cell (11c1c37f851c82e70ff6c80c92926a4b)
REM
REM compiler GCC version 9.2.1 20190827 (Red Hat 9.2.1-1)
REM options -cpp -mtune=generic -march=x86-64 -g -O0 -fpre-include=/usr/include/finclude/math-vector-fortran.h
REM seed 542287988 -295646233 -1210842698 -383249932 48281383 -2090382056 458534554 155579868 2110622952 1745936159 -1471504626 90860101 796396425 -2029521229 -1303904869 -1954853885 395316595 1035699224 -1641442994 2046498897 1587025935 707721444 1659967324 199773013 1488571013 -1551902532 -595883046 2020649494 611169964 -1090821020 -610031903 1816555377 1715106727
REM
CELL 1.54180   50.00000   50.00000   50.00000   90.00000   90.00000   90.00000
LATT -1
SFAC C  
C      1  0.5689240000000  0.5718710000000  0.4502680000000 1.0
C      1  0.5783680000000  0.4481500000000  0.6004070000000 1.0
C      1  0.4595870000000  0.4190200000000  0.5291170000000 1.0
C      1  0.5634610000000  0.5931740000000  0.4903350000000 1.0
C      1  0.4816870000000  0.5972530000000  0.4765280000000 1.0
C      1  0.5994050000000  0.5089200000000  0.4704260000000 1.0
C      1  0.5332940000000  0.4276460000000  0.5367570000000 1.0
C      1  0.5251490000000  0.5900230000000  0.4548860000000 1.0
C      1  0.4098410000000  0.4414250000000  0.5297960000000 1.0
C      1  0.4784310000000  0.5209890000000  0.4318390000000 1.0
C      1  0.4900090000000  0.4606060000000  0.5407450000000 1.0
C      1  0.4685440000000  0.4540470000000  0.4752240000000 1.0
C      1  0.4584900000000  0.4473530000000  0.5805190000000 1.0
C      1  0.5334730000000  0.5881980000000  0.4861860000000 1.0
C      1  0.4116080000000  0.6378820000000  0.4875740000000 1.0
C      1  0.6023660000000  0.4465150000000  0.4717500000000 1.0
C      1  0.5602690000000  0.4186950000000  0.5326870000000 1.0
C      1  0.5147080000000  0.4317400000000  0.5611810000000 1.0
C      1  0.4573080000000  0.6068970000000  0.4819470000000 1.0
C      1  0.5161870000000  0.5084690000000  0.5535160000000 1.0
C      1  0.4793620000000  0.5864680000000  0.4295500000000 1.0
C      1  0.4131800000000  0.5064150000000  0.4442010000000 1.0
C      1  0.4781200000000  0.4334940000000  0.6244850000000 1.0
C      1  0.4242640000000  0.4895570000000  0.5802030000000 1.0
C      1  0.4636550000000  0.5451020000000  0.4868350000000 1.0
C      1  0.5629540000000  0.4544050000000  0.4080210000000 1.0
C      1  0.4293270000000  0.4624090000000  0.5716140000000 1.0
C      1  0.5282890000000  0.4652250000000  0.5241270000000 1.0
C      1  0.4908650000000  0.5775600000000  0.4981630000000 1.0
C      1  0.4965470000000  0.5952150000000  0.4518590000000 1.0
C      1  0.4383850000000  0.5481180000000  0.5600860000000 1.0
C      1  0.5708540000000  0.4768420000000  0.4944050000000 1.0
C      1  0.5076730000000  0.5923840000000  0.5465580000000 1.0
C      1  0.5463580000000  0.5091630000000  0.4785060000000 1.0
C      1  0.4651000000000  0.5220470000000  0.5069520000000 1.0
C      1  0.4680480000000  0.5021380000000  0.5727690000000 1.0
C      1  0.5536410000000  0.4547830000000  0.5106620000000 1.0
C      1  0.5544200000000  0.5638340000000  0.5713120000000 1.0
C      1  0.4447570000000  0.5640820000000  0.4702430000000 1.0
C      1  0.4718450000000  0.5708740000000  0.5741010000000 1.0
C      1  0.4977730000000  0.4877960000000  0.4642890000000 1.0
C      1  0.5670220000000  0.5396670000000  0.5847650000000 1.0
C      1  0.5761580000000  0.5730210000000  0.5120720000000 1.0
C      1  0.5304840000000  0.5007350000000  0.5834000000000 1.0
C      1  0.5589140000000  0.4196780000000  0.4575020000000 1.0
C      1  0.6143670000000  0.5293490000000  0.5881810000000 1.0
C      1  0.5227370000000  0.4535520000000  0.4380940000000 1.0
C      1  0.5543250000000  0.4403920000000  0.4835210000000 1.0
C      1  0.5143970000000  0.5946250000000  0.5135910000000 1.0
C      1  0.4485180000000  0.4655750000000  0.5358650000000 1.0
C      1  0.4590040000000  0.5616390000000  0.4407650000000 1.0
C      1  0.5429130000000  0.5731270000000  0.4380920000000 1.0
C      1  0.5218200000000  0.4931740000000  0.4021520000000 1.0
C      1  0.4306140000000  0.5278230000000  0.4878850000000 1.0
C      1  0.4832040000000  0.5800720000000  0.5501800000000 1.0
C      1  0.5285230000000  0.5254760000000  0.5298320000000 1.0
C      1  0.5547620000000  0.5239460000000  0.5082630000000 1.0
C      1  0.5669580000000  0.5754840000000  0.5431250000000 1.0
C      1  0.6036400000000  0.4785770000000  0.4554100000000 1.0
C      1  0.4414580000000  0.4983360000000  0.5009180000000 1.0
C      1  0.5482400000000  0.5203520000000  0.5928490000000 1.0
C      1  0.6026650000000  0.4278670000000  0.4986760000000 1.0
C      1  0.4661640000000  0.4851560000000  0.5202690000000 1.0
C      1  0.3951160000000  0.4657900000000  0.5200960000000 1.0
C      1  0.5637990000000  0.5206630000000  0.4227650000000 1.0
C      1  0.5229940000000  0.5551900000000  0.5770300000000 1.0
C      1  0.5790710000000  0.5003590000000  0.5113040000000 1.0
C      1  0.4663490000000  0.4591840000000  0.4435460000000 1.0
C      1  0.3850910000000  0.5093370000000  0.5018330000000 1.0
C      1  0.5791000000000  0.4450910000000  0.4527360000000 1.0
C      1  0.4839740000000  0.5024850000000  0.5436980000000 1.0
C      1  0.5282830000000  0.4103230000000  0.4654540000000 1.0
C      1  0.4114160000000  0.4424550000000  0.5609950000000 1.0
C      1  0.4401060000000  0.4484710000000  0.4895530000000 1.0
C      1  0.5913900000000  0.5300260000000  0.5742490000000 1.0
C      1  0.4240110000000  0.4248090000000  0.4777000000000 1.0
C      1  0.5250520000000  0.5575850000000  0.4937280000000 1.0
C      1  0.5048180000000  0.4665670000000  0.3895070000000 1.0
C      1  0.6006710000000  0.4732660000000  0.4880770000000 1.0
C      1  0.4776910000000  0.5630530000000  0.5260390000000 1.0
C      1  0.4342270000000  0.5849570000000  0.4915300000000 1.0
C      1  0.4122170000000  0.4576340000000  0.4414270000000 1.0
C      1  0.4886820000000  0.4293040000000  0.5394270000000 1.0
C      1  0.4228950000000  0.4747140000000  0.4849320000000 1.0
C      1  0.4351670000000  0.4931960000000  0.4024410000000 1.0
C      1  0.4401000000000  0.5161280000000  0.5700760000000 1.0
C      1  0.5036000000000  0.4039520000000  0.5243600000000 1.0
C      1  0.5477890000000  0.4580520000000  0.4558150000000 1.0
C      1  0.4753540000000  0.5502830000000  0.5915270000000 1.0
C      1  0.4313850000000  0.5559170000000  0.5070360000000 1.0
C      1  0.4499680000000  0.5343730000000  0.4245230000000 1.0
C      1  0.5885080000000  0.5196240000000  0.5483590000000 1.0
C      1  0.5406450000000  0.4776080000000  0.4805440000000 1.0
C      1  0.5763700000000  0.5944200000000  0.4660010000000 1.0
C      1  0.5800610000000  0.4963540000000  0.4384130000000 1.0
C      1  0.5387360000000  0.5165450000000  0.4050660000000 1.0
C      1  0.5080230000000  0.4516450000000  0.5881830000000 1.0
C      1  0.5703030000000  0.4613670000000  0.5792600000000 1.0
C      1  0.4066960000000  0.4934380000000  0.6011870000000 1.0
C      1  0.4914470000000  0.5026600000000  0.3997250000000 1.0
C      1  0.4714510000000  0.3940530000000  0.4392970000000 1.0
C      1  0.3905440000000  0.5324600000000  0.4887280000000 1.0
C      1  0.4678700000000  0.3985480000000  0.5068970000000 1.0
C      1  0.4954060000000  0.5498610000000  0.4789510000000 1.0
C      1  0.4803600000000  0.4609830000000  0.3888620000000 1.0
C      1  0.4839460000000  0.5185780000000  0.5928800000000 1.0
C      1  0.4670290000000  0.4712050000000  0.5617700000000 1.0
C      1  0.5075450000000  0.5327790000000  0.5756670000000 1.0
C      1  0.5393500000000  0.4401000000000  0.4143410000000 1.0
C      1  0.5702600000000  0.5488380000000  0.4660930000000 1.0
C      1  0.5080850000000  0.4706060000000  0.5628600000000 1.0
C      1  0.6170320000000  0.4912210000000  0.5027170000000 1.0
C      1  0.5269000000000  0.5104190000000  0.4506140000000 1.0
C      1  0.4114220000000  0.4955430000000  0.5166510000000 1.0
C      1  0.5795110000000  0.5365100000000  0.5279340000000 1.0
C      1  0.4288270000000  0.6176590000000  0.4887220000000 1.0
C      1  0.4721230000000  0.5050440000000  0.4546200000000 1.0
C      1  0.4968310000000  0.5132240000000  0.5070480000000 1.0
C      1  0.5154800000000  0.4084920000000  0.4933650000000 1.0
C      1  0.4542780000000  0.5183970000000  0.5389900000000 1.0
C      1  0.4992830000000  0.4801110000000  0.5144640000000 1.0
C      1  0.5111610000000  0.4840340000000  0.4332620000000 1.0
C      1  0.4854610000000  0.4006830000000  0.4865690000000 1.0
C      1  0.5764640000000  0.4656590000000  0.4289970000000 1.0
C      1  0.3995180000000  0.5528040000000  0.5044970000000 1.0
C      1  0.5105660000000  0.5321470000000  0.4327230000000 1.0
C      1  0.5436370000000  0.5521360000000  0.5346370000000 1.0
C      1  0.4319740000000  0.4927240000000  0.5390930000000 1.0
C      1  0.5573470000000  0.5536710000000  0.4936000000000 1.0
C      1  0.5376310000000  0.4159870000000  0.4327510000000 1.0
C      1  0.5343870000000  0.4800040000000  0.5496020000000 1.0
C      1  0.4912540000000  0.5543540000000  0.4487260000000 1.0
C      1  0.5620050000000  0.4768320000000  0.5594130000000 1.0
C      1  0.4404020000000  0.4455510000000  0.4302190000000 1.0
C      1  0.5155690000000  0.4827230000000  0.5998260000000 1.0
C      1  0.4957960000000  0.4974390000000  0.6124450000000 1.0
C      1  0.4059740000000  0.5307720000000  0.4620380000000 1.0
C      1  0.5104830000000  0.4708530000000  0.4855740000000 1.0
C      1  0.4971400000000  0.4425700000000  0.4813270000000 1.0
C      1  0.6041530000000  0.5209070000000  0.5006290000000 1.0
C      1  0.4601260000000  0.4843530000000  0.4758780000000 1.0
C      1  0.5710790000000  0.5193810000000  0.4617680000000 1.0
C      1  0.4568720000000  0.4207990000000  0.5620240000000 1.0
C      1  0.4808910000000  0.4437990000000  0.6007260000000 1.0
C      1  0.5277440000000  0.5836670000000  0.5635200000000 1.0
C      1  0.5817540000000  0.4602780000000  0.5290170000000 1.0
C      1  0.4117660000000  0.4199260000000  0.5034460000000 1.0
C      1  0.5060080000000  0.5176450000000  0.4764540000000 1.0
C      1  0.4526970000000  0.4667380000000  0.4071320000000 1.0
C      1  0.4882100000000  0.5592250000000  0.4142010000000 1.0
C      1  0.4853520000000  0.5331440000000  0.4008490000000 1.0
C      1  0.5832630000000  0.4902980000000  0.5413250000000 1.0
C      1  0.4129510000000  0.4786080000000  0.4585950000000 1.0
C      1  0.4272050000000  0.4221130000000  0.4509450000000 1.0
C      1  0.4209330000000  0.5563500000000  0.4517440000000 1.0
C      1  0.4409760000000  0.4416630000000  0.5198390000000 1.0
C      1  0.4495680000000  0.5510850000000  0.5308750000000 1.0
C      1  0.5044570000000  0.5443220000000  0.5173410000000 1.0
C      1  0.5840580000000  0.4311200000000  0.5210450000000 1.0
C      1  0.5393010000000  0.5806920000000  0.5253440000000 1.0
C      1  0.3947530000000  0.4269260000000  0.5761700000000 1.0
C      1  0.4397630000000  0.5079950000000  0.4623650000000 1.0
C      1  0.6007120000000  0.5511080000000  0.5097770000000 1.0
C      1  0.4303380000000  0.5141960000000  0.4193580000000 1.0
C      1  0.5064730000000  0.4313490000000  0.4524370000000 1.0
C      1  0.4841450000000  0.4078690000000  0.4591540000000 1.0
C      1  0.5397400000000  0.5446590000000  0.4243050000000 1.0
C      1  0.5172060000000  0.4378890000000  0.5086080000000 1.0
C      1  0.4788510000000  0.4817200000000  0.4229090000000 1.0
C      1  0.3738370000000  0.4833730000000  0.5112710000000 1.0
END
