TITL C-2848494-1720-486 0.000567077046874593 125000 -698.646912421447 0 0 129 (C1) n - 1
REM
REM in /home/bkarasulu/work/CARBON/AIRSS/Generating-Clusters/AIREBO/with-SteepDescent/Only-C1/SD-CG-opt/Try1-1.4A-POS3A/HFTN-CG
REM
REM
REM
REM
REM
REM ./C.cell (11c1c37f851c82e70ff6c80c92926a4b)
REM
REM compiler GCC version 9.2.1 20190827 (Red Hat 9.2.1-1)
REM options -cpp -mtune=generic -march=x86-64 -g -O0 -fpre-include=/usr/include/finclude/math-vector-fortran.h
REM seed 1493436838 1166721872 -1006362597 558968058 1894212998 -662980995 -331323793 -384251453 -1483257802 175384837 -813094248 1689386569 996587092 -1286157122 -820321253 -931492867 -1993247928 425339553 927645203 -994249737 -119761421 709074043 -21978094 1004789987 -764450679 -504721844 391606714 131328606 -616113068 -1721772348 180405210 1889512013 74087859
REM
CELL 1.54180   50.00000   50.00000   50.00000   90.00000   90.00000   90.00000
LATT -1
SFAC C  
C      1  0.5761100000000  0.4512720000000  0.4540470000000 1.0
C      1  0.4560650000000  0.4780830000000  0.4432080000000 1.0
C      1  0.5223640000000  0.4127770000000  0.5737530000000 1.0
C      1  0.5123890000000  0.4615780000000  0.5929050000000 1.0
C      1  0.5608220000000  0.5012470000000  0.5023680000000 1.0
C      1  0.4981930000000  0.4741420000000  0.5445490000000 1.0
C      1  0.4894330000000  0.3974940000000  0.4667210000000 1.0
C      1  0.4966980000000  0.5257950000000  0.3985540000000 1.0
C      1  0.5534860000000  0.5825240000000  0.5324910000000 1.0
C      1  0.5127460000000  0.4940940000000  0.5017080000000 1.0
C      1  0.5504530000000  0.4473410000000  0.4931140000000 1.0
C      1  0.5208840000000  0.4903800000000  0.6051720000000 1.0
C      1  0.4859790000000  0.4561170000000  0.4627450000000 1.0
C      1  0.5024790000000  0.4350020000000  0.5836860000000 1.0
C      1  0.6007500000000  0.5102870000000  0.5181100000000 1.0
C      1  0.4850540000000  0.4415660000000  0.4335950000000 1.0
C      1  0.5230280000000  0.4027440000000  0.4668360000000 1.0
C      1  0.4535200000000  0.5813210000000  0.5333040000000 1.0
C      1  0.4080400000000  0.4548640000000  0.4983440000000 1.0
C      1  0.4881350000000  0.4874090000000  0.4496150000000 1.0
C      1  0.4587800000000  0.4426470000000  0.4199150000000 1.0
C      1  0.4705460000000  0.5509590000000  0.4736170000000 1.0
C      1  0.4543100000000  0.5665520000000  0.5065500000000 1.0
C      1  0.5299840000000  0.5168160000000  0.4361700000000 1.0
C      1  0.4649120000000  0.5158250000000  0.5101520000000 1.0
C      1  0.5299860000000  0.5688410000000  0.4288600000000 1.0
C      1  0.5158710000000  0.5388600000000  0.5027630000000 1.0
C      1  0.4133700000000  0.5597950000000  0.4965870000000 1.0
C      1  0.4820890000000  0.4905880000000  0.5037440000000 1.0
C      1  0.5185550000000  0.5258440000000  0.5304330000000 1.0
C      1  0.4103560000000  0.4680860000000  0.5359260000000 1.0
C      1  0.4794010000000  0.5957830000000  0.5357930000000 1.0
C      1  0.5482440000000  0.4016540000000  0.4594790000000 1.0
C      1  0.5234150000000  0.4921490000000  0.5305320000000 1.0
C      1  0.4397550000000  0.5652400000000  0.4758320000000 1.0
C      1  0.5311410000000  0.4876110000000  0.4184840000000 1.0
C      1  0.4933920000000  0.5441260000000  0.5835450000000 1.0
C      1  0.4491180000000  0.5608680000000  0.5521900000000 1.0
C      1  0.4488640000000  0.4820010000000  0.5240300000000 1.0
C      1  0.5333730000000  0.4577570000000  0.4702810000000 1.0
C      1  0.4321240000000  0.5384990000000  0.5609320000000 1.0
C      1  0.4238190000000  0.4947500000000  0.5431710000000 1.0
C      1  0.5336780000000  0.5562300000000  0.4033480000000 1.0
C      1  0.4671030000000  0.4623310000000  0.5426990000000 1.0
C      1  0.5195080000000  0.4804530000000  0.4490430000000 1.0
C      1  0.5683830000000  0.5233650000000  0.5533970000000 1.0
C      1  0.5008820000000  0.4279540000000  0.4746080000000 1.0
C      1  0.5035780000000  0.5729600000000  0.4361950000000 1.0
C      1  0.4509190000000  0.5157840000000  0.4318700000000 1.0
C      1  0.5799020000000  0.4563370000000  0.5622920000000 1.0
C      1  0.5964350000000  0.4602780000000  0.4972180000000 1.0
C      1  0.4602150000000  0.5917020000000  0.4820090000000 1.0
C      1  0.5076520000000  0.5862640000000  0.5192330000000 1.0
C      1  0.5681480000000  0.5367030000000  0.4597100000000 1.0
C      1  0.4990460000000  0.4126700000000  0.4378140000000 1.0
C      1  0.4854210000000  0.4319430000000  0.5227570000000 1.0
C      1  0.4269890000000  0.5634460000000  0.4485020000000 1.0
C      1  0.4678980000000  0.5375790000000  0.5432830000000 1.0
C      1  0.5536590000000  0.4812070000000  0.5269520000000 1.0
C      1  0.5782880000000  0.5314830000000  0.5218260000000 1.0
C      1  0.5243980000000  0.5444290000000  0.5861530000000 1.0
C      1  0.5194660000000  0.4944890000000  0.5714420000000 1.0
C      1  0.5226970000000  0.5301350000000  0.4057390000000 1.0
C      1  0.4531560000000  0.5270790000000  0.4831280000000 1.0
C      1  0.4428560000000  0.4259690000000  0.4802330000000 1.0
C      1  0.5416380000000  0.4536240000000  0.5189150000000 1.0
C      1  0.5618750000000  0.4208220000000  0.4467670000000 1.0
C      1  0.4044260000000  0.5444100000000  0.4375060000000 1.0
C      1  0.5175690000000  0.4381210000000  0.4242700000000 1.0
C      1  0.4581620000000  0.4561100000000  0.4764950000000 1.0
C      1  0.5079350000000  0.4670130000000  0.4848200000000 1.0
C      1  0.5192900000000  0.5497420000000  0.5529540000000 1.0
C      1  0.5494890000000  0.4188240000000  0.5773360000000 1.0
C      1  0.4235800000000  0.4779510000000  0.4498210000000 1.0
C      1  0.5581230000000  0.5788440000000  0.5056560000000 1.0
C      1  0.4857680000000  0.5988680000000  0.4778690000000 1.0
C      1  0.4019050000000  0.5443000000000  0.5127290000000 1.0
C      1  0.5822150000000  0.5202900000000  0.4427050000000 1.0
C      1  0.3867200000000  0.4595560000000  0.5422980000000 1.0
C      1  0.5435350000000  0.4995690000000  0.4621590000000 1.0
C      1  0.5717780000000  0.4818490000000  0.4689140000000 1.0
C      1  0.4867930000000  0.4855420000000  0.5745040000000 1.0
C      1  0.5471900000000  0.5155730000000  0.5705520000000 1.0
C      1  0.5453990000000  0.4496750000000  0.4395190000000 1.0
C      1  0.5071980000000  0.5855040000000  0.4887420000000 1.0
C      1  0.4775110000000  0.5088640000000  0.4177770000000 1.0
C      1  0.5775860000000  0.4778390000000  0.5451310000000 1.0
C      1  0.4462120000000  0.5195740000000  0.5761330000000 1.0
C      1  0.4535160000000  0.4834270000000  0.4899320000000 1.0
C      1  0.5592670000000  0.4757890000000  0.4227120000000 1.0
C      1  0.4890490000000  0.5631540000000  0.5358620000000 1.0
C      1  0.5204750000000  0.5615890000000  0.4704370000000 1.0
C      1  0.5921180000000  0.4917020000000  0.4941730000000 1.0
C      1  0.5321870000000  0.5129320000000  0.4880530000000 1.0
C      1  0.4933900000000  0.5479260000000  0.4550540000000 1.0
C      1  0.5770920000000  0.4457180000000  0.4850680000000 1.0
C      1  0.5443370000000  0.5542130000000  0.4925150000000 1.0
C      1  0.4202780000000  0.5236000000000  0.4199610000000 1.0
C      1  0.5756440000000  0.4926920000000  0.4393700000000 1.0
C      1  0.5355520000000  0.5670410000000  0.5989560000000 1.0
C      1  0.4766970000000  0.5179040000000  0.5772460000000 1.0
C      1  0.4350220000000  0.4458580000000  0.4539850000000 1.0
C      1  0.5905040000000  0.5026320000000  0.5460620000000 1.0
C      1  0.4833490000000  0.4789840000000  0.4092390000000 1.0
C      1  0.4850450000000  0.5665000000000  0.5694630000000 1.0
C      1  0.4942230000000  0.4607240000000  0.5135510000000 1.0
C      1  0.4369190000000  0.4934420000000  0.5715500000000 1.0
C      1  0.5207420000000  0.4489260000000  0.5410670000000 1.0
C      1  0.4105000000000  0.4599630000000  0.4724920000000 1.0
C      1  0.5079470000000  0.4671760000000  0.4131800000000 1.0
C      1  0.5323490000000  0.4629270000000  0.5669480000000 1.0
C      1  0.4329160000000  0.4521200000000  0.5193520000000 1.0
C      1  0.4408650000000  0.5360560000000  0.5132790000000 1.0
C      1  0.4868360000000  0.5533560000000  0.5033650000000 1.0
C      1  0.5567850000000  0.4457480000000  0.5730880000000 1.0
C      1  0.5348560000000  0.5174200000000  0.6000290000000 1.0
C      1  0.4558480000000  0.4750130000000  0.5802830000000 1.0
C      1  0.4534250000000  0.4304570000000  0.5113440000000 1.0
C      1  0.4781070000000  0.4142130000000  0.4945150000000 1.0
C      1  0.4186440000000  0.5255850000000  0.5350260000000 1.0
C      1  0.5005510000000  0.4247840000000  0.5506010000000 1.0
C      1  0.5416770000000  0.5463580000000  0.4483430000000 1.0
C      1  0.4698790000000  0.5039390000000  0.5393730000000 1.0
C      1  0.4495640000000  0.5046070000000  0.4634710000000 1.0
C      1  0.4993860000000  0.5151710000000  0.5520720000000 1.0
C      1  0.5665760000000  0.5328060000000  0.4910440000000 1.0
C      1  0.4425420000000  0.5477010000000  0.4273090000000 1.0
C      1  0.5281870000000  0.5757850000000  0.5402280000000 1.0
C      1  0.4969490000000  0.5195200000000  0.4435630000000 1.0
END
