TITL C-2848503-6230-66 -0.00116630068389645 125000 -220.52730479477 0 0 44 (C1) n - 1
REM
REM in /home/bkarasulu/work/CARBON/AIRSS/Generating-Clusters/AIREBO/with-SteepDescent/Only-C1/SD-CG-opt/Try1-1.4A-POS3A/HFTN-CG
REM
REM
REM
REM
REM
REM ./C.cell (11c1c37f851c82e70ff6c80c92926a4b)
REM
REM compiler GCC version 9.2.1 20190827 (Red Hat 9.2.1-1)
REM options -cpp -mtune=generic -march=x86-64 -g -O0 -fpre-include=/usr/include/finclude/math-vector-fortran.h
REM seed -114013053 -2018766976 887674319 1145305641 1087703878 1217726955 -1860958951 1512427492 -1706685893 409375504 2051237289 -2003502542 -778545206 1646320083 -1728651600 -452619531 -1459960682 -1094382662 -1201758105 -511037461 -1439060068 1267502046 1037169168 -136481911 -2067621975 -882221885 -1065455200 -1343815278 -2015905325 -102110915 946582317 -247410787 2094458321
REM
CELL 1.54180   50.00000   50.00000   50.00000   90.00000   90.00000   90.00000
LATT -1
SFAC C  
C      1  0.4660080000000  0.4969130000000  0.5470440000000 1.0
C      1  0.5498120000000  0.5557610000000  0.4778680000000 1.0
C      1  0.4842700000000  0.4506670000000  0.4931100000000 1.0
C      1  0.4744770000000  0.5409650000000  0.5163010000000 1.0
C      1  0.5260870000000  0.4810770000000  0.5320410000000 1.0
C      1  0.5219190000000  0.5320460000000  0.5299450000000 1.0
C      1  0.4692270000000  0.4932620000000  0.5133930000000 1.0
C      1  0.4891220000000  0.4456960000000  0.5395510000000 1.0
C      1  0.4448960000000  0.5247480000000  0.5101300000000 1.0
C      1  0.4306270000000  0.4934670000000  0.5035520000000 1.0
C      1  0.5319740000000  0.5231030000000  0.4632160000000 1.0
C      1  0.4907630000000  0.5034820000000  0.4444150000000 1.0
C      1  0.4941650000000  0.5068160000000  0.4780980000000 1.0
C      1  0.5481580000000  0.4771710000000  0.4471670000000 1.0
C      1  0.5538080000000  0.4791480000000  0.4750160000000 1.0
C      1  0.4890180000000  0.5658320000000  0.5226910000000 1.0
C      1  0.5055830000000  0.4666590000000  0.5493180000000 1.0
C      1  0.5442140000000  0.4589580000000  0.4901790000000 1.0
C      1  0.5298900000000  0.5543340000000  0.4550220000000 1.0
C      1  0.4463830000000  0.4705630000000  0.5243000000000 1.0
C      1  0.5160000000000  0.5594740000000  0.5286680000000 1.0
C      1  0.4940580000000  0.5141310000000  0.5235910000000 1.0
C      1  0.4811590000000  0.5059240000000  0.4169740000000 1.0
C      1  0.4978670000000  0.5373950000000  0.5769200000000 1.0
C      1  0.5300400000000  0.4690190000000  0.4220040000000 1.0
C      1  0.4906370000000  0.5163350000000  0.5575310000000 1.0
C      1  0.5137750000000  0.4949690000000  0.5035330000000 1.0
C      1  0.5048130000000  0.5338240000000  0.4506000000000 1.0
C      1  0.4904860000000  0.4844540000000  0.5648160000000 1.0
C      1  0.4706140000000  0.5262250000000  0.4879360000000 1.0
C      1  0.5327910000000  0.4367480000000  0.5077530000000 1.0
C      1  0.5399120000000  0.5120220000000  0.5347510000000 1.0
C      1  0.5116080000000  0.4616730000000  0.4969080000000 1.0
C      1  0.4771560000000  0.4276420000000  0.4688280000000 1.0
C      1  0.5416650000000  0.5050840000000  0.4867070000000 1.0
C      1  0.4780320000000  0.5907340000000  0.5214300000000 1.0
C      1  0.4372280000000  0.5030660000000  0.5350040000000 1.0
C      1  0.4555460000000  0.4978140000000  0.4826000000000 1.0
C      1  0.5599560000000  0.5327640000000  0.4898810000000 1.0
C      1  0.5193710000000  0.4898300000000  0.4450140000000 1.0
C      1  0.5573860000000  0.4878530000000  0.5439760000000 1.0
C      1  0.4708250000000  0.4504830000000  0.5195400000000 1.0
C      1  0.4670460000000  0.4841230000000  0.4592060000000 1.0
C      1  0.4716300000000  0.4577490000000  0.4634720000000 1.0
END
