TITL C-2848498-1409-168 0.00153760435449674 125000 -1023.87156458044 0 0 186 (C1) n - 1
REM
REM in /home/bkarasulu/work/CARBON/AIRSS/Generating-Clusters/AIREBO/with-SteepDescent/Only-C1/SD-CG-opt/Try1-1.4A-POS3A/HFTN-CG
REM
REM
REM
REM
REM
REM ./C.cell (11c1c37f851c82e70ff6c80c92926a4b)
REM
REM compiler GCC version 9.2.1 20190827 (Red Hat 9.2.1-1)
REM options -cpp -mtune=generic -march=x86-64 -g -O0 -fpre-include=/usr/include/finclude/math-vector-fortran.h
REM seed 191627000 -1576188668 1986037604 1120968024 -249593543 -470092302 1958367568 -1302961561 1669039130 -576431515 -1838165809 -786092291 483560503 -258841010 384773838 -2125350812 -1391308521 984136585 -1454563171 1926614989 1496021244 -180608688 653552832 200998204 420481673 1976039611 1223168801 1611776103 -748733816 -246424599 79996189 -1624229817 638199355
REM
CELL 1.54180   50.00000   50.00000   50.00000   90.00000   90.00000   90.00000
LATT -1
SFAC C  
C      1  0.4494130000000  0.4912590000000  0.5562510000000 1.0
C      1  0.5594790000000  0.5811560000000  0.4444470000000 1.0
C      1  0.5722440000000  0.5008010000000  0.5834620000000 1.0
C      1  0.4694870000000  0.5176520000000  0.4343110000000 1.0
C      1  0.4436640000000  0.4936660000000  0.4688770000000 1.0
C      1  0.5305370000000  0.6101880000000  0.5324020000000 1.0
C      1  0.4511320000000  0.5587810000000  0.5782710000000 1.0
C      1  0.6003600000000  0.5554830000000  0.5112620000000 1.0
C      1  0.5593750000000  0.4625750000000  0.4151290000000 1.0
C      1  0.5266520000000  0.5724660000000  0.4461930000000 1.0
C      1  0.4051910000000  0.4437670000000  0.5238970000000 1.0
C      1  0.5125230000000  0.4533230000000  0.4535040000000 1.0
C      1  0.4548820000000  0.4983150000000  0.4016120000000 1.0
C      1  0.4658730000000  0.3988540000000  0.5054790000000 1.0
C      1  0.4556650000000  0.6118440000000  0.5277930000000 1.0
C      1  0.5024450000000  0.4489780000000  0.4234550000000 1.0
C      1  0.4809160000000  0.4880890000000  0.5470710000000 1.0
C      1  0.4822290000000  0.4391270000000  0.4564980000000 1.0
C      1  0.4336210000000  0.4881210000000  0.5077190000000 1.0
C      1  0.4674470000000  0.5657550000000  0.5424280000000 1.0
C      1  0.4764360000000  0.4372690000000  0.6254370000000 1.0
C      1  0.5448030000000  0.4946080000000  0.5085940000000 1.0
C      1  0.4783020000000  0.5306230000000  0.4043070000000 1.0
C      1  0.4328730000000  0.5092620000000  0.4213390000000 1.0
C      1  0.5884630000000  0.4714810000000  0.4532690000000 1.0
C      1  0.5309160000000  0.4773070000000  0.6063420000000 1.0
C      1  0.4654510000000  0.4721940000000  0.4731940000000 1.0
C      1  0.4561550000000  0.5855010000000  0.5787030000000 1.0
C      1  0.5542480000000  0.5008370000000  0.4389990000000 1.0
C      1  0.5076840000000  0.5301550000000  0.6001390000000 1.0
C      1  0.4327380000000  0.5021890000000  0.5348560000000 1.0
C      1  0.4203220000000  0.5892510000000  0.4544120000000 1.0
C      1  0.4205580000000  0.4639150000000  0.5539400000000 1.0
C      1  0.5043760000000  0.5958100000000  0.4886480000000 1.0
C      1  0.5021030000000  0.4177410000000  0.5755190000000 1.0
C      1  0.5537880000000  0.4582060000000  0.5316540000000 1.0
C      1  0.5129480000000  0.6176730000000  0.5131890000000 1.0
C      1  0.4449890000000  0.5769140000000  0.5007000000000 1.0
C      1  0.4257460000000  0.4844230000000  0.4434430000000 1.0
C      1  0.5217700000000  0.4554060000000  0.4035560000000 1.0
C      1  0.4791310000000  0.5370190000000  0.5316720000000 1.0
C      1  0.5137000000000  0.4233830000000  0.5014210000000 1.0
C      1  0.5198020000000  0.4524110000000  0.6003910000000 1.0
C      1  0.5740480000000  0.4252560000000  0.5601020000000 1.0
C      1  0.4922480000000  0.5093810000000  0.5042270000000 1.0
C      1  0.4272290000000  0.4466750000000  0.5012220000000 1.0
C      1  0.5654350000000  0.4685200000000  0.5013890000000 1.0
C      1  0.4377980000000  0.5501640000000  0.5484410000000 1.0
C      1  0.5724470000000  0.5544190000000  0.4982850000000 1.0
C      1  0.4832420000000  0.5184650000000  0.5556520000000 1.0
C      1  0.5192430000000  0.4923620000000  0.6268360000000 1.0
C      1  0.5643720000000  0.4189190000000  0.5042840000000 1.0
C      1  0.5526600000000  0.4257010000000  0.5354880000000 1.0
C      1  0.4200230000000  0.5254410000000  0.5646430000000 1.0
C      1  0.4813210000000  0.6103020000000  0.5090780000000 1.0
C      1  0.5032350000000  0.3993950000000  0.4454190000000 1.0
C      1  0.4077280000000  0.5196890000000  0.4398460000000 1.0
C      1  0.5972950000000  0.5142350000000  0.5330230000000 1.0
C      1  0.5305890000000  0.4177000000000  0.4513630000000 1.0
C      1  0.5227270000000  0.4290120000000  0.5512890000000 1.0
C      1  0.4269050000000  0.4766090000000  0.5813680000000 1.0
C      1  0.5137170000000  0.5023830000000  0.4223840000000 1.0
C      1  0.5752130000000  0.5319710000000  0.5311970000000 1.0
C      1  0.5927200000000  0.4381500000000  0.4608210000000 1.0
C      1  0.5825500000000  0.4774520000000  0.4234110000000 1.0
C      1  0.5336040000000  0.4906520000000  0.5819540000000 1.0
C      1  0.5266070000000  0.5205080000000  0.5764350000000 1.0
C      1  0.6130660000000  0.4549960000000  0.4822560000000 1.0
C      1  0.5066050000000  0.3944710000000  0.5280310000000 1.0
C      1  0.5265970000000  0.5316290000000  0.4131650000000 1.0
C      1  0.5497970000000  0.4322630000000  0.4271890000000 1.0
C      1  0.4773640000000  0.4864830000000  0.4462140000000 1.0
C      1  0.4628920000000  0.4800390000000  0.5207280000000 1.0
C      1  0.5573540000000  0.5237320000000  0.5788040000000 1.0
C      1  0.6149690000000  0.5041000000000  0.4555750000000 1.0
C      1  0.4723560000000  0.5764690000000  0.4537570000000 1.0
C      1  0.5343690000000  0.5177600000000  0.4544790000000 1.0
C      1  0.5324030000000  0.5311370000000  0.4851210000000 1.0
C      1  0.5964990000000  0.4578940000000  0.5102790000000 1.0
C      1  0.5355270000000  0.5790510000000  0.5383180000000 1.0
C      1  0.4982390000000  0.5064510000000  0.6165810000000 1.0
C      1  0.6078690000000  0.5048000000000  0.4957360000000 1.0
C      1  0.5389700000000  0.4748210000000  0.4528810000000 1.0
C      1  0.5183780000000  0.5606280000000  0.5877180000000 1.0
C      1  0.4254170000000  0.4509020000000  0.4430870000000 1.0
C      1  0.5131200000000  0.5568290000000  0.5387410000000 1.0
C      1  0.4991640000000  0.5713100000000  0.4174340000000 1.0
C      1  0.5562790000000  0.5722990000000  0.5585720000000 1.0
C      1  0.5220020000000  0.4144870000000  0.4189410000000 1.0
C      1  0.5551340000000  0.5266450000000  0.5065170000000 1.0
C      1  0.4408750000000  0.5291200000000  0.5237410000000 1.0
C      1  0.4252270000000  0.5954680000000  0.4801570000000 1.0
C      1  0.5290610000000  0.5800830000000  0.5061170000000 1.0
C      1  0.4660500000000  0.4192800000000  0.4788880000000 1.0
C      1  0.4131100000000  0.4853960000000  0.4813430000000 1.0
C      1  0.5837750000000  0.5641730000000  0.5396840000000 1.0
C      1  0.4398800000000  0.4208160000000  0.4329100000000 1.0
C      1  0.4993100000000  0.5866150000000  0.4606670000000 1.0
C      1  0.5348040000000  0.4394490000000  0.5811440000000 1.0
C      1  0.4874480000000  0.5268180000000  0.4616960000000 1.0
C      1  0.4231500000000  0.5714770000000  0.5262080000000 1.0
C      1  0.5821850000000  0.4890460000000  0.4799330000000 1.0
C      1  0.5819680000000  0.5122820000000  0.4550960000000 1.0
C      1  0.3936360000000  0.5238570000000  0.5150420000000 1.0
C      1  0.4281800000000  0.6035130000000  0.5135950000000 1.0
C      1  0.4445790000000  0.5402630000000  0.4291020000000 1.0
C      1  0.5353370000000  0.4043300000000  0.5154850000000 1.0
C      1  0.4557090000000  0.5105600000000  0.5953560000000 1.0
C      1  0.4291660000000  0.5078100000000  0.5862640000000 1.0
C      1  0.4932010000000  0.5632460000000  0.5644840000000 1.0
C      1  0.4146970000000  0.4200850000000  0.4744550000000 1.0
C      1  0.5270250000000  0.5584720000000  0.4149610000000 1.0
C      1  0.5621150000000  0.4458750000000  0.5756270000000 1.0
C      1  0.4733540000000  0.4417960000000  0.5246530000000 1.0
C      1  0.4596340000000  0.5974360000000  0.5519860000000 1.0
C      1  0.5161010000000  0.5038030000000  0.5243360000000 1.0
C      1  0.4745750000000  0.4416300000000  0.3958330000000 1.0
C      1  0.4125930000000  0.4534130000000  0.4736880000000 1.0
C      1  0.4863650000000  0.5554880000000  0.5965870000000 1.0
C      1  0.5276750000000  0.4355340000000  0.4759760000000 1.0
C      1  0.4136120000000  0.5421070000000  0.4541450000000 1.0
C      1  0.4608300000000  0.5701140000000  0.4281840000000 1.0
C      1  0.5292710000000  0.5146950000000  0.3862330000000 1.0
C      1  0.5070560000000  0.4458620000000  0.5262310000000 1.0
C      1  0.5872600000000  0.5345100000000  0.4299120000000 1.0
C      1  0.5071980000000  0.4997890000000  0.4556670000000 1.0
C      1  0.4574120000000  0.4487050000000  0.4391720000000 1.0
C      1  0.4757060000000  0.5587220000000  0.4036570000000 1.0
C      1  0.4670010000000  0.4225530000000  0.5502320000000 1.0
C      1  0.5708380000000  0.5381980000000  0.4716910000000 1.0
C      1  0.4199410000000  0.5389720000000  0.5032540000000 1.0
C      1  0.5027560000000  0.5357340000000  0.4907440000000 1.0
C      1  0.4600460000000  0.4464830000000  0.4947960000000 1.0
C      1  0.6213250000000  0.4826780000000  0.4747560000000 1.0
C      1  0.5347960000000  0.4821470000000  0.4095890000000 1.0
C      1  0.5556590000000  0.4434660000000  0.4850710000000 1.0
C      1  0.5952760000000  0.4868050000000  0.5206620000000 1.0
C      1  0.4721170000000  0.4116460000000  0.4392250000000 1.0
C      1  0.4876890000000  0.4919090000000  0.4043720000000 1.0
C      1  0.4762220000000  0.4867740000000  0.6044210000000 1.0
C      1  0.4747470000000  0.5786390000000  0.5127420000000 1.0
C      1  0.4390390000000  0.4117160000000  0.4635950000000 1.0
C      1  0.5562540000000  0.5792620000000  0.4925530000000 1.0
C      1  0.4233170000000  0.5650380000000  0.4390920000000 1.0
C      1  0.5657590000000  0.4898000000000  0.5349690000000 1.0
C      1  0.6160400000000  0.5339230000000  0.5036830000000 1.0
C      1  0.4814830000000  0.4445180000000  0.5717990000000 1.0
C      1  0.4815670000000  0.4800690000000  0.4976660000000 1.0
C      1  0.4017640000000  0.5073880000000  0.5424510000000 1.0
C      1  0.5340970000000  0.4707440000000  0.5563780000000 1.0
C      1  0.5618940000000  0.4502530000000  0.4530650000000 1.0
C      1  0.4559780000000  0.5643660000000  0.4731950000000 1.0
C      1  0.4994960000000  0.5166270000000  0.3878980000000 1.0
C      1  0.4897590000000  0.4201700000000  0.4140940000000 1.0
C      1  0.4805630000000  0.4026110000000  0.5281150000000 1.0
C      1  0.4325330000000  0.5416160000000  0.4770900000000 1.0
C      1  0.3949900000000  0.5573040000000  0.5175150000000 1.0
C      1  0.4567310000000  0.5212950000000  0.4752270000000 1.0
C      1  0.4428140000000  0.4560150000000  0.5295290000000 1.0
C      1  0.5254490000000  0.4861340000000  0.4809460000000 1.0
C      1  0.3954060000000  0.4970020000000  0.4548150000000 1.0
C      1  0.5559630000000  0.5059200000000  0.4054070000000 1.0
C      1  0.4736450000000  0.4666280000000  0.4188600000000 1.0
C      1  0.4376700000000  0.4150860000000  0.5558880000000 1.0
C      1  0.4601790000000  0.4697950000000  0.5797790000000 1.0
C      1  0.4990030000000  0.3947700000000  0.5868100000000 1.0
C      1  0.4700740000000  0.5312280000000  0.5802960000000 1.0
C      1  0.4658210000000  0.5260380000000  0.5050910000000 1.0
C      1  0.5420460000000  0.5751630000000  0.5839780000000 1.0
C      1  0.3917510000000  0.4932250000000  0.5066280000000 1.0
C      1  0.5665040000000  0.4759930000000  0.5653420000000 1.0
C      1  0.4173940000000  0.4309420000000  0.5490730000000 1.0
C      1  0.5104840000000  0.4743150000000  0.5083120000000 1.0
C      1  0.4979950000000  0.4087930000000  0.4770010000000 1.0
C      1  0.4884600000000  0.4546310000000  0.6035110000000 1.0
C      1  0.5006190000000  0.5610580000000  0.5080360000000 1.0
C      1  0.5681860000000  0.5421990000000  0.5600180000000 1.0
C      1  0.5920320000000  0.4294190000000  0.4936180000000 1.0
C      1  0.5009360000000  0.5503160000000  0.4440860000000 1.0
C      1  0.5642180000000  0.5927630000000  0.4702800000000 1.0
C      1  0.5770620000000  0.5610270000000  0.4327820000000 1.0
C      1  0.5431790000000  0.5478670000000  0.4594170000000 1.0
C      1  0.5137550000000  0.5254140000000  0.5481020000000 1.0
C      1  0.5859960000000  0.5069990000000  0.4156740000000 1.0
C      1  0.3959990000000  0.4750680000000  0.5332250000000 1.0
C      1  0.5007890000000  0.4655120000000  0.5532750000000 1.0
END
