TITL C-2847951-7423-438 -0.00195838237681719 125000 -405.982933588592 0 0 75 (C1) n - 1
REM
REM in /home/bkarasulu/work/CARBON/AIRSS/Generating-Clusters/AIREBO/with-SteepDescent/Only-C1/SD-CG-opt/Try1-1.4A-POS3A/HFTN-CG
REM
REM
REM
REM
REM
REM ./C.cell (11c1c37f851c82e70ff6c80c92926a4b)
REM
REM compiler GCC version 9.2.1 20190827 (Red Hat 9.2.1-1)
REM options -cpp -mtune=generic -march=x86-64 -g -O0 -fpre-include=/usr/include/finclude/math-vector-fortran.h
REM seed -1946755672 983805838 -236589536 1103955296 1585259352 -1079249706 -570569124 34340795 -950964074 -685292375 26358374 113994566 769227921 1737978146 1470825145 -579325143 2139035485 -1046519733 -1814685979 -1092199076 1208050946 -1387153654 -1093365576 -399306068 1428274161 1019234238 599470466 1571692476 -1705641011 -1017701311 1621593847 1316987751 159108683
REM
CELL 1.54180   50.00000   50.00000   50.00000   90.00000   90.00000   90.00000
LATT -1
SFAC C  
C      1  0.4897600000000  0.4161400000000  0.5205280000000 1.0
C      1  0.5199330000000  0.4799050000000  0.4754270000000 1.0
C      1  0.4741560000000  0.4862320000000  0.4957070000000 1.0
C      1  0.4961270000000  0.5122410000000  0.4895470000000 1.0
C      1  0.4277090000000  0.4605620000000  0.4929960000000 1.0
C      1  0.4261190000000  0.4779540000000  0.4638850000000 1.0
C      1  0.5561100000000  0.4630070000000  0.4123390000000 1.0
C      1  0.4737440000000  0.5124770000000  0.4110350000000 1.0
C      1  0.4699090000000  0.5649100000000  0.4500860000000 1.0
C      1  0.4442280000000  0.4806300000000  0.5523160000000 1.0
C      1  0.5450230000000  0.4771620000000  0.5368890000000 1.0
C      1  0.4705660000000  0.4997800000000  0.5266960000000 1.0
C      1  0.4563410000000  0.5136930000000  0.4864880000000 1.0
C      1  0.5008450000000  0.5252990000000  0.5889790000000 1.0
C      1  0.5241340000000  0.5041810000000  0.5324310000000 1.0
C      1  0.4286380000000  0.4945610000000  0.4918490000000 1.0
C      1  0.4829260000000  0.5635100000000  0.4772070000000 1.0
C      1  0.5003310000000  0.5698450000000  0.4965620000000 1.0
C      1  0.5135240000000  0.5516120000000  0.5211530000000 1.0
C      1  0.4799820000000  0.5532580000000  0.5264960000000 1.0
C      1  0.4967540000000  0.5362440000000  0.4434320000000 1.0
C      1  0.5117660000000  0.5132860000000  0.5590990000000 1.0
C      1  0.4862160000000  0.4762720000000  0.5777030000000 1.0
C      1  0.5079110000000  0.4602920000000  0.5565310000000 1.0
C      1  0.5332950000000  0.4450840000000  0.5397490000000 1.0
C      1  0.5745790000000  0.4776300000000  0.4773300000000 1.0
C      1  0.4974420000000  0.4179410000000  0.4909240000000 1.0
C      1  0.4629510000000  0.4578770000000  0.5107790000000 1.0
C      1  0.6084250000000  0.5117760000000  0.4514600000000 1.0
C      1  0.4790070000000  0.5038890000000  0.5796550000000 1.0
C      1  0.4466800000000  0.5582130000000  0.5320780000000 1.0
C      1  0.5059690000000  0.5510390000000  0.5701910000000 1.0
C      1  0.5824970000000  0.5039400000000  0.4575320000000 1.0
C      1  0.4639990000000  0.5353490000000  0.4343530000000 1.0
C      1  0.5165310000000  0.4913620000000  0.4281270000000 1.0
C      1  0.4499020000000  0.5052130000000  0.4303320000000 1.0
C      1  0.5248740000000  0.5107480000000  0.4722240000000 1.0
C      1  0.5523160000000  0.5559930000000  0.4849630000000 1.0
C      1  0.5205670000000  0.5233580000000  0.5096440000000 1.0
C      1  0.4962060000000  0.4990870000000  0.4056920000000 1.0
C      1  0.4372700000000  0.4720290000000  0.5235610000000 1.0
C      1  0.5489190000000  0.5268400000000  0.5543820000000 1.0
C      1  0.4057570000000  0.4808740000000  0.5192430000000 1.0
C      1  0.5631750000000  0.5058440000000  0.5392530000000 1.0
C      1  0.4737600000000  0.4360590000000  0.5299900000000 1.0
C      1  0.5211920000000  0.4238470000000  0.5153020000000 1.0
C      1  0.4795410000000  0.4447970000000  0.5549480000000 1.0
C      1  0.4780890000000  0.5322860000000  0.4715750000000 1.0
C      1  0.4531840000000  0.4382870000000  0.4875150000000 1.0
C      1  0.5209390000000  0.5195390000000  0.4434390000000 1.0
C      1  0.4483590000000  0.4847140000000  0.4481770000000 1.0
C      1  0.5273100000000  0.5488020000000  0.5497470000000 1.0
C      1  0.5046390000000  0.4736990000000  0.4995640000000 1.0
C      1  0.4576400000000  0.5108740000000  0.5561550000000 1.0
C      1  0.5043030000000  0.4735100000000  0.4493260000000 1.0
C      1  0.5543470000000  0.5569960000000  0.4282840000000 1.0
C      1  0.4895870000000  0.5644920000000  0.4255890000000 1.0
C      1  0.4771260000000  0.4289600000000  0.4742290000000 1.0
C      1  0.4855420000000  0.4474250000000  0.4554050000000 1.0
C      1  0.5125580000000  0.4760170000000  0.5268420000000 1.0
C      1  0.5506560000000  0.4192080000000  0.5316220000000 1.0
C      1  0.5464770000000  0.5262450000000  0.4888620000000 1.0
C      1  0.4738240000000  0.4780990000000  0.4626720000000 1.0
C      1  0.5621590000000  0.5066950000000  0.4352930000000 1.0
C      1  0.4899940000000  0.5239500000000  0.5374010000000 1.0
C      1  0.5807780000000  0.5097350000000  0.5189180000000 1.0
C      1  0.4554190000000  0.5413300000000  0.5556480000000 1.0
C      1  0.5381500000000  0.5150990000000  0.5804850000000 1.0
C      1  0.4268730000000  0.5279440000000  0.4925600000000 1.0
C      1  0.5277980000000  0.5172120000000  0.6080950000000 1.0
C      1  0.4812200000000  0.5584250000000  0.5597790000000 1.0
C      1  0.5471510000000  0.4858150000000  0.4243160000000 1.0
C      1  0.4592730000000  0.4622140000000  0.5684710000000 1.0
C      1  0.5713290000000  0.5092410000000  0.4894230000000 1.0
C      1  0.5476700000000  0.5313440000000  0.4335150000000 1.0
END
