TITL C-2848507-1641-348 0.000531631024880741 125000 -724.342668801256 0 0 136 (C1) n - 1
REM
REM in /home/bkarasulu/work/CARBON/AIRSS/Generating-Clusters/AIREBO/with-SteepDescent/Only-C1/SD-CG-opt/Try1-1.4A-POS3A/HFTN-CG
REM
REM
REM
REM
REM
REM ./C.cell (11c1c37f851c82e70ff6c80c92926a4b)
REM
REM compiler GCC version 9.2.1 20190827 (Red Hat 9.2.1-1)
REM options -cpp -mtune=generic -march=x86-64 -g -O0 -fpre-include=/usr/include/finclude/math-vector-fortran.h
REM seed -296702700 -1459461620 48853452 773763966 890343655 1750171005 -1931874929 141108646 1583446161 -1951045066 -2040006864 -1688497378 1779485430 -1735209892 -1296485300 1507983546 1697740701 836837376 -2061927071 -1204158890 656151687 -372190500 1878202377 -847102457 333507436 1131070301 -983367486 -1855138992 1979115145 -725135296 220987177 -738701996 -1295438228
REM
CELL 1.54180   50.00000   50.00000   50.00000   90.00000   90.00000   90.00000
LATT -1
SFAC C  
C      1  0.5667130000000  0.5140590000000  0.5501300000000 1.0
C      1  0.4849930000000  0.4253080000000  0.5785740000000 1.0
C      1  0.4155200000000  0.4646680000000  0.4698290000000 1.0
C      1  0.4887170000000  0.5151700000000  0.3996380000000 1.0
C      1  0.5137790000000  0.5660030000000  0.5282100000000 1.0
C      1  0.4529950000000  0.4210000000000  0.4796120000000 1.0
C      1  0.4850400000000  0.5711220000000  0.4276470000000 1.0
C      1  0.5443300000000  0.4395340000000  0.4399100000000 1.0
C      1  0.5023930000000  0.4555840000000  0.5311010000000 1.0
C      1  0.4374900000000  0.4822530000000  0.4281520000000 1.0
C      1  0.5326600000000  0.4391000000000  0.5600780000000 1.0
C      1  0.5113850000000  0.4227920000000  0.5306400000000 1.0
C      1  0.4841420000000  0.5896650000000  0.5389620000000 1.0
C      1  0.4779030000000  0.4246240000000  0.5249380000000 1.0
C      1  0.5450860000000  0.5623400000000  0.4978400000000 1.0
C      1  0.4744540000000  0.5542470000000  0.5781820000000 1.0
C      1  0.5025570000000  0.4050680000000  0.4859090000000 1.0
C      1  0.4423370000000  0.4679920000000  0.5439410000000 1.0
C      1  0.4690240000000  0.5326560000000  0.4962230000000 1.0
C      1  0.5119430000000  0.4590120000000  0.4529700000000 1.0
C      1  0.4084260000000  0.5466600000000  0.4813810000000 1.0
C      1  0.4443920000000  0.4713750000000  0.4989290000000 1.0
C      1  0.6049980000000  0.4752760000000  0.5479620000000 1.0
C      1  0.4466820000000  0.4310990000000  0.4477600000000 1.0
C      1  0.4752860000000  0.5019530000000  0.5813290000000 1.0
C      1  0.5087680000000  0.5299210000000  0.4210100000000 1.0
C      1  0.4839800000000  0.5754020000000  0.4836830000000 1.0
C      1  0.5609520000000  0.5465860000000  0.5176590000000 1.0
C      1  0.5123860000000  0.3968040000000  0.5099490000000 1.0
C      1  0.5242280000000  0.5444570000000  0.4825270000000 1.0
C      1  0.5081630000000  0.5208200000000  0.5152350000000 1.0
C      1  0.5158740000000  0.5610240000000  0.4328060000000 1.0
C      1  0.5411250000000  0.5794830000000  0.5354790000000 1.0
C      1  0.4283790000000  0.5145750000000  0.4228300000000 1.0
C      1  0.5397680000000  0.5304140000000  0.5373850000000 1.0
C      1  0.5066030000000  0.4178900000000  0.5639470000000 1.0
C      1  0.4452130000000  0.5630920000000  0.5740120000000 1.0
C      1  0.4351330000000  0.4319590000000  0.4992090000000 1.0
C      1  0.4998210000000  0.5898620000000  0.5087590000000 1.0
C      1  0.4109320000000  0.4616080000000  0.5476670000000 1.0
C      1  0.5096420000000  0.5294970000000  0.6031280000000 1.0
C      1  0.5480840000000  0.6002400000000  0.5192760000000 1.0
C      1  0.4481920000000  0.4564260000000  0.4251200000000 1.0
C      1  0.4863350000000  0.5081190000000  0.4845150000000 1.0
C      1  0.5052330000000  0.4960220000000  0.5693250000000 1.0
C      1  0.5516360000000  0.4954300000000  0.4378570000000 1.0
C      1  0.4145810000000  0.4709620000000  0.5152990000000 1.0
C      1  0.5345590000000  0.4607260000000  0.5338770000000 1.0
C      1  0.5287850000000  0.5113820000000  0.4906130000000 1.0
C      1  0.4325380000000  0.5553640000000  0.5021960000000 1.0
C      1  0.4973990000000  0.5647390000000  0.5580020000000 1.0
C      1  0.4825780000000  0.5311530000000  0.5938730000000 1.0
C      1  0.4940580000000  0.4825800000000  0.4077280000000 1.0
C      1  0.5170300000000  0.5968250000000  0.4803350000000 1.0
C      1  0.4549790000000  0.5187110000000  0.4019660000000 1.0
C      1  0.4420380000000  0.5005030000000  0.5859580000000 1.0
C      1  0.5839430000000  0.4953260000000  0.5313030000000 1.0
C      1  0.5095150000000  0.4954150000000  0.4675840000000 1.0
C      1  0.5454140000000  0.4224600000000  0.5355740000000 1.0
C      1  0.4630250000000  0.5483480000000  0.4409610000000 1.0
C      1  0.4526370000000  0.5342120000000  0.5479370000000 1.0
C      1  0.4606460000000  0.5849850000000  0.5146840000000 1.0
C      1  0.5416850000000  0.4498610000000  0.5896340000000 1.0
C      1  0.5388960000000  0.5533160000000  0.4531520000000 1.0
C      1  0.5286050000000  0.5256360000000  0.5837800000000 1.0
C      1  0.5365900000000  0.4839270000000  0.5090870000000 1.0
C      1  0.4973580000000  0.5504350000000  0.5024960000000 1.0
C      1  0.4786800000000  0.4676770000000  0.4540250000000 1.0
C      1  0.5186050000000  0.4677500000000  0.4851550000000 1.0
C      1  0.4540140000000  0.4473020000000  0.5209670000000 1.0
C      1  0.4749090000000  0.4820370000000  0.5017000000000 1.0
C      1  0.5712210000000  0.5230210000000  0.4345130000000 1.0
C      1  0.4585250000000  0.4743150000000  0.5707080000000 1.0
C      1  0.5010120000000  0.5827370000000  0.4551490000000 1.0
C      1  0.5369670000000  0.4450100000000  0.5038090000000 1.0
C      1  0.4920750000000  0.4424190000000  0.4356020000000 1.0
C      1  0.4403800000000  0.5677100000000  0.4573470000000 1.0
C      1  0.5447470000000  0.5008940000000  0.5724980000000 1.0
C      1  0.5692180000000  0.4954180000000  0.4632630000000 1.0
C      1  0.5605360000000  0.5427090000000  0.5684490000000 1.0
C      1  0.5368200000000  0.4697800000000  0.4324150000000 1.0
C      1  0.4301160000000  0.4965160000000  0.5299300000000 1.0
C      1  0.4424970000000  0.5261590000000  0.5164960000000 1.0
C      1  0.5320650000000  0.5203090000000  0.4427390000000 1.0
C      1  0.4981070000000  0.5011970000000  0.4358960000000 1.0
C      1  0.5680540000000  0.5445110000000  0.4508630000000 1.0
C      1  0.5811520000000  0.5535980000000  0.4737860000000 1.0
C      1  0.5401210000000  0.4227300000000  0.4607130000000 1.0
C      1  0.6061380000000  0.4323770000000  0.4894030000000 1.0
C      1  0.4781000000000  0.4511720000000  0.5756480000000 1.0
C      1  0.5804070000000  0.4596210000000  0.5489700000000 1.0
C      1  0.4751550000000  0.5255340000000  0.4575360000000 1.0
C      1  0.4487330000000  0.4585440000000  0.4677270000000 1.0
C      1  0.4807520000000  0.4255520000000  0.4915820000000 1.0
C      1  0.4355900000000  0.4998600000000  0.4825650000000 1.0
C      1  0.4650250000000  0.5006960000000  0.4280310000000 1.0
C      1  0.5670750000000  0.4717620000000  0.5135190000000 1.0
C      1  0.5622770000000  0.5623520000000  0.5454620000000 1.0
C      1  0.4395610000000  0.5332260000000  0.4773530000000 1.0
C      1  0.4089730000000  0.5115400000000  0.5519140000000 1.0
C      1  0.6082820000000  0.4953390000000  0.4886900000000 1.0
C      1  0.5269710000000  0.4736090000000  0.5793670000000 1.0
C      1  0.5897130000000  0.4801780000000  0.4732450000000 1.0
C      1  0.4738300000000  0.5450510000000  0.4088870000000 1.0
C      1  0.4103780000000  0.5311160000000  0.5265170000000 1.0
C      1  0.5005240000000  0.4652210000000  0.5603650000000 1.0
C      1  0.5972360000000  0.5113120000000  0.5083060000000 1.0
C      1  0.5803760000000  0.4548630000000  0.4871350000000 1.0
C      1  0.5231910000000  0.4720850000000  0.4041400000000 1.0
C      1  0.5566570000000  0.4757270000000  0.5529530000000 1.0
C      1  0.4755980000000  0.5141570000000  0.5498610000000 1.0
C      1  0.4593780000000  0.4954360000000  0.4588400000000 1.0
C      1  0.4089160000000  0.5118640000000  0.4999390000000 1.0
C      1  0.5759930000000  0.5798850000000  0.4795300000000 1.0
C      1  0.4126230000000  0.4477650000000  0.4937460000000 1.0
C      1  0.5106490000000  0.5176160000000  0.5478880000000 1.0
C      1  0.5785810000000  0.5327310000000  0.4971630000000 1.0
C      1  0.5831120000000  0.4191270000000  0.5038930000000 1.0
C      1  0.4627920000000  0.5639080000000  0.5382160000000 1.0
C      1  0.4941270000000  0.4140370000000  0.4416930000000 1.0
C      1  0.4319330000000  0.5364080000000  0.4443580000000 1.0
C      1  0.4840760000000  0.5017250000000  0.5234500000000 1.0
C      1  0.4247080000000  0.5536080000000  0.5485940000000 1.0
C      1  0.4675920000000  0.4056580000000  0.4432840000000 1.0
C      1  0.4306760000000  0.5195690000000  0.5693820000000 1.0
C      1  0.5146240000000  0.4088650000000  0.4610710000000 1.0
C      1  0.4040320000000  0.4917850000000  0.4727800000000 1.0
C      1  0.5593500000000  0.5140680000000  0.4814500000000 1.0
C      1  0.5280180000000  0.5504810000000  0.5621740000000 1.0
C      1  0.4917440000000  0.4563160000000  0.5013660000000 1.0
C      1  0.5050200000000  0.5331170000000  0.4589170000000 1.0
C      1  0.5700120000000  0.4384470000000  0.5252920000000 1.0
C      1  0.4753600000000  0.4586450000000  0.4152150000000 1.0
C      1  0.4520870000000  0.5756660000000  0.4851390000000 1.0
C      1  0.5470390000000  0.5929960000000  0.4883080000000 1.0
C      1  0.5566450000000  0.4305250000000  0.4858470000000 1.0
END
