TITL C-2848506-1665-156 0.00107302359386733 125000 -196.273813496592 0 0 35 (C1) n - 1
REM
REM in /home/bkarasulu/work/CARBON/AIRSS/Generating-Clusters/AIREBO/with-SteepDescent/Only-C1/SD-CG-opt/Try1-1.4A-POS3A/HFTN-CG
REM
REM
REM
REM
REM
REM ./C.cell (11c1c37f851c82e70ff6c80c92926a4b)
REM
REM compiler GCC version 9.2.1 20190827 (Red Hat 9.2.1-1)
REM options -cpp -mtune=generic -march=x86-64 -g -O0 -fpre-include=/usr/include/finclude/math-vector-fortran.h
REM seed -378102982 1955902253 1609948627 1068063156 165562876 -1897858845 2094530891 -617954403 708386317 -1261021571 -224891679 603283585 -998798086 1131805457 1987996275 1764778107 517525379 -1849495293 -1773019311 -1844135945 14602594 -334216435 1064456353 -1977992933 -502658834 -1036264116 -884621148 -1917146620 1872915559 -800612993 -1704919889 -1540507667 875414036
REM
CELL 1.54180   50.00000   50.00000   50.00000   90.00000   90.00000   90.00000
LATT -1
SFAC C  
C      1  0.5473350000000  0.5116280000000  0.4894210000000 1.0
C      1  0.4596690000000  0.4725580000000  0.5369970000000 1.0
C      1  0.4611020000000  0.4986060000000  0.5432530000000 1.0
C      1  0.4837270000000  0.5479760000000  0.4696460000000 1.0
C      1  0.5040720000000  0.4314470000000  0.5164800000000 1.0
C      1  0.5259260000000  0.5533370000000  0.4948540000000 1.0
C      1  0.4508120000000  0.5013250000000  0.4240790000000 1.0
C      1  0.4739260000000  0.5053130000000  0.4945880000000 1.0
C      1  0.5384650000000  0.5362560000000  0.5424060000000 1.0
C      1  0.4880960000000  0.5380730000000  0.5297140000000 1.0
C      1  0.5527670000000  0.5393960000000  0.4976980000000 1.0
C      1  0.4337030000000  0.4694570000000  0.4778620000000 1.0
C      1  0.5010010000000  0.4625350000000  0.5020480000000 1.0
C      1  0.5070480000000  0.5602680000000  0.4761060000000 1.0
C      1  0.5603340000000  0.4931830000000  0.4740050000000 1.0
C      1  0.5641180000000  0.4476730000000  0.4634830000000 1.0
C      1  0.5747140000000  0.4734730000000  0.4606530000000 1.0
C      1  0.5218740000000  0.5079740000000  0.5021040000000 1.0
C      1  0.5967800000000  0.4786360000000  0.4461280000000 1.0
C      1  0.5161980000000  0.5333090000000  0.5205580000000 1.0
C      1  0.4655030000000  0.5191340000000  0.5209270000000 1.0
C      1  0.5367590000000  0.5304010000000  0.5688030000000 1.0
C      1  0.4597390000000  0.5124220000000  0.4460800000000 1.0
C      1  0.5403440000000  0.4375990000000  0.4715910000000 1.0
C      1  0.4501280000000  0.4908680000000  0.4783710000000 1.0
C      1  0.4446220000000  0.4506030000000  0.5200790000000 1.0
C      1  0.4773120000000  0.4497220000000  0.5212780000000 1.0
C      1  0.5214450000000  0.4383670000000  0.4906740000000 1.0
C      1  0.4825510000000  0.5582740000000  0.5455480000000 1.0
C      1  0.4279130000000  0.4519670000000  0.4982510000000 1.0
C      1  0.4715480000000  0.5231270000000  0.4684480000000 1.0
C      1  0.5611820000000  0.5418240000000  0.5252380000000 1.0
C      1  0.4575790000000  0.5081930000000  0.5687470000000 1.0
C      1  0.5002200000000  0.4911330000000  0.4976940000000 1.0
C      1  0.4414890000000  0.5339410000000  0.5161870000000 1.0
END
