TITL C-2847953-8112-212 -0.00233237306973571 125000 -976.179956130786 0 0 182 (C1) n - 1
REM
REM in /home/bkarasulu/work/CARBON/AIRSS/Generating-Clusters/AIREBO/with-SteepDescent/Only-C1/SD-CG-opt/Try1-1.4A-POS3A/HFTN-CG
REM
REM
REM
REM
REM
REM ./C.cell (11c1c37f851c82e70ff6c80c92926a4b)
REM
REM compiler GCC version 9.2.1 20190827 (Red Hat 9.2.1-1)
REM options -cpp -mtune=generic -march=x86-64 -g -O0 -fpre-include=/usr/include/finclude/math-vector-fortran.h
REM seed 244582403 -466759099 -1316320526 -945813006 2017337388 707472538 47208205 -1409825642 2030648844 -1596889048 1139140926 -37088726 -1241044663 1451147432 -1232434080 -1003936046 -547841293 378835758 -1146339312 801229391 1469342849 1059615306 364648022 -1356204882 -222486743 -955486857 369016392 -494813626 -1804520309 1291224328 26340977 1952794468 -453393001
REM
CELL 1.54180   50.00000   50.00000   50.00000   90.00000   90.00000   90.00000
LATT -1
SFAC C  
C      1  0.4700570000000  0.4560420000000  0.6152100000000 1.0
C      1  0.4379810000000  0.5276400000000  0.5466470000000 1.0
C      1  0.4378510000000  0.4924700000000  0.4628700000000 1.0
C      1  0.3920360000000  0.4862640000000  0.5276770000000 1.0
C      1  0.6104190000000  0.4985530000000  0.4547630000000 1.0
C      1  0.5880650000000  0.5796140000000  0.5402660000000 1.0
C      1  0.4766910000000  0.5254210000000  0.5822160000000 1.0
C      1  0.4821820000000  0.5245650000000  0.4774580000000 1.0
C      1  0.5697550000000  0.4514190000000  0.4355910000000 1.0
C      1  0.5329090000000  0.4078340000000  0.5417420000000 1.0
C      1  0.4829630000000  0.5030280000000  0.6041290000000 1.0
C      1  0.4357300000000  0.5612270000000  0.5251670000000 1.0
C      1  0.4176790000000  0.5207830000000  0.5706140000000 1.0
C      1  0.5474150000000  0.4338580000000  0.4488180000000 1.0
C      1  0.5116020000000  0.4850710000000  0.4681980000000 1.0
C      1  0.5495420000000  0.4007750000000  0.4991330000000 1.0
C      1  0.5198480000000  0.4509600000000  0.4402540000000 1.0
C      1  0.4722750000000  0.4992110000000  0.3872040000000 1.0
C      1  0.5451190000000  0.5093560000000  0.4923860000000 1.0
C      1  0.4133250000000  0.4891600000000  0.5723600000000 1.0
C      1  0.5417070000000  0.4487700000000  0.5089150000000 1.0
C      1  0.5655560000000  0.5296180000000  0.5596030000000 1.0
C      1  0.5146960000000  0.5434970000000  0.5386070000000 1.0
C      1  0.6076850000000  0.4954350000000  0.4827850000000 1.0
C      1  0.4651850000000  0.5625890000000  0.5914770000000 1.0
C      1  0.5398880000000  0.5630130000000  0.5267410000000 1.0
C      1  0.4387020000000  0.4981590000000  0.5104830000000 1.0
C      1  0.5592780000000  0.4173420000000  0.5451940000000 1.0
C      1  0.4456210000000  0.4810140000000  0.3979500000000 1.0
C      1  0.4698160000000  0.5802080000000  0.5626110000000 1.0
C      1  0.4990320000000  0.4444140000000  0.5287680000000 1.0
C      1  0.4486550000000  0.5046850000000  0.4188850000000 1.0
C      1  0.5379570000000  0.5020780000000  0.4438910000000 1.0
C      1  0.4422240000000  0.5746630000000  0.5488110000000 1.0
C      1  0.5036430000000  0.4537550000000  0.4787820000000 1.0
C      1  0.4548330000000  0.4288040000000  0.5927020000000 1.0
C      1  0.5278050000000  0.5523390000000  0.3979140000000 1.0
C      1  0.5879080000000  0.5410470000000  0.4579430000000 1.0
C      1  0.5062770000000  0.5372430000000  0.5705180000000 1.0
C      1  0.4664800000000  0.5127820000000  0.5532930000000 1.0
C      1  0.4683820000000  0.4580320000000  0.5818000000000 1.0
C      1  0.4603210000000  0.5307790000000  0.3912910000000 1.0
C      1  0.5758280000000  0.4682960000000  0.5409630000000 1.0
C      1  0.5883820000000  0.4926250000000  0.5395960000000 1.0
C      1  0.4351780000000  0.5674210000000  0.5771440000000 1.0
C      1  0.5716150000000  0.5141940000000  0.4716020000000 1.0
C      1  0.4201060000000  0.4946970000000  0.4859670000000 1.0
C      1  0.5944000000000  0.4673720000000  0.4851190000000 1.0
C      1  0.5242440000000  0.4790850000000  0.4302020000000 1.0
C      1  0.5155810000000  0.4057450000000  0.4330780000000 1.0
C      1  0.4547170000000  0.4289790000000  0.5583880000000 1.0
C      1  0.4331180000000  0.4353150000000  0.4488530000000 1.0
C      1  0.4124620000000  0.4594450000000  0.5647540000000 1.0
C      1  0.5145790000000  0.4332800000000  0.5943780000000 1.0
C      1  0.5391290000000  0.4724170000000  0.6032080000000 1.0
C      1  0.4727780000000  0.4436750000000  0.4208700000000 1.0
C      1  0.5356970000000  0.4722540000000  0.3995100000000 1.0
C      1  0.4180700000000  0.5565910000000  0.4807400000000 1.0
C      1  0.4069130000000  0.5352100000000  0.5410380000000 1.0
C      1  0.4609030000000  0.4599890000000  0.4636050000000 1.0
C      1  0.4342440000000  0.5295130000000  0.4066280000000 1.0
C      1  0.4333100000000  0.4669260000000  0.4451290000000 1.0
C      1  0.4604140000000  0.4213760000000  0.4953470000000 1.0
C      1  0.4730300000000  0.4654920000000  0.3946520000000 1.0
C      1  0.4622110000000  0.4605990000000  0.5483370000000 1.0
C      1  0.5359590000000  0.5219870000000  0.3981210000000 1.0
C      1  0.5860680000000  0.5137270000000  0.4408220000000 1.0
C      1  0.4445500000000  0.5362090000000  0.5848950000000 1.0
C      1  0.5041270000000  0.5604430000000  0.4062670000000 1.0
C      1  0.5519640000000  0.5505140000000  0.6001340000000 1.0
C      1  0.5361690000000  0.4930140000000  0.5209260000000 1.0
C      1  0.4523410000000  0.6204440000000  0.5002980000000 1.0
C      1  0.5046170000000  0.4587280000000  0.4023120000000 1.0
C      1  0.4577170000000  0.4236560000000  0.4420060000000 1.0
C      1  0.5309000000000  0.4956720000000  0.3790430000000 1.0
C      1  0.5302480000000  0.4060030000000  0.4575560000000 1.0
C      1  0.4899780000000  0.4348810000000  0.4991870000000 1.0
C      1  0.4754700000000  0.5522930000000  0.3974180000000 1.0
C      1  0.5039050000000  0.5097070000000  0.3940930000000 1.0
C      1  0.5411640000000  0.5139780000000  0.5688540000000 1.0
C      1  0.4688240000000  0.5892630000000  0.4516900000000 1.0
C      1  0.5234230000000  0.5121960000000  0.5433590000000 1.0
C      1  0.4014880000000  0.4932480000000  0.4199730000000 1.0
C      1  0.5749830000000  0.5195820000000  0.5324830000000 1.0
C      1  0.5580990000000  0.4644530000000  0.5772210000000 1.0
C      1  0.5501490000000  0.5815230000000  0.4793210000000 1.0
C      1  0.4385450000000  0.5649000000000  0.4315450000000 1.0
C      1  0.5321840000000  0.5943550000000  0.5205780000000 1.0
C      1  0.5269310000000  0.4441790000000  0.5572920000000 1.0
C      1  0.5521050000000  0.5478580000000  0.4743060000000 1.0
C      1  0.4493580000000  0.4109090000000  0.5224760000000 1.0
C      1  0.4900200000000  0.5611860000000  0.5232640000000 1.0
C      1  0.4596520000000  0.4719600000000  0.5161010000000 1.0
C      1  0.5454500000000  0.4840480000000  0.4712670000000 1.0
C      1  0.5628550000000  0.4663210000000  0.4910750000000 1.0
C      1  0.4453350000000  0.4872730000000  0.5609890000000 1.0
C      1  0.5609170000000  0.5344710000000  0.5044400000000 1.0
C      1  0.4951950000000  0.4962270000000  0.5445670000000 1.0
C      1  0.4764770000000  0.3914160000000  0.5160720000000 1.0
C      1  0.5688550000000  0.5615140000000  0.4408620000000 1.0
C      1  0.6144620000000  0.5417860000000  0.4738740000000 1.0
C      1  0.4244820000000  0.4826360000000  0.5345310000000 1.0
C      1  0.4891160000000  0.4478900000000  0.4486560000000 1.0
C      1  0.5623180000000  0.4812490000000  0.4187000000000 1.0
C      1  0.5104690000000  0.4859540000000  0.5991840000000 1.0
C      1  0.4762870000000  0.4129120000000  0.4668330000000 1.0
C      1  0.5699920000000  0.4791720000000  0.4508760000000 1.0
C      1  0.5047010000000  0.4184090000000  0.5537940000000 1.0
C      1  0.5200800000000  0.5730290000000  0.4691780000000 1.0
C      1  0.3994370000000  0.4705730000000  0.4856570000000 1.0
C      1  0.5735320000000  0.5581860000000  0.5231730000000 1.0
C      1  0.4027440000000  0.5204350000000  0.4865020000000 1.0
C      1  0.5137130000000  0.5997510000000  0.5422140000000 1.0
C      1  0.5669360000000  0.4263630000000  0.5133110000000 1.0
C      1  0.4743350000000  0.4079870000000  0.5455950000000 1.0
C      1  0.5981770000000  0.5355500000000  0.5168540000000 1.0
C      1  0.4787680000000  0.5681600000000  0.4269540000000 1.0
C      1  0.5933490000000  0.4474360000000  0.4573740000000 1.0
C      1  0.4225630000000  0.4263420000000  0.5286460000000 1.0
C      1  0.4891650000000  0.5319650000000  0.4450150000000 1.0
C      1  0.5632890000000  0.5153130000000  0.4171160000000 1.0
C      1  0.5881220000000  0.4457030000000  0.5315680000000 1.0
C      1  0.4578140000000  0.4867580000000  0.5925890000000 1.0
C      1  0.4543240000000  0.5181080000000  0.4587250000000 1.0
C      1  0.5192780000000  0.5163130000000  0.5939490000000 1.0
C      1  0.5591490000000  0.4379070000000  0.5661600000000 1.0
C      1  0.5341920000000  0.4408730000000  0.4767040000000 1.0
C      1  0.5167020000000  0.4715740000000  0.5053470000000 1.0
C      1  0.5317940000000  0.5546650000000  0.5793270000000 1.0
C      1  0.4314630000000  0.4449440000000  0.5773840000000 1.0
C      1  0.5739800000000  0.5773670000000  0.5640390000000 1.0
C      1  0.4797290000000  0.4847360000000  0.4656060000000 1.0
C      1  0.4027890000000  0.5359720000000  0.4583810000000 1.0
C      1  0.5455670000000  0.4652590000000  0.5381740000000 1.0
C      1  0.4099470000000  0.5217040000000  0.4283110000000 1.0
C      1  0.4295030000000  0.5764800000000  0.5028870000000 1.0
C      1  0.5117800000000  0.6114750000000  0.4633760000000 1.0
C      1  0.5260550000000  0.3998730000000  0.4842830000000 1.0
C      1  0.5514880000000  0.5332750000000  0.4435130000000 1.0
C      1  0.4396280000000  0.5737460000000  0.4625250000000 1.0
C      1  0.4630780000000  0.5458020000000  0.4893420000000 1.0
C      1  0.3834200000000  0.4693420000000  0.5080840000000 1.0
C      1  0.4772620000000  0.4781430000000  0.6263240000000 1.0
C      1  0.4967350000000  0.4885690000000  0.4169180000000 1.0
C      1  0.4911350000000  0.5830920000000  0.5449450000000 1.0
C      1  0.5563990000000  0.4939470000000  0.5885570000000 1.0
C      1  0.5093620000000  0.4613010000000  0.5791300000000 1.0
C      1  0.5311870000000  0.5978030000000  0.4485400000000 1.0
C      1  0.4954670000000  0.4260620000000  0.4049770000000 1.0
C      1  0.4511500000000  0.5932660000000  0.4979970000000 1.0
C      1  0.4909960000000  0.5886880000000  0.4744710000000 1.0
C      1  0.4017640000000  0.5466370000000  0.5089570000000 1.0
C      1  0.4762630000000  0.5748880000000  0.4973000000000 1.0
C      1  0.5259150000000  0.4280500000000  0.4158710000000 1.0
C      1  0.5419970000000  0.5746940000000  0.5586310000000 1.0
C      1  0.5143790000000  0.5235840000000  0.4893180000000 1.0
C      1  0.4223190000000  0.4748080000000  0.4186330000000 1.0
C      1  0.4678970000000  0.5556760000000  0.4569240000000 1.0
C      1  0.4948060000000  0.4671200000000  0.5513220000000 1.0
C      1  0.4976700000000  0.5088270000000  0.5130840000000 1.0
C      1  0.6109720000000  0.5224240000000  0.4953940000000 1.0
C      1  0.5067170000000  0.5417670000000  0.6101980000000 1.0
C      1  0.4956180000000  0.4026200000000  0.4928730000000 1.0
C      1  0.4855590000000  0.4834060000000  0.4984570000000 1.0
C      1  0.4130200000000  0.4506620000000  0.5360480000000 1.0
C      1  0.4340760000000  0.5376470000000  0.4457020000000 1.0
C      1  0.5868000000000  0.4343980000000  0.4884760000000 1.0
C      1  0.5292380000000  0.6048870000000  0.5670190000000 1.0
C      1  0.3954850000000  0.5147220000000  0.5188650000000 1.0
C      1  0.4752430000000  0.5019030000000  0.4373640000000 1.0
C      1  0.4545380000000  0.4515810000000  0.4918400000000 1.0
C      1  0.4789550000000  0.5304140000000  0.5270250000000 1.0
C      1  0.4856350000000  0.4068280000000  0.4345870000000 1.0
C      1  0.5714830000000  0.5506840000000  0.5768780000000 1.0
C      1  0.6053510000000  0.4182180000000  0.4664150000000 1.0
C      1  0.5270190000000  0.5539280000000  0.4964440000000 1.0
C      1  0.6145130000000  0.4943230000000  0.5484910000000 1.0
C      1  0.4474030000000  0.5308070000000  0.5154160000000 1.0
C      1  0.4872270000000  0.5572210000000  0.6110940000000 1.0
C      1  0.5149860000000  0.5177620000000  0.4565270000000 1.0
C      1  0.5490560000000  0.6004940000000  0.4985900000000 1.0
C      1  0.5226580000000  0.4230270000000  0.5185010000000 1.0
END
