TITL C-2848503-6230-134 -0.00355191408361443 125000 -243.480599020495 0 0 46 (C1) n - 1
REM
REM in /home/bkarasulu/work/CARBON/AIRSS/Generating-Clusters/AIREBO/with-SteepDescent/Only-C1/SD-CG-opt/Try1-1.4A-POS3A/HFTN-CG
REM
REM
REM
REM
REM
REM ./C.cell (11c1c37f851c82e70ff6c80c92926a4b)
REM
REM compiler GCC version 9.2.1 20190827 (Red Hat 9.2.1-1)
REM options -cpp -mtune=generic -march=x86-64 -g -O0 -fpre-include=/usr/include/finclude/math-vector-fortran.h
REM seed 2066969877 382927946 996125314 -1112362434 -746406041 -1539657859 -1303259749 -914691950 1259301389 306861258 472830265 -1483129911 1751211564 790578468 -702239310 -1513202750 -804421000 -2144550598 -1349494640 -1093716467 841028469 2047915163 223669237 238170532 1251436647 -703836827 1423374516 -203587576 -288929727 19172686 -1798382329 2022079221 1122869920
REM
CELL 1.54180   50.00000   50.00000   50.00000   90.00000   90.00000   90.00000
LATT -1
SFAC C  
C      1  0.4969020000000  0.4559960000000  0.4395770000000 1.0
C      1  0.5185580000000  0.5035700000000  0.5247380000000 1.0
C      1  0.5205220000000  0.5450980000000  0.4569260000000 1.0
C      1  0.4847660000000  0.4896460000000  0.5522200000000 1.0
C      1  0.5373800000000  0.5118940000000  0.5013320000000 1.0
C      1  0.4729240000000  0.4717030000000  0.5288680000000 1.0
C      1  0.4519090000000  0.5042850000000  0.5128500000000 1.0
C      1  0.4283880000000  0.4862800000000  0.5038260000000 1.0
C      1  0.4811730000000  0.4912790000000  0.5026270000000 1.0
C      1  0.4638810000000  0.5311780000000  0.5011370000000 1.0
C      1  0.5575020000000  0.4876240000000  0.4918280000000 1.0
C      1  0.5362290000000  0.5654840000000  0.5075130000000 1.0
C      1  0.5026810000000  0.4850450000000  0.5721590000000 1.0
C      1  0.4956050000000  0.5533440000000  0.4706020000000 1.0
C      1  0.4516180000000  0.5542270000000  0.5113930000000 1.0
C      1  0.4843420000000  0.4493420000000  0.4639960000000 1.0
C      1  0.5568790000000  0.5604210000000  0.4834500000000 1.0
C      1  0.5021280000000  0.4828880000000  0.4362540000000 1.0
C      1  0.5455310000000  0.5576360000000  0.4577350000000 1.0
C      1  0.4687530000000  0.5001460000000  0.4722430000000 1.0
C      1  0.5576730000000  0.4622240000000  0.5058200000000 1.0
C      1  0.4971740000000  0.4994510000000  0.4567790000000 1.0
C      1  0.4632170000000  0.4666020000000  0.4712670000000 1.0
C      1  0.5126350000000  0.4379150000000  0.5073290000000 1.0
C      1  0.5297420000000  0.5210630000000  0.5516630000000 1.0
C      1  0.4352790000000  0.5027510000000  0.4765350000000 1.0
C      1  0.5132260000000  0.5424420000000  0.5306040000000 1.0
C      1  0.4920380000000  0.5186180000000  0.5398150000000 1.0
C      1  0.5168060000000  0.5172430000000  0.4747230000000 1.0
C      1  0.5330950000000  0.4578260000000  0.5228410000000 1.0
C      1  0.5742040000000  0.4947450000000  0.4628310000000 1.0
C      1  0.4185850000000  0.5152050000000  0.4610090000000 1.0
C      1  0.5421090000000  0.4700410000000  0.5511430000000 1.0
C      1  0.5290470000000  0.4920470000000  0.5635250000000 1.0
C      1  0.5057020000000  0.4751770000000  0.5198070000000 1.0
C      1  0.5429330000000  0.4992660000000  0.4638410000000 1.0
C      1  0.4730480000000  0.5338260000000  0.4700820000000 1.0
C      1  0.4985820000000  0.4362490000000  0.4843710000000 1.0
C      1  0.4486730000000  0.4565320000000  0.5208190000000 1.0
C      1  0.4975470000000  0.5276040000000  0.5007900000000 1.0
C      1  0.5523850000000  0.5378990000000  0.5061320000000 1.0
C      1  0.5056290000000  0.5602000000000  0.5026110000000 1.0
C      1  0.4443640000000  0.4594670000000  0.4903360000000 1.0
C      1  0.4203620000000  0.4645790000000  0.5288860000000 1.0
C      1  0.4602000000000  0.5180050000000  0.5386430000000 1.0
C      1  0.5780730000000  0.4459380000000  0.5065230000000 1.0
END
