TITL C-2847958-8115-308 0.000320627867544381 125000 -388.49390309877 0 0 72 (C1) n - 1
REM
REM in /home/bkarasulu/work/CARBON/AIRSS/Generating-Clusters/AIREBO/with-SteepDescent/Only-C1/SD-CG-opt/Try1-1.4A-POS3A/HFTN-CG
REM
REM
REM
REM
REM
REM ./C.cell (11c1c37f851c82e70ff6c80c92926a4b)
REM
REM compiler GCC version 9.2.1 20190827 (Red Hat 9.2.1-1)
REM options -cpp -mtune=generic -march=x86-64 -g -O0 -fpre-include=/usr/include/finclude/math-vector-fortran.h
REM seed 2097674466 1967359140 791655049 1038789769 903127623 -7956553 -1481753624 1053079272 1282986268 -1882595638 704517290 -1083014982 -541158071 131926813 1837934640 1591498498 584016086 -1868962759 -1762061326 -296165716 868212382 -1515021609 2065049038 1605025402 244752233 -1064555397 558099837 -1124049276 -1419028888 -1766930546 2061371295 -317499465 1045584128
REM
CELL 1.54180   50.00000   50.00000   50.00000   90.00000   90.00000   90.00000
LATT -1
SFAC C  
C      1  0.5252940000000  0.4851850000000  0.5107160000000 1.0
C      1  0.4880410000000  0.5422050000000  0.5189710000000 1.0
C      1  0.4748970000000  0.5636120000000  0.4969350000000 1.0
C      1  0.5519490000000  0.4617490000000  0.4479850000000 1.0
C      1  0.5736010000000  0.5026240000000  0.4921230000000 1.0
C      1  0.4708400000000  0.4367490000000  0.5400360000000 1.0
C      1  0.5099010000000  0.4563390000000  0.4241580000000 1.0
C      1  0.4934380000000  0.5586240000000  0.4717660000000 1.0
C      1  0.4916870000000  0.4888890000000  0.4385370000000 1.0
C      1  0.5025670000000  0.4913320000000  0.5757920000000 1.0
C      1  0.5099830000000  0.5698350000000  0.5875900000000 1.0
C      1  0.4302870000000  0.4788220000000  0.4736530000000 1.0
C      1  0.4361000000000  0.5488970000000  0.5244090000000 1.0
C      1  0.4472610000000  0.4818620000000  0.5237240000000 1.0
C      1  0.4986160000000  0.5363440000000  0.4281150000000 1.0
C      1  0.5354220000000  0.5270730000000  0.4631820000000 1.0
C      1  0.4601660000000  0.4370510000000  0.4862760000000 1.0
C      1  0.4510620000000  0.4422890000000  0.5252980000000 1.0
C      1  0.5167820000000  0.5101770000000  0.5526020000000 1.0
C      1  0.4735820000000  0.5453740000000  0.5575180000000 1.0
C      1  0.5143320000000  0.5676350000000  0.4971010000000 1.0
C      1  0.4180190000000  0.5240090000000  0.4871700000000 1.0
C      1  0.4822620000000  0.4835540000000  0.4935900000000 1.0
C      1  0.5330890000000  0.4967940000000  0.4518920000000 1.0
C      1  0.5173370000000  0.4392810000000  0.4692370000000 1.0
C      1  0.4825380000000  0.5097230000000  0.4640850000000 1.0
C      1  0.5614350000000  0.5372400000000  0.4625910000000 1.0
C      1  0.5275470000000  0.5478630000000  0.5162900000000 1.0
C      1  0.5149330000000  0.4612640000000  0.4888700000000 1.0
C      1  0.4820940000000  0.4330010000000  0.5019250000000 1.0
C      1  0.4585860000000  0.5065290000000  0.5060770000000 1.0
C      1  0.5651820000000  0.4878730000000  0.5431470000000 1.0
C      1  0.5299460000000  0.4594840000000  0.5621250000000 1.0
C      1  0.4222680000000  0.4824290000000  0.5413460000000 1.0
C      1  0.4767730000000  0.4702040000000  0.4627830000000 1.0
C      1  0.4653040000000  0.4321470000000  0.4598340000000 1.0
C      1  0.4666100000000  0.5190990000000  0.5578380000000 1.0
C      1  0.4589550000000  0.4938230000000  0.4361790000000 1.0
C      1  0.5320090000000  0.4718070000000  0.4288550000000 1.0
C      1  0.5567290000000  0.4577530000000  0.5447300000000 1.0
C      1  0.5783690000000  0.5293160000000  0.4838090000000 1.0
C      1  0.5486930000000  0.4479030000000  0.5189520000000 1.0
C      1  0.4798310000000  0.5453460000000  0.4465610000000 1.0
C      1  0.4468130000000  0.4706970000000  0.4518120000000 1.0
C      1  0.4619480000000  0.5613790000000  0.5342950000000 1.0
C      1  0.5113880000000  0.5124730000000  0.4309140000000 1.0
C      1  0.4996390000000  0.5556920000000  0.5673040000000 1.0
C      1  0.5002160000000  0.5007860000000  0.5248170000000 1.0
C      1  0.4859470000000  0.4736100000000  0.5610030000000 1.0
C      1  0.5596010000000  0.4834210000000  0.4698140000000 1.0
C      1  0.5522240000000  0.4692270000000  0.4976990000000 1.0
C      1  0.4940300000000  0.4447040000000  0.4492080000000 1.0
C      1  0.4896700000000  0.5166210000000  0.4966220000000 1.0
C      1  0.5235060000000  0.4336210000000  0.5237910000000 1.0
C      1  0.5364260000000  0.5163670000000  0.5184660000000 1.0
C      1  0.5589370000000  0.5540780000000  0.5206010000000 1.0
C      1  0.5393500000000  0.4894940000000  0.5608000000000 1.0
C      1  0.5425570000000  0.4370870000000  0.4587130000000 1.0
C      1  0.4419360000000  0.4610370000000  0.4983980000000 1.0
C      1  0.4551100000000  0.5225890000000  0.4518650000000 1.0
C      1  0.4370230000000  0.5284480000000  0.5070120000000 1.0
C      1  0.5119470000000  0.5333250000000  0.4770800000000 1.0
C      1  0.4723910000000  0.4926750000000  0.5408580000000 1.0
C      1  0.5031230000000  0.5898770000000  0.5097290000000 1.0
C      1  0.5094250000000  0.4902050000000  0.4741830000000 1.0
C      1  0.5021280000000  0.4490070000000  0.5453190000000 1.0
C      1  0.5101700000000  0.5390470000000  0.5427220000000 1.0
C      1  0.4741590000000  0.5876630000000  0.5180400000000 1.0
C      1  0.5624690000000  0.5018180000000  0.5184520000000 1.0
C      1  0.4285840000000  0.5077340000000  0.4671430000000 1.0
C      1  0.5805590000000  0.5481910000000  0.5048680000000 1.0
C      1  0.4944080000000  0.4600190000000  0.5140990000000 1.0
END
