TITL C-2848499-1157-341 0.00040458883891413 125000 -657.457490713688 0 0 125 (C1) n - 1
REM
REM in /home/bkarasulu/work/CARBON/AIRSS/Generating-Clusters/AIREBO/with-SteepDescent/Only-C1/SD-CG-opt/Try1-1.4A-POS3A/HFTN-CG
REM
REM
REM
REM
REM
REM ./C.cell (11c1c37f851c82e70ff6c80c92926a4b)
REM
REM compiler GCC version 9.2.1 20190827 (Red Hat 9.2.1-1)
REM options -cpp -mtune=generic -march=x86-64 -g -O0 -fpre-include=/usr/include/finclude/math-vector-fortran.h
REM seed 1807871419 1643057347 -1530473034 631713751 1816642575 -514000847 -130844721 1828155516 -151996988 -1278842882 -750087245 1804088199 -1844824787 165860688 -2139722163 -1234985632 -488472625 383895141 593139107 -1910307861 1868379305 -1155935157 2105626818 -312666586 1403516205 -1875837404 1075047835 -1042424289 -874941508 166746445 -1101123365 1215890052 -1510003969
REM
CELL 1.54180   50.00000   50.00000   50.00000   90.00000   90.00000   90.00000
LATT -1
SFAC C  
C      1  0.5907840000000  0.4771900000000  0.5140200000000 1.0
C      1  0.5333670000000  0.4864980000000  0.5101690000000 1.0
C      1  0.4466270000000  0.5136660000000  0.5633570000000 1.0
C      1  0.5026770000000  0.4347240000000  0.5005260000000 1.0
C      1  0.5881410000000  0.4993890000000  0.5372220000000 1.0
C      1  0.4964390000000  0.5408900000000  0.4076370000000 1.0
C      1  0.5430500000000  0.5370450000000  0.4923320000000 1.0
C      1  0.4433980000000  0.4319820000000  0.4792410000000 1.0
C      1  0.5583680000000  0.5710630000000  0.5066780000000 1.0
C      1  0.5782390000000  0.5149180000000  0.4715030000000 1.0
C      1  0.4442310000000  0.4592800000000  0.4911540000000 1.0
C      1  0.4526220000000  0.4894750000000  0.4050350000000 1.0
C      1  0.5190930000000  0.4468680000000  0.3887840000000 1.0
C      1  0.5530850000000  0.4784010000000  0.4472570000000 1.0
C      1  0.5427740000000  0.5566640000000  0.4368040000000 1.0
C      1  0.5050540000000  0.4135210000000  0.4455740000000 1.0
C      1  0.5499350000000  0.5750820000000  0.4640280000000 1.0
C      1  0.4279990000000  0.5036070000000  0.5366740000000 1.0
C      1  0.4675770000000  0.5339320000000  0.4575100000000 1.0
C      1  0.4171950000000  0.5545790000000  0.5106720000000 1.0
C      1  0.4770070000000  0.5520950000000  0.5761440000000 1.0
C      1  0.5738530000000  0.4874640000000  0.4672960000000 1.0
C      1  0.4976590000000  0.4943220000000  0.4717150000000 1.0
C      1  0.5757630000000  0.4659470000000  0.4900740000000 1.0
C      1  0.5234840000000  0.5453690000000  0.5890650000000 1.0
C      1  0.4192050000000  0.5360290000000  0.4556560000000 1.0
C      1  0.5442160000000  0.4444220000000  0.5689790000000 1.0
C      1  0.5217440000000  0.5754680000000  0.5510460000000 1.0
C      1  0.4254630000000  0.4997000000000  0.5029760000000 1.0
C      1  0.4280660000000  0.5425130000000  0.4834890000000 1.0
C      1  0.5266500000000  0.5430400000000  0.4649950000000 1.0
C      1  0.4281360000000  0.5368650000000  0.5370200000000 1.0
C      1  0.4144430000000  0.4676030000000  0.5052780000000 1.0
C      1  0.4654260000000  0.4256780000000  0.5117930000000 1.0
C      1  0.4369440000000  0.5446610000000  0.4341330000000 1.0
C      1  0.4591150000000  0.5039520000000  0.5056210000000 1.0
C      1  0.5746920000000  0.5258440000000  0.5316890000000 1.0
C      1  0.5793260000000  0.5658050000000  0.4893980000000 1.0
C      1  0.4105420000000  0.4474580000000  0.5285400000000 1.0
C      1  0.4686590000000  0.4963490000000  0.5373680000000 1.0
C      1  0.5261010000000  0.5011970000000  0.4100380000000 1.0
C      1  0.5098380000000  0.4611310000000  0.4140620000000 1.0
C      1  0.4557680000000  0.5318780000000  0.4873690000000 1.0
C      1  0.5482560000000  0.4720010000000  0.5804050000000 1.0
C      1  0.5096970000000  0.4639220000000  0.5736480000000 1.0
C      1  0.5548980000000  0.4664500000000  0.5275130000000 1.0
C      1  0.5237970000000  0.5114950000000  0.5452880000000 1.0
C      1  0.4595750000000  0.4580460000000  0.5205190000000 1.0
C      1  0.4929800000000  0.4434260000000  0.4691080000000 1.0
C      1  0.4453190000000  0.4757990000000  0.5457970000000 1.0
C      1  0.5522380000000  0.5343260000000  0.5876720000000 1.0
C      1  0.5588980000000  0.5277640000000  0.4386570000000 1.0
C      1  0.4937000000000  0.4428840000000  0.4351060000000 1.0
C      1  0.5278330000000  0.4312550000000  0.4539020000000 1.0
C      1  0.5196750000000  0.4873660000000  0.5925940000000 1.0
C      1  0.4843920000000  0.4700630000000  0.5521190000000 1.0
C      1  0.4570830000000  0.5643980000000  0.5357090000000 1.0
C      1  0.4944200000000  0.5782530000000  0.5659620000000 1.0
C      1  0.4487500000000  0.5099060000000  0.4494840000000 1.0
C      1  0.5034160000000  0.5832900000000  0.4924360000000 1.0
C      1  0.4215290000000  0.4742490000000  0.4707350000000 1.0
C      1  0.5352590000000  0.5094380000000  0.5770520000000 1.0
C      1  0.4844230000000  0.4020850000000  0.4628460000000 1.0
C      1  0.5158170000000  0.5032250000000  0.4374320000000 1.0
C      1  0.4917840000000  0.5381490000000  0.5259680000000 1.0
C      1  0.4413470000000  0.4603970000000  0.4512860000000 1.0
C      1  0.5428680000000  0.4173620000000  0.5257260000000 1.0
C      1  0.4982480000000  0.5390200000000  0.5558220000000 1.0
C      1  0.4458510000000  0.4808330000000  0.5789770000000 1.0
C      1  0.4036180000000  0.5236070000000  0.5084220000000 1.0
C      1  0.4243790000000  0.5053250000000  0.4694060000000 1.0
C      1  0.5854190000000  0.4606290000000  0.5413420000000 1.0
C      1  0.4789590000000  0.4235870000000  0.5374620000000 1.0
C      1  0.5066410000000  0.4857260000000  0.5311940000000 1.0
C      1  0.5484960000000  0.5463430000000  0.5245800000000 1.0
C      1  0.5279740000000  0.4640920000000  0.5464600000000 1.0
C      1  0.5121880000000  0.4217030000000  0.5304830000000 1.0
C      1  0.4712910000000  0.4738160000000  0.4238020000000 1.0
C      1  0.5372130000000  0.5869150000000  0.4932540000000 1.0
C      1  0.4669690000000  0.5019840000000  0.5879890000000 1.0
C      1  0.4702120000000  0.4877800000000  0.4503240000000 1.0
C      1  0.5726240000000  0.5277420000000  0.4991640000000 1.0
C      1  0.5698300000000  0.5471140000000  0.4643880000000 1.0
C      1  0.5298320000000  0.4595410000000  0.4389270000000 1.0
C      1  0.4905060000000  0.5799010000000  0.4450250000000 1.0
C      1  0.4598060000000  0.4440170000000  0.4302340000000 1.0
C      1  0.4785010000000  0.5522110000000  0.4913110000000 1.0
C      1  0.5319670000000  0.5432190000000  0.5545170000000 1.0
C      1  0.4694100000000  0.5829430000000  0.4917650000000 1.0
C      1  0.4943370000000  0.4903800000000  0.4062970000000 1.0
C      1  0.4615380000000  0.5619670000000  0.4441750000000 1.0
C      1  0.5763460000000  0.4827460000000  0.5644800000000 1.0
C      1  0.4492790000000  0.5197100000000  0.4171340000000 1.0
C      1  0.5418090000000  0.4653920000000  0.4876360000000 1.0
C      1  0.5157570000000  0.5751130000000  0.4620240000000 1.0
C      1  0.4643900000000  0.5893140000000  0.4623990000000 1.0
C      1  0.5526210000000  0.4992920000000  0.5523710000000 1.0
C      1  0.5147220000000  0.4667710000000  0.4667850000000 1.0
C      1  0.4682860000000  0.4813180000000  0.4829000000000 1.0
C      1  0.5518960000000  0.5107830000000  0.4104830000000 1.0
C      1  0.4645620000000  0.4428890000000  0.5572730000000 1.0
C      1  0.5407270000000  0.5066670000000  0.4561470000000 1.0
C      1  0.5247180000000  0.5091040000000  0.4860650000000 1.0
C      1  0.4927510000000  0.5080490000000  0.5947240000000 1.0
C      1  0.4649150000000  0.4284290000000  0.4585470000000 1.0
C      1  0.5554040000000  0.4357250000000  0.5420740000000 1.0
C      1  0.5315720000000  0.4347800000000  0.4836590000000 1.0
C      1  0.5035250000000  0.5340000000000  0.4954480000000 1.0
C      1  0.4798240000000  0.5186950000000  0.4049480000000 1.0
C      1  0.4458560000000  0.5692300000000  0.5121080000000 1.0
C      1  0.5653980000000  0.5403540000000  0.5600670000000 1.0
C      1  0.5066850000000  0.4340960000000  0.5616840000000 1.0
C      1  0.5132140000000  0.5872840000000  0.5236810000000 1.0
C      1  0.4978480000000  0.5358700000000  0.5954690000000 1.0
C      1  0.5129550000000  0.5426630000000  0.4338710000000 1.0
C      1  0.4319890000000  0.4458620000000  0.5467970000000 1.0
C      1  0.4925930000000  0.5081520000000  0.5098440000000 1.0
C      1  0.4944550000000  0.5225900000000  0.4530760000000 1.0
C      1  0.4864200000000  0.5698140000000  0.5338170000000 1.0
C      1  0.4649660000000  0.4346500000000  0.5844400000000 1.0
C      1  0.5764710000000  0.4320490000000  0.4915460000000 1.0
C      1  0.5521970000000  0.4199960000000  0.4992150000000 1.0
C      1  0.4804760000000  0.4108570000000  0.4908410000000 1.0
C      1  0.4906580000000  0.4612550000000  0.5138010000000 1.0
C      1  0.4482000000000  0.5469910000000  0.5624440000000 1.0
END
