TITL C-2848504-8560-638 0.00510062187423198 125000 -624.247929318616 0 0 112 (C1) n - 1
REM
REM in /home/bkarasulu/work/CARBON/AIRSS/Generating-Clusters/AIREBO/with-SteepDescent/Only-C1/SD-CG-opt/Try1-1.4A-POS3A/HFTN-CG
REM
REM
REM
REM
REM
REM ./C.cell (11c1c37f851c82e70ff6c80c92926a4b)
REM
REM compiler GCC version 9.2.1 20190827 (Red Hat 9.2.1-1)
REM options -cpp -mtune=generic -march=x86-64 -g -O0 -fpre-include=/usr/include/finclude/math-vector-fortran.h
REM seed -1615600314 -1849962761 473458128 -906814049 -1164468817 272870663 1357353856 583217059 -894990527 -1535036391 -1645543963 1943458908 2143967209 -850374021 1116033077 369825492 -1899895249 1905188000 145042347 -775944330 -1578479594 -424853684 1202709267 2130320155 29725683 -1163357022 -2098466240 1796058420 596895057 -289712649 1957829847 -683440728 -181595786
REM
CELL 1.54180   50.00000   50.00000   50.00000   90.00000   90.00000   90.00000
LATT -1
SFAC C  
C      1  0.5592510000000  0.4267620000000  0.5176520000000 1.0
C      1  0.5063410000000  0.4776380000000  0.5462240000000 1.0
C      1  0.4758830000000  0.4075770000000  0.4530420000000 1.0
C      1  0.4378200000000  0.5073140000000  0.4356220000000 1.0
C      1  0.5122180000000  0.4454710000000  0.4942980000000 1.0
C      1  0.4095070000000  0.5278850000000  0.5276940000000 1.0
C      1  0.4187080000000  0.5499180000000  0.5486290000000 1.0
C      1  0.4824190000000  0.5360250000000  0.4228670000000 1.0
C      1  0.4773610000000  0.5526330000000  0.4483920000000 1.0
C      1  0.5736420000000  0.5052060000000  0.4431790000000 1.0
C      1  0.5710840000000  0.4182410000000  0.4718770000000 1.0
C      1  0.5658960000000  0.4766910000000  0.4453360000000 1.0
C      1  0.4694550000000  0.4214930000000  0.5462350000000 1.0
C      1  0.4535330000000  0.4775110000000  0.4310350000000 1.0
C      1  0.5076420000000  0.4465900000000  0.5709790000000 1.0
C      1  0.4455750000000  0.5822560000000  0.4726760000000 1.0
C      1  0.5069350000000  0.5577450000000  0.4574970000000 1.0
C      1  0.5185070000000  0.4638440000000  0.4373600000000 1.0
C      1  0.5264940000000  0.4758420000000  0.4998090000000 1.0
C      1  0.5524950000000  0.4622940000000  0.5559510000000 1.0
C      1  0.4894730000000  0.5041240000000  0.5496110000000 1.0
C      1  0.4189180000000  0.5408950000000  0.4730210000000 1.0
C      1  0.5757740000000  0.4334880000000  0.4968430000000 1.0
C      1  0.5097480000000  0.5033740000000  0.5764760000000 1.0
C      1  0.4370090000000  0.5246280000000  0.5522380000000 1.0
C      1  0.4402830000000  0.5660640000000  0.5393630000000 1.0
C      1  0.5044170000000  0.5360890000000  0.4807070000000 1.0
C      1  0.5166880000000  0.4304930000000  0.4437510000000 1.0
C      1  0.5536040000000  0.4589440000000  0.4010450000000 1.0
C      1  0.4803000000000  0.5018950000000  0.5045320000000 1.0
C      1  0.5362310000000  0.5409650000000  0.5762270000000 1.0
C      1  0.5103630000000  0.5355390000000  0.4174040000000 1.0
C      1  0.5107700000000  0.3948180000000  0.5070620000000 1.0
C      1  0.4524260000000  0.4604450000000  0.5222290000000 1.0
C      1  0.5570270000000  0.4712930000000  0.4741880000000 1.0
C      1  0.5070700000000  0.4737870000000  0.5869010000000 1.0
C      1  0.4570540000000  0.5386460000000  0.5013900000000 1.0
C      1  0.4645120000000  0.4632140000000  0.4845170000000 1.0
C      1  0.4163110000000  0.4536520000000  0.4560530000000 1.0
C      1  0.5402040000000  0.4972400000000  0.5200800000000 1.0
C      1  0.4797100000000  0.3989340000000  0.5037500000000 1.0
C      1  0.4551830000000  0.4919070000000  0.5218220000000 1.0
C      1  0.5475880000000  0.4668080000000  0.4265730000000 1.0
C      1  0.4537920000000  0.4304090000000  0.5240360000000 1.0
C      1  0.5718950000000  0.5275310000000  0.5350620000000 1.0
C      1  0.4579800000000  0.4979840000000  0.5547740000000 1.0
C      1  0.5741000000000  0.5282440000000  0.4847160000000 1.0
C      1  0.5685490000000  0.5081580000000  0.5554720000000 1.0
C      1  0.4740930000000  0.4807710000000  0.4630050000000 1.0
C      1  0.5244510000000  0.5751670000000  0.5151880000000 1.0
C      1  0.4343330000000  0.4696570000000  0.4960630000000 1.0
C      1  0.5509540000000  0.5625410000000  0.5597450000000 1.0
C      1  0.5409410000000  0.4988010000000  0.4802580000000 1.0
C      1  0.4865220000000  0.5051970000000  0.3978630000000 1.0
C      1  0.5784540000000  0.4808970000000  0.5165090000000 1.0
C      1  0.4642690000000  0.5318970000000  0.4686990000000 1.0
C      1  0.4688550000000  0.5492940000000  0.5316690000000 1.0
C      1  0.4883410000000  0.5081180000000  0.4720780000000 1.0
C      1  0.5004070000000  0.4452430000000  0.5377760000000 1.0
C      1  0.4615830000000  0.4345210000000  0.4701610000000 1.0
C      1  0.4649380000000  0.5072880000000  0.4177140000000 1.0
C      1  0.4956710000000  0.4118630000000  0.5323120000000 1.0
C      1  0.5421340000000  0.5086930000000  0.4479720000000 1.0
C      1  0.5744550000000  0.4808930000000  0.5460620000000 1.0
C      1  0.5351770000000  0.4873730000000  0.5484340000000 1.0
C      1  0.4617280000000  0.5806740000000  0.4963450000000 1.0
C      1  0.4740350000000  0.5847890000000  0.5491990000000 1.0
C      1  0.5159040000000  0.6279310000000  0.5209300000000 1.0
C      1  0.5326000000000  0.5865150000000  0.5701920000000 1.0
C      1  0.4266550000000  0.5325060000000  0.5003030000000 1.0
C      1  0.4953520000000  0.4308480000000  0.4684090000000 1.0
C      1  0.5209720000000  0.5095590000000  0.4213660000000 1.0
C      1  0.5392840000000  0.5694680000000  0.4578340000000 1.0
C      1  0.4363690000000  0.5251980000000  0.4563240000000 1.0
C      1  0.5528020000000  0.5518120000000  0.4836210000000 1.0
C      1  0.4827220000000  0.5573530000000  0.4934050000000 1.0
C      1  0.5615700000000  0.5535400000000  0.5351040000000 1.0
C      1  0.4587660000000  0.4171770000000  0.4992990000000 1.0
C      1  0.5504460000000  0.5648130000000  0.5117090000000 1.0
C      1  0.5874420000000  0.5205520000000  0.4623080000000 1.0
C      1  0.5199430000000  0.6023670000000  0.5168190000000 1.0
C      1  0.5044410000000  0.5560420000000  0.5152610000000 1.0
C      1  0.4251920000000  0.4954440000000  0.5650900000000 1.0
C      1  0.4927560000000  0.4393710000000  0.4212880000000 1.0
C      1  0.5690400000000  0.5112340000000  0.5089630000000 1.0
C      1  0.4200020000000  0.5693260000000  0.4708620000000 1.0
C      1  0.4840060000000  0.4553080000000  0.5105440000000 1.0
C      1  0.5336440000000  0.5376230000000  0.4513350000000 1.0
C      1  0.5404440000000  0.4203130000000  0.5415820000000 1.0
C      1  0.4627740000000  0.5152120000000  0.5836980000000 1.0
C      1  0.5373850000000  0.4398610000000  0.5607630000000 1.0
C      1  0.4776960000000  0.4317680000000  0.5704660000000 1.0
C      1  0.5137670000000  0.5614240000000  0.5740990000000 1.0
C      1  0.5369960000000  0.4494310000000  0.4720510000000 1.0
C      1  0.5467450000000  0.4251830000000  0.4587340000000 1.0
C      1  0.5765600000000  0.4625700000000  0.4954390000000 1.0
C      1  0.4129710000000  0.4670610000000  0.4801110000000 1.0
C      1  0.4855500000000  0.5549970000000  0.5608640000000 1.0
C      1  0.5400530000000  0.5117910000000  0.5708140000000 1.0
C      1  0.4422880000000  0.4508320000000  0.4472710000000 1.0
C      1  0.4572600000000  0.5866650000000  0.5235200000000 1.0
C      1  0.5115260000000  0.4942050000000  0.4510160000000 1.0
C      1  0.5325530000000  0.5277360000000  0.4900440000000 1.0
C      1  0.4279230000000  0.5033370000000  0.5148140000000 1.0
C      1  0.5122680000000  0.5114530000000  0.5111020000000 1.0
C      1  0.5303170000000  0.5594060000000  0.4256960000000 1.0
C      1  0.4854920000000  0.4705810000000  0.4326360000000 1.0
C      1  0.4609640000000  0.5788110000000  0.4489440000000 1.0
C      1  0.4963160000000  0.5292430000000  0.5326120000000 1.0
C      1  0.4877220000000  0.5287450000000  0.5809570000000 1.0
C      1  0.4079560000000  0.4818150000000  0.5780550000000 1.0
C      1  0.5274780000000  0.4213910000000  0.5104990000000 1.0
END
