TITL C-2847949-8115-385 -0.0033973644293463 125000 -1003.94183376829 0 0 183 (C1) n - 1
REM
REM in /home/bkarasulu/work/CARBON/AIRSS/Generating-Clusters/AIREBO/with-SteepDescent/Only-C1/SD-CG-opt/Try1-1.4A-POS3A/HFTN-CG
REM
REM
REM
REM
REM
REM ./C.cell (11c1c37f851c82e70ff6c80c92926a4b)
REM
REM compiler GCC version 9.2.1 20190827 (Red Hat 9.2.1-1)
REM options -cpp -mtune=generic -march=x86-64 -g -O0 -fpre-include=/usr/include/finclude/math-vector-fortran.h
REM seed -1435713872 -636640353 1597820825 -714811281 313461464 256609197 271069471 1868972988 -1108049581 -599701615 1685728870 -1791721882 -317882689 -782356362 -640638714 -397092549 -1944757351 -154902132 962315928 -1430555372 -87858154 -1415806741 -498926984 2114345063 359908715 -2014232967 -1732410496 -577041468 1852715066 1044828994 -1261128002 435777933 1374848290
REM
CELL 1.54180   50.00000   50.00000   50.00000   90.00000   90.00000   90.00000
LATT -1
SFAC C  
C      1  0.5750550000000  0.5660230000000  0.4931100000000 1.0
C      1  0.5285300000000  0.5213070000000  0.3810810000000 1.0
C      1  0.5703940000000  0.4672510000000  0.3883140000000 1.0
C      1  0.5152090000000  0.5688510000000  0.6001960000000 1.0
C      1  0.5465160000000  0.5293880000000  0.5142810000000 1.0
C      1  0.4086850000000  0.4502910000000  0.5387850000000 1.0
C      1  0.4516660000000  0.4372910000000  0.4126340000000 1.0
C      1  0.4682900000000  0.3974660000000  0.5301460000000 1.0
C      1  0.5320350000000  0.3819430000000  0.5515950000000 1.0
C      1  0.4811100000000  0.6022270000000  0.5601160000000 1.0
C      1  0.5496260000000  0.4722990000000  0.5659120000000 1.0
C      1  0.5002520000000  0.5553310000000  0.4229450000000 1.0
C      1  0.4991760000000  0.4909410000000  0.4451390000000 1.0
C      1  0.4951910000000  0.4920600000000  0.6033830000000 1.0
C      1  0.4086120000000  0.4437910000000  0.5690300000000 1.0
C      1  0.5474100000000  0.5633900000000  0.5127350000000 1.0
C      1  0.5112570000000  0.5791960000000  0.4659320000000 1.0
C      1  0.4719000000000  0.4922650000000  0.5069850000000 1.0
C      1  0.4308600000000  0.4248780000000  0.5417730000000 1.0
C      1  0.5338500000000  0.4949850000000  0.3894040000000 1.0
C      1  0.4671950000000  0.4565250000000  0.5240820000000 1.0
C      1  0.5285550000000  0.4954070000000  0.4366480000000 1.0
C      1  0.4990770000000  0.4594610000000  0.4858890000000 1.0
C      1  0.5117400000000  0.5387180000000  0.5514000000000 1.0
C      1  0.5164540000000  0.5992300000000  0.5240400000000 1.0
C      1  0.4293670000000  0.4871580000000  0.4016620000000 1.0
C      1  0.5421390000000  0.4865700000000  0.6216480000000 1.0
C      1  0.5656010000000  0.4469170000000  0.5587260000000 1.0
C      1  0.4533330000000  0.5617880000000  0.5482780000000 1.0
C      1  0.3947250000000  0.5148640000000  0.4945800000000 1.0
C      1  0.5163450000000  0.5387020000000  0.4578290000000 1.0
C      1  0.4446250000000  0.5161970000000  0.4412820000000 1.0
C      1  0.5253610000000  0.5147460000000  0.5352040000000 1.0
C      1  0.5745520000000  0.5063960000000  0.4716520000000 1.0
C      1  0.5516190000000  0.4288630000000  0.5406940000000 1.0
C      1  0.5409440000000  0.5955590000000  0.4686750000000 1.0
C      1  0.4875310000000  0.5548180000000  0.4660060000000 1.0
C      1  0.5622850000000  0.4260910000000  0.4362080000000 1.0
C      1  0.4602680000000  0.4758060000000  0.5678680000000 1.0
C      1  0.5259350000000  0.4603460000000  0.5832350000000 1.0
C      1  0.4746260000000  0.4309080000000  0.5793810000000 1.0
C      1  0.5610240000000  0.5931860000000  0.4898810000000 1.0
C      1  0.6167930000000  0.5013580000000  0.5160380000000 1.0
C      1  0.4371790000000  0.5108890000000  0.5992900000000 1.0
C      1  0.4225810000000  0.5622400000000  0.4239870000000 1.0
C      1  0.4026510000000  0.4394250000000  0.4790310000000 1.0
C      1  0.4740910000000  0.5250900000000  0.5091500000000 1.0
C      1  0.4270190000000  0.5056420000000  0.5440760000000 1.0
C      1  0.5227460000000  0.5601530000000  0.4907400000000 1.0
C      1  0.5403270000000  0.4521050000000  0.4570250000000 1.0
C      1  0.5247780000000  0.4085530000000  0.5454970000000 1.0
C      1  0.5055440000000  0.6078440000000  0.4388060000000 1.0
C      1  0.5709990000000  0.5208770000000  0.5623590000000 1.0
C      1  0.6037360000000  0.5330960000000  0.4665330000000 1.0
C      1  0.5830110000000  0.5454960000000  0.5155810000000 1.0
C      1  0.5394400000000  0.4137750000000  0.5007310000000 1.0
C      1  0.4043460000000  0.4553800000000  0.5085380000000 1.0
C      1  0.4462050000000  0.4241960000000  0.5645860000000 1.0
C      1  0.5862130000000  0.5205960000000  0.5000930000000 1.0
C      1  0.4647250000000  0.5378220000000  0.4487820000000 1.0
C      1  0.5641790000000  0.4952080000000  0.6073080000000 1.0
C      1  0.4876040000000  0.6077550000000  0.5312170000000 1.0
C      1  0.6138330000000  0.4997540000000  0.4317360000000 1.0
C      1  0.5622110000000  0.4785510000000  0.4832490000000 1.0
C      1  0.4675210000000  0.4123570000000  0.4600750000000 1.0
C      1  0.5858050000000  0.4072730000000  0.5037620000000 1.0
C      1  0.5838840000000  0.4529440000000  0.4888060000000 1.0
C      1  0.5012470000000  0.5394340000000  0.6011550000000 1.0
C      1  0.4935680000000  0.5506900000000  0.5724160000000 1.0
C      1  0.4857740000000  0.4944280000000  0.4076680000000 1.0
C      1  0.5803110000000  0.4885000000000  0.5066860000000 1.0
C      1  0.5244580000000  0.4290110000000  0.5694780000000 1.0
C      1  0.5489360000000  0.5759010000000  0.4289530000000 1.0
C      1  0.4390140000000  0.5118970000000  0.4108660000000 1.0
C      1  0.4237620000000  0.4480080000000  0.4626930000000 1.0
C      1  0.5187000000000  0.5771590000000  0.4328160000000 1.0
C      1  0.5406040000000  0.5310900000000  0.3589520000000 1.0
C      1  0.4603250000000  0.6010900000000  0.4843280000000 1.0
C      1  0.4155280000000  0.5619320000000  0.5527420000000 1.0
C      1  0.4287140000000  0.5148400000000  0.4960750000000 1.0
C      1  0.4503710000000  0.4507590000000  0.5806900000000 1.0
C      1  0.4475890000000  0.5574540000000  0.4131200000000 1.0
C      1  0.5499450000000  0.5345650000000  0.4578460000000 1.0
C      1  0.5451410000000  0.5159470000000  0.4857990000000 1.0
C      1  0.5700080000000  0.4354380000000  0.5144490000000 1.0
C      1  0.5038590000000  0.5777330000000  0.5551660000000 1.0
C      1  0.4872670000000  0.6035840000000  0.4635090000000 1.0
C      1  0.3685970000000  0.5029320000000  0.4985060000000 1.0
C      1  0.5654750000000  0.4335220000000  0.4677900000000 1.0
C      1  0.5184220000000  0.3990880000000  0.5071810000000 1.0
C      1  0.5389640000000  0.4847790000000  0.5401210000000 1.0
C      1  0.5382850000000  0.4450910000000  0.5069080000000 1.0
C      1  0.5545670000000  0.5135400000000  0.4354770000000 1.0
C      1  0.4833530000000  0.5748050000000  0.6028200000000 1.0
C      1  0.4041960000000  0.5233650000000  0.5261180000000 1.0
C      1  0.4614430000000  0.5859640000000  0.4538920000000 1.0
C      1  0.4105960000000  0.5206890000000  0.5868380000000 1.0
C      1  0.5927290000000  0.5106280000000  0.5382800000000 1.0
C      1  0.5742840000000  0.5476480000000  0.5416000000000 1.0
C      1  0.5644370000000  0.4960660000000  0.5802610000000 1.0
C      1  0.5389240000000  0.4614040000000  0.3910130000000 1.0
C      1  0.4681660000000  0.5737400000000  0.5724040000000 1.0
C      1  0.4481920000000  0.4698630000000  0.4992360000000 1.0
C      1  0.5100550000000  0.4488920000000  0.4575970000000 1.0
C      1  0.5624250000000  0.4090860000000  0.4856040000000 1.0
C      1  0.4324060000000  0.5428060000000  0.5753790000000 1.0
C      1  0.3916860000000  0.5460580000000  0.5420650000000 1.0
C      1  0.5003690000000  0.5412630000000  0.5194520000000 1.0
C      1  0.3972130000000  0.5017350000000  0.5704600000000 1.0
C      1  0.4160460000000  0.5558670000000  0.4552690000000 1.0
C      1  0.4913490000000  0.3940070000000  0.4440740000000 1.0
C      1  0.5588730000000  0.4894060000000  0.4114520000000 1.0
C      1  0.5195670000000  0.4780730000000  0.6073420000000 1.0
C      1  0.4480640000000  0.5381690000000  0.5026920000000 1.0
C      1  0.4266140000000  0.4779660000000  0.4637230000000 1.0
C      1  0.4527410000000  0.4850110000000  0.5357310000000 1.0
C      1  0.4653050000000  0.3731810000000  0.5398640000000 1.0
C      1  0.5357690000000  0.4212370000000  0.4263790000000 1.0
C      1  0.4785540000000  0.5145970000000  0.5393520000000 1.0
C      1  0.5155220000000  0.4999780000000  0.4807900000000 1.0
C      1  0.4703880000000  0.5661260000000  0.4317660000000 1.0
C      1  0.4980850000000  0.4876590000000  0.5258000000000 1.0
C      1  0.4518690000000  0.3947260000000  0.4846290000000 1.0
C      1  0.4884620000000  0.4585080000000  0.4381960000000 1.0
C      1  0.5315170000000  0.4695360000000  0.4842650000000 1.0
C      1  0.4530650000000  0.4382760000000  0.5003150000000 1.0
C      1  0.5312010000000  0.4347690000000  0.4003740000000 1.0
C      1  0.4112980000000  0.4214880000000  0.5036910000000 1.0
C      1  0.4273030000000  0.5477170000000  0.5241630000000 1.0
C      1  0.5118600000000  0.5376410000000  0.3963240000000 1.0
C      1  0.4637710000000  0.5615640000000  0.4869050000000 1.0
C      1  0.6016420000000  0.4485730000000  0.4601320000000 1.0
C      1  0.6059890000000  0.4693070000000  0.5096180000000 1.0
C      1  0.4063990000000  0.4800650000000  0.5528570000000 1.0
C      1  0.4840740000000  0.4881520000000  0.4754900000000 1.0
C      1  0.4542020000000  0.5563220000000  0.5980650000000 1.0
C      1  0.4995960000000  0.5226960000000  0.4329400000000 1.0
C      1  0.3930920000000  0.5437430000000  0.4766960000000 1.0
C      1  0.4478630000000  0.4358070000000  0.4700830000000 1.0
C      1  0.4511340000000  0.5286940000000  0.5507020000000 1.0
C      1  0.4693140000000  0.4331330000000  0.4332150000000 1.0
C      1  0.5156410000000  0.4115240000000  0.4448230000000 1.0
C      1  0.4067450000000  0.5028020000000  0.4651490000000 1.0
C      1  0.4405710000000  0.4976760000000  0.5739690000000 1.0
C      1  0.4665620000000  0.4785650000000  0.4259730000000 1.0
C      1  0.5682250000000  0.5652670000000  0.4398920000000 1.0
C      1  0.5624550000000  0.5036990000000  0.5274240000000 1.0
C      1  0.5212550000000  0.4643510000000  0.5234900000000 1.0
C      1  0.6123630000000  0.4892040000000  0.5534890000000 1.0
C      1  0.6183940000000  0.5209440000000  0.4911350000000 1.0
C      1  0.5850460000000  0.4655780000000  0.4167730000000 1.0
C      1  0.5539630000000  0.5699260000000  0.5454700000000 1.0
C      1  0.4188440000000  0.5242970000000  0.4531590000000 1.0
C      1  0.6097160000000  0.4645690000000  0.5412840000000 1.0
C      1  0.5863750000000  0.4453560000000  0.4357950000000 1.0
C      1  0.5452020000000  0.4699000000000  0.4348310000000 1.0
C      1  0.4202070000000  0.4818780000000  0.4963620000000 1.0
C      1  0.4545340000000  0.5332860000000  0.4008430000000 1.0
C      1  0.4757460000000  0.5849930000000  0.5085390000000 1.0
C      1  0.4957810000000  0.4094460000000  0.5277200000000 1.0
C      1  0.4579770000000  0.5265610000000  0.6082130000000 1.0
C      1  0.4851360000000  0.5181350000000  0.6092930000000 1.0
C      1  0.5429130000000  0.5369160000000  0.5632890000000 1.0
C      1  0.4565880000000  0.4888980000000  0.4553570000000 1.0
C      1  0.4371790000000  0.5715220000000  0.4705650000000 1.0
C      1  0.4975470000000  0.4497280000000  0.5677870000000 1.0
C      1  0.5376390000000  0.5960200000000  0.5084600000000 1.0
C      1  0.4388580000000  0.5998820000000  0.5080620000000 1.0
C      1  0.4973050000000  0.4330380000000  0.5042290000000 1.0
C      1  0.5933770000000  0.4469260000000  0.5553700000000 1.0
C      1  0.4450120000000  0.4647710000000  0.4093350000000 1.0
C      1  0.4978860000000  0.4221620000000  0.4718260000000 1.0
C      1  0.4325860000000  0.5805430000000  0.5289330000000 1.0
C      1  0.4423490000000  0.4111050000000  0.5128820000000 1.0
C      1  0.5312770000000  0.5680990000000  0.5702360000000 1.0
C      1  0.4896260000000  0.4819730000000  0.5751490000000 1.0
C      1  0.5952430000000  0.5110340000000  0.4479970000000 1.0
C      1  0.5087300000000  0.5313110000000  0.4901350000000 1.0
C      1  0.4833450000000  0.5252670000000  0.4031720000000 1.0
C      1  0.4997620000000  0.5705950000000  0.5244970000000 1.0
C      1  0.5022740000000  0.4999760000000  0.5553390000000 1.0
C      1  0.5782010000000  0.5512470000000  0.4668170000000 1.0
C      1  0.4947830000000  0.4488030000000  0.5342710000000 1.0
END
