TITL C-2847955-7945-88 -0.000171497162487879 125000 -306.901764684656 0 0 55 (C1) n - 1
REM
REM in /home/bkarasulu/work/CARBON/AIRSS/Generating-Clusters/AIREBO/with-SteepDescent/Only-C1/SD-CG-opt/Try1-1.4A-POS3A/HFTN-CG
REM
REM
REM
REM
REM
REM ./C.cell (11c1c37f851c82e70ff6c80c92926a4b)
REM
REM compiler GCC version 9.2.1 20190827 (Red Hat 9.2.1-1)
REM options -cpp -mtune=generic -march=x86-64 -g -O0 -fpre-include=/usr/include/finclude/math-vector-fortran.h
REM seed 1349912889 -2096380022 560532132 893263352 1965274084 1985457375 2116086188 246579214 -367267042 -214975701 1052060830 -2128654216 1934451057 1405818850 855236787 -1911097813 -1008832068 -564281559 -152145353 -1280585608 837767192 -948898973 2145636613 1029309150 333668812 -1276708751 -163938406 413355672 1850583943 -1289979230 -889824943 -1584114384 -1231732455
REM
CELL 1.54180   50.00000   50.00000   50.00000   90.00000   90.00000   90.00000
LATT -1
SFAC C  
C      1  0.5376330000000  0.4294770000000  0.4784250000000 1.0
C      1  0.5121040000000  0.4669230000000  0.4493940000000 1.0
C      1  0.4249090000000  0.5518930000000  0.5077310000000 1.0
C      1  0.5895270000000  0.4954100000000  0.4820110000000 1.0
C      1  0.5167320000000  0.4429270000000  0.5486090000000 1.0
C      1  0.4770540000000  0.4297430000000  0.4810780000000 1.0
C      1  0.5579070000000  0.5494910000000  0.4932210000000 1.0
C      1  0.5148790000000  0.5269070000000  0.5509390000000 1.0
C      1  0.5086910000000  0.5600530000000  0.5180770000000 1.0
C      1  0.4632450000000  0.4747060000000  0.5519370000000 1.0
C      1  0.5489170000000  0.5013510000000  0.5103630000000 1.0
C      1  0.5091590000000  0.5167380000000  0.4392370000000 1.0
C      1  0.4856580000000  0.5100620000000  0.5553450000000 1.0
C      1  0.4456680000000  0.5375880000000  0.5036890000000 1.0
C      1  0.4969630000000  0.4659750000000  0.5050730000000 1.0
C      1  0.5171090000000  0.4705030000000  0.5311980000000 1.0
C      1  0.5358370000000  0.4311060000000  0.5277660000000 1.0
C      1  0.4913480000000  0.4784180000000  0.4737610000000 1.0
C      1  0.5140070000000  0.4954350000000  0.5468300000000 1.0
C      1  0.4716840000000  0.4520210000000  0.4652220000000 1.0
C      1  0.5354430000000  0.4525960000000  0.4633200000000 1.0
C      1  0.5212990000000  0.4882460000000  0.4325560000000 1.0
C      1  0.4968330000000  0.4354540000000  0.5004670000000 1.0
C      1  0.4443470000000  0.5998560000000  0.4528690000000 1.0
C      1  0.4803030000000  0.5873130000000  0.4938720000000 1.0
C      1  0.4809440000000  0.5227530000000  0.4316310000000 1.0
C      1  0.4966570000000  0.5855310000000  0.5161190000000 1.0
C      1  0.5261870000000  0.5448280000000  0.5338810000000 1.0
C      1  0.4882990000000  0.5125800000000  0.5215220000000 1.0
C      1  0.4598690000000  0.5058820000000  0.6023730000000 1.0
C      1  0.4653860000000  0.5002140000000  0.4743410000000 1.0
C      1  0.4468080000000  0.4775830000000  0.5247150000000 1.0
C      1  0.4806870000000  0.4612590000000  0.5754850000000 1.0
C      1  0.4616090000000  0.5880060000000  0.4684270000000 1.0
C      1  0.5636630000000  0.4951480000000  0.4847800000000 1.0
C      1  0.5579060000000  0.4499520000000  0.5254980000000 1.0
C      1  0.5230900000000  0.4253180000000  0.5025740000000 1.0
C      1  0.4705630000000  0.5217280000000  0.4961620000000 1.0
C      1  0.5453220000000  0.5494040000000  0.4712810000000 1.0
C      1  0.5467830000000  0.4751500000000  0.5240800000000 1.0
C      1  0.5002640000000  0.4438930000000  0.5709710000000 1.0
C      1  0.4992930000000  0.5396460000000  0.4930300000000 1.0
C      1  0.5193030000000  0.5336430000000  0.4662040000000 1.0
C      1  0.5487290000000  0.5331520000000  0.5168520000000 1.0
C      1  0.4796300000000  0.4827080000000  0.5247550000000 1.0
C      1  0.4714270000000  0.4939170000000  0.5778460000000 1.0
C      1  0.4256430000000  0.4761060000000  0.4556780000000 1.0
C      1  0.5441040000000  0.4848990000000  0.4651200000000 1.0
C      1  0.5180570000000  0.5154480000000  0.5080510000000 1.0
C      1  0.4627190000000  0.5138330000000  0.4462510000000 1.0
C      1  0.4388410000000  0.4851880000000  0.4779080000000 1.0
C      1  0.4313400000000  0.4795960000000  0.5039720000000 1.0
C      1  0.4816580000000  0.5625600000000  0.4751310000000 1.0
C      1  0.5510750000000  0.4892810000000  0.4321240000000 1.0
C      1  0.5168890000000  0.5006010000000  0.4702500000000 1.0
END
