TITL C-2848499-1157-618 -0.000468855383870621 125000 -218.608605711414 0 0 42 (C1) n - 1
REM
REM in /home/bkarasulu/work/CARBON/AIRSS/Generating-Clusters/AIREBO/with-SteepDescent/Only-C1/SD-CG-opt/Try1-1.4A-POS3A/HFTN-CG
REM
REM
REM
REM
REM
REM ./C.cell (11c1c37f851c82e70ff6c80c92926a4b)
REM
REM compiler GCC version 9.2.1 20190827 (Red Hat 9.2.1-1)
REM options -cpp -mtune=generic -march=x86-64 -g -O0 -fpre-include=/usr/include/finclude/math-vector-fortran.h
REM seed -785475661 2038735368 -565887689 219552001 1611597285 -1353080405 881274801 440901199 -1588644267 668889662 278232576 -461131647 1108067241 2040298979 643578949 1252120392 -771918465 1376557005 1393128576 320724602 -484065680 916195296 1535690050 1051009613 307647115 -293467840 -539711347 1920365727 -846228739 1376254031 2125230521 442263001 1032779669
REM
CELL 1.54180   50.00000   50.00000   50.00000   90.00000   90.00000   90.00000
LATT -1
SFAC C  
C      1  0.5002150000000  0.5059180000000  0.4625810000000 1.0
C      1  0.5314940000000  0.4650240000000  0.4535570000000 1.0
C      1  0.4717880000000  0.5041450000000  0.4116380000000 1.0
C      1  0.5319700000000  0.4764090000000  0.5583560000000 1.0
C      1  0.4539340000000  0.4877300000000  0.5455490000000 1.0
C      1  0.4893900000000  0.4477950000000  0.5722030000000 1.0
C      1  0.4907140000000  0.5375210000000  0.4543130000000 1.0
C      1  0.5149670000000  0.5520800000000  0.4854390000000 1.0
C      1  0.5488880000000  0.4636590000000  0.5401910000000 1.0
C      1  0.4728170000000  0.5674770000000  0.5416980000000 1.0
C      1  0.5082540000000  0.4982080000000  0.5628680000000 1.0
C      1  0.5470610000000  0.5156980000000  0.4819360000000 1.0
C      1  0.5225700000000  0.5273450000000  0.4766480000000 1.0
C      1  0.4938030000000  0.4645760000000  0.5246930000000 1.0
C      1  0.4619890000000  0.5130990000000  0.5408170000000 1.0
C      1  0.4807650000000  0.5122130000000  0.4338850000000 1.0
C      1  0.5613190000000  0.4803450000000  0.5210750000000 1.0
C      1  0.4736060000000  0.4584760000000  0.4723840000000 1.0
C      1  0.5438920000000  0.5257090000000  0.4358360000000 1.0
C      1  0.4631230000000  0.5259150000000  0.5089220000000 1.0
C      1  0.4946090000000  0.5170290000000  0.5182080000000 1.0
C      1  0.4571820000000  0.4966760000000  0.4920510000000 1.0
C      1  0.5505410000000  0.4796540000000  0.4663170000000 1.0
C      1  0.4866860000000  0.5647430000000  0.4743060000000 1.0
C      1  0.4881980000000  0.5011740000000  0.4904540000000 1.0
C      1  0.5390600000000  0.4392860000000  0.5292560000000 1.0
C      1  0.4625970000000  0.4650620000000  0.5312490000000 1.0
C      1  0.4654920000000  0.5377490000000  0.4771320000000 1.0
C      1  0.5424790000000  0.4888330000000  0.4983940000000 1.0
C      1  0.5032300000000  0.4720090000000  0.4632810000000 1.0
C      1  0.4517910000000  0.4698310000000  0.4863880000000 1.0
C      1  0.4906310000000  0.5568130000000  0.5076090000000 1.0
C      1  0.4971450000000  0.5511110000000  0.5404960000000 1.0
C      1  0.4582070000000  0.5583030000000  0.5180260000000 1.0
C      1  0.5209340000000  0.5409870000000  0.4390920000000 1.0
C      1  0.5188450000000  0.4365090000000  0.5111330000000 1.0
C      1  0.4458070000000  0.4559150000000  0.5103950000000 1.0
C      1  0.5118100000000  0.4888640000000  0.5094290000000 1.0
C      1  0.5577670000000  0.5084740000000  0.4543980000000 1.0
C      1  0.5008420000000  0.4663120000000  0.5552510000000 1.0
C      1  0.4938950000000  0.5205960000000  0.5498740000000 1.0
C      1  0.4996930000000  0.4547260000000  0.4926740000000 1.0
END
