TITL C-2847955-7945-33 -0.00164900239173747 125000 -600.06964723758 0 0 109 (C1) n - 1
REM
REM in /home/bkarasulu/work/CARBON/AIRSS/Generating-Clusters/AIREBO/with-SteepDescent/Only-C1/SD-CG-opt/Try1-1.4A-POS3A/HFTN-CG
REM
REM
REM
REM
REM
REM ./C.cell (11c1c37f851c82e70ff6c80c92926a4b)
REM
REM compiler GCC version 9.2.1 20190827 (Red Hat 9.2.1-1)
REM options -cpp -mtune=generic -march=x86-64 -g -O0 -fpre-include=/usr/include/finclude/math-vector-fortran.h
REM seed 459118080 -844608545 1107278551 1468838217 1527798749 -1944775979 -1226570917 -425986287 419892663 833302658 -989010501 1113323975 -506554381 -282727363 1984618268 -1104695522 -493820929 1124243438 1694865705 -1723796526 -947986049 -1980042305 1855491812 -78268628 -603224039 1264183035 -1086761500 -448275700 86068461 -1837507655 -436965617 1067575468 1974598441
REM
CELL 1.54180   50.00000   50.00000   50.00000   90.00000   90.00000   90.00000
LATT -1
SFAC C  
C      1  0.4583030000000  0.5275880000000  0.4461540000000 1.0
C      1  0.5519590000000  0.4491230000000  0.4886900000000 1.0
C      1  0.5026980000000  0.5899320000000  0.5288350000000 1.0
C      1  0.5036830000000  0.4466320000000  0.4778410000000 1.0
C      1  0.4379370000000  0.5076790000000  0.4340960000000 1.0
C      1  0.4391570000000  0.4420700000000  0.5140100000000 1.0
C      1  0.5489040000000  0.4828850000000  0.4920850000000 1.0
C      1  0.5007530000000  0.4689310000000  0.4987410000000 1.0
C      1  0.5052860000000  0.5468750000000  0.4409980000000 1.0
C      1  0.5122450000000  0.4517230000000  0.5257280000000 1.0
C      1  0.4190800000000  0.5279860000000  0.5531700000000 1.0
C      1  0.5124590000000  0.5469750000000  0.5728800000000 1.0
C      1  0.5572920000000  0.5647980000000  0.4772420000000 1.0
C      1  0.5616880000000  0.5425660000000  0.5556580000000 1.0
C      1  0.5091370000000  0.5720250000000  0.4636170000000 1.0
C      1  0.4867320000000  0.5517270000000  0.4896280000000 1.0
C      1  0.5122630000000  0.4277770000000  0.4437720000000 1.0
C      1  0.5369070000000  0.5383080000000  0.4839910000000 1.0
C      1  0.5223760000000  0.4813260000000  0.5343080000000 1.0
C      1  0.5323920000000  0.5048510000000  0.4383150000000 1.0
C      1  0.5815060000000  0.4922040000000  0.4566890000000 1.0
C      1  0.5673760000000  0.4686500000000  0.4440950000000 1.0
C      1  0.5168710000000  0.4553880000000  0.4266030000000 1.0
C      1  0.5688350000000  0.4582120000000  0.5322620000000 1.0
C      1  0.5283860000000  0.4005450000000  0.4840900000000 1.0
C      1  0.5155340000000  0.5480940000000  0.5023440000000 1.0
C      1  0.4889730000000  0.5335150000000  0.5835020000000 1.0
C      1  0.4654800000000  0.4587120000000  0.5276750000000 1.0
C      1  0.5070570000000  0.5065850000000  0.5174380000000 1.0
C      1  0.5198830000000  0.4933590000000  0.4913660000000 1.0
C      1  0.5511750000000  0.4779750000000  0.5438080000000 1.0
C      1  0.5278820000000  0.4948950000000  0.5714750000000 1.0
C      1  0.5797450000000  0.5049860000000  0.5373910000000 1.0
C      1  0.5590950000000  0.5706470000000  0.5250860000000 1.0
C      1  0.5104570000000  0.5355660000000  0.5307110000000 1.0
C      1  0.4491030000000  0.4720020000000  0.4479700000000 1.0
C      1  0.4859870000000  0.5130480000000  0.4598970000000 1.0
C      1  0.4162350000000  0.5502780000000  0.4796030000000 1.0
C      1  0.5381060000000  0.5381280000000  0.4376150000000 1.0
C      1  0.5694730000000  0.4464590000000  0.4597020000000 1.0
C      1  0.5808490000000  0.4579790000000  0.5041500000000 1.0
C      1  0.4913740000000  0.4575940000000  0.5724590000000 1.0
C      1  0.5724360000000  0.4956960000000  0.5130570000000 1.0
C      1  0.4120890000000  0.4737560000000  0.4752480000000 1.0
C      1  0.5004750000000  0.4847940000000  0.5859200000000 1.0
C      1  0.4571490000000  0.5454070000000  0.5157770000000 1.0
C      1  0.4630090000000  0.5297870000000  0.5650260000000 1.0
C      1  0.4657810000000  0.4571260000000  0.5616470000000 1.0
C      1  0.5580680000000  0.4301760000000  0.5369850000000 1.0
C      1  0.4851380000000  0.4324330000000  0.5187140000000 1.0
C      1  0.5349320000000  0.5269840000000  0.5679710000000 1.0
C      1  0.5600380000000  0.5836960000000  0.5013610000000 1.0
C      1  0.4038600000000  0.5286950000000  0.5028020000000 1.0
C      1  0.4430500000000  0.5488360000000  0.5465280000000 1.0
C      1  0.4427910000000  0.5351430000000  0.4739740000000 1.0
C      1  0.4838720000000  0.4942430000000  0.4152580000000 1.0
C      1  0.4740430000000  0.5548880000000  0.4462250000000 1.0
C      1  0.5042900000000  0.3950530000000  0.4907030000000 1.0
C      1  0.4681990000000  0.4712140000000  0.4961690000000 1.0
C      1  0.4177850000000  0.4983500000000  0.4522330000000 1.0
C      1  0.5904460000000  0.4829160000000  0.4883380000000 1.0
C      1  0.5043440000000  0.4138070000000  0.5587300000000 1.0
C      1  0.4647620000000  0.5737160000000  0.4646620000000 1.0
C      1  0.4902100000000  0.5260790000000  0.4187190000000 1.0
C      1  0.5311200000000  0.4288010000000  0.4711130000000 1.0
C      1  0.5625470000000  0.5087890000000  0.4769820000000 1.0
C      1  0.4189070000000  0.4572480000000  0.5043820000000 1.0
C      1  0.4231700000000  0.5112590000000  0.4821840000000 1.0
C      1  0.4682590000000  0.5775530000000  0.5461870000000 1.0
C      1  0.5380060000000  0.5496500000000  0.5353070000000 1.0
C      1  0.3963800000000  0.4793260000000  0.5047740000000 1.0
C      1  0.4235700000000  0.5473870000000  0.5186300000000 1.0
C      1  0.4745150000000  0.5159870000000  0.5141110000000 1.0
C      1  0.5052620000000  0.5794880000000  0.4965800000000 1.0
C      1  0.5675150000000  0.5322170000000  0.4975380000000 1.0
C      1  0.6005260000000  0.5254870000000  0.5387350000000 1.0
C      1  0.5385820000000  0.4374190000000  0.5164470000000 1.0
C      1  0.4729340000000  0.5917220000000  0.5212150000000 1.0
C      1  0.5295330000000  0.4986880000000  0.4053640000000 1.0
C      1  0.5093960000000  0.4419010000000  0.5582000000000 1.0
C      1  0.4804600000000  0.4851050000000  0.4467400000000 1.0
C      1  0.5072560000000  0.5703890000000  0.5496600000000 1.0
C      1  0.5664390000000  0.5216000000000  0.4467050000000 1.0
C      1  0.4440610000000  0.4847840000000  0.4787680000000 1.0
C      1  0.5848990000000  0.5465270000000  0.4730940000000 1.0
C      1  0.5016430000000  0.4650300000000  0.4531040000000 1.0
C      1  0.5192210000000  0.5145080000000  0.4670060000000 1.0
C      1  0.4923810000000  0.5117260000000  0.6004760000000 1.0
C      1  0.4717580000000  0.5271410000000  0.4836040000000 1.0
C      1  0.4528490000000  0.4873920000000  0.4181690000000 1.0
C      1  0.4841250000000  0.4203290000000  0.4869490000000 1.0
C      1  0.4986400000000  0.4919700000000  0.5533540000000 1.0
C      1  0.4863830000000  0.4076850000000  0.5383770000000 1.0
C      1  0.4487460000000  0.5019840000000  0.5574770000000 1.0
C      1  0.5592250000000  0.5036010000000  0.5615750000000 1.0
C      1  0.4508960000000  0.4215280000000  0.4940980000000 1.0
C      1  0.4829320000000  0.5468710000000  0.5462930000000 1.0
C      1  0.4674330000000  0.4447910000000  0.4506820000000 1.0
C      1  0.4559450000000  0.4471140000000  0.4781380000000 1.0
C      1  0.5086870000000  0.4788900000000  0.4055730000000 1.0
C      1  0.4015340000000  0.5025060000000  0.5188780000000 1.0
C      1  0.5419680000000  0.4744840000000  0.4342940000000 1.0
C      1  0.4478000000000  0.4745530000000  0.5726330000000 1.0
C      1  0.4844390000000  0.4219960000000  0.4529720000000 1.0
C      1  0.4225040000000  0.5026560000000  0.5370260000000 1.0
C      1  0.4648960000000  0.5737590000000  0.4986470000000 1.0
C      1  0.5757380000000  0.5426420000000  0.5246840000000 1.0
C      1  0.4721820000000  0.4907700000000  0.5369010000000 1.0
C      1  0.5373390000000  0.5653560000000  0.4546410000000 1.0
END
