TITL C-2848497-6229-471 0.0170658039645173 125000 -258.8331602056 0 0 49 (C1) n - 1
REM
REM in /home/bkarasulu/work/CARBON/AIRSS/Generating-Clusters/AIREBO/with-SteepDescent/Only-C1/SD-CG-opt/Try1-1.4A-POS3A/HFTN-CG
REM
REM
REM
REM
REM
REM ./C.cell (11c1c37f851c82e70ff6c80c92926a4b)
REM
REM compiler GCC version 9.2.1 20190827 (Red Hat 9.2.1-1)
REM options -cpp -mtune=generic -march=x86-64 -g -O0 -fpre-include=/usr/include/finclude/math-vector-fortran.h
REM seed 1340089424 -45417416 136149555 1280374784 -802138546 2104892297 -380812491 -410014034 -421359587 316746056 -1210408473 1508432206 -794582565 -1228921154 -1654581257 -296383569 1400775820 45944900 -636807004 -1057189835 1086006999 -1507554422 -282274001 -1698340755 -1109075170 1682795244 -1440518545 708307904 735079115 -982719855 1183858733 -1162597794 -1282415275
REM
CELL 1.54180   50.00000   50.00000   50.00000   90.00000   90.00000   90.00000
LATT -1
SFAC C  
C      1  0.5740280000000  0.5254520000000  0.5466230000000 1.0
C      1  0.5576370000000  0.4889520000000  0.5177320000000 1.0
C      1  0.5269640000000  0.5534490000000  0.4997560000000 1.0
C      1  0.4472160000000  0.5521920000000  0.5192140000000 1.0
C      1  0.5181810000000  0.5105080000000  0.4418700000000 1.0
C      1  0.5655340000000  0.4637790000000  0.5041320000000 1.0
C      1  0.4548510000000  0.5561780000000  0.4803640000000 1.0
C      1  0.4996960000000  0.4621140000000  0.5295460000000 1.0
C      1  0.4706680000000  0.4959710000000  0.5482750000000 1.0
C      1  0.5582680000000  0.5173610000000  0.4766430000000 1.0
C      1  0.5601040000000  0.4393540000000  0.4831070000000 1.0
C      1  0.5127020000000  0.5697730000000  0.4531550000000 1.0
C      1  0.4593850000000  0.4914560000000  0.4653860000000 1.0
C      1  0.4327110000000  0.5340380000000  0.4679650000000 1.0
C      1  0.5194050000000  0.5444750000000  0.5632770000000 1.0
C      1  0.4890310000000  0.4894770000000  0.5119410000000 1.0
C      1  0.4976400000000  0.5195710000000  0.5252700000000 1.0
C      1  0.4553220000000  0.4733050000000  0.4184610000000 1.0
C      1  0.4588700000000  0.5031270000000  0.5197540000000 1.0
C      1  0.5166320000000  0.4900930000000  0.5652000000000 1.0
C      1  0.5405890000000  0.5068620000000  0.4995490000000 1.0
C      1  0.4745260000000  0.4257670000000  0.5059230000000 1.0
C      1  0.4337240000000  0.5068340000000  0.4764480000000 1.0
C      1  0.4550230000000  0.5404660000000  0.4453320000000 1.0
C      1  0.4581160000000  0.5283690000000  0.4996570000000 1.0
C      1  0.5284720000000  0.4526640000000  0.5314270000000 1.0
C      1  0.4973700000000  0.4389720000000  0.4532180000000 1.0
C      1  0.4704310000000  0.5212240000000  0.4687750000000 1.0
C      1  0.4825730000000  0.4361860000000  0.5304190000000 1.0
C      1  0.4685840000000  0.4746980000000  0.4891210000000 1.0
C      1  0.5006940000000  0.5230050000000  0.4683060000000 1.0
C      1  0.5433630000000  0.4424020000000  0.5104140000000 1.0
C      1  0.5433700000000  0.4991770000000  0.5469200000000 1.0
C      1  0.4823200000000  0.5592410000000  0.4921520000000 1.0
C      1  0.5122530000000  0.4981180000000  0.4883960000000 1.0
C      1  0.5440950000000  0.4660140000000  0.5496700000000 1.0
C      1  0.5071120000000  0.5528700000000  0.4745430000000 1.0
C      1  0.4695910000000  0.4769830000000  0.4413730000000 1.0
C      1  0.5431090000000  0.5319430000000  0.5472310000000 1.0
C      1  0.4955280000000  0.4667230000000  0.4473130000000 1.0
C      1  0.4619230000000  0.4480280000000  0.4877730000000 1.0
C      1  0.5284710000000  0.5300690000000  0.5170690000000 1.0
C      1  0.4958500000000  0.5399970000000  0.5523980000000 1.0
C      1  0.5125400000000  0.4862770000000  0.4582750000000 1.0
C      1  0.5807530000000  0.5046730000000  0.5338300000000 1.0
C      1  0.4940590000000  0.4831710000000  0.5516370000000 1.0
C      1  0.4871350000000  0.5509920000000  0.5176280000000 1.0
C      1  0.4306570000000  0.4997050000000  0.5030990000000 1.0
C      1  0.4829230000000  0.4279430000000  0.4744350000000 1.0
END
