TITL C-2847949-8115-423 -0.00145712072903861 125000 -266.620580869765 0 0 49 (C1) n - 1
REM
REM in /home/bkarasulu/work/CARBON/AIRSS/Generating-Clusters/AIREBO/with-SteepDescent/Only-C1/SD-CG-opt/Try1-1.4A-POS3A/HFTN-CG
REM
REM
REM
REM
REM
REM ./C.cell (11c1c37f851c82e70ff6c80c92926a4b)
REM
REM compiler GCC version 9.2.1 20190827 (Red Hat 9.2.1-1)
REM options -cpp -mtune=generic -march=x86-64 -g -O0 -fpre-include=/usr/include/finclude/math-vector-fortran.h
REM seed -472029648 -1843318395 -300451229 113289608 -1622757226 739771874 408260012 760937477 -1385679059 1591130521 963836330 -962599774 -736637715 1686730457 -127572838 -965176118 -1224732624 -181497822 2133574863 -2143345670 -855076625 631510317 1028708272 -1355155702 -1043095059 -47560363 -855970748 -87727864 1768429987 -481876912 -323302452 -1068274740 -1278208190
REM
CELL 1.54180   50.00000   50.00000   50.00000   90.00000   90.00000   90.00000
LATT -1
SFAC C  
C      1  0.4570880000000  0.5075490000000  0.5595000000000 1.0
C      1  0.4563620000000  0.5603860000000  0.5127010000000 1.0
C      1  0.5174870000000  0.5584120000000  0.5672540000000 1.0
C      1  0.5160280000000  0.5543590000000  0.4994950000000 1.0
C      1  0.5115830000000  0.5017740000000  0.5035750000000 1.0
C      1  0.5670180000000  0.4696190000000  0.5149080000000 1.0
C      1  0.5230770000000  0.4742800000000  0.5437580000000 1.0
C      1  0.4696720000000  0.4423630000000  0.4959550000000 1.0
C      1  0.4807030000000  0.4892400000000  0.4486470000000 1.0
C      1  0.5034930000000  0.5770400000000  0.4954880000000 1.0
C      1  0.4506300000000  0.4536520000000  0.4845180000000 1.0
C      1  0.5504060000000  0.4722860000000  0.5427480000000 1.0
C      1  0.5285920000000  0.5307630000000  0.5063310000000 1.0
C      1  0.5404840000000  0.4394600000000  0.4857740000000 1.0
C      1  0.4926110000000  0.4737490000000  0.5069440000000 1.0
C      1  0.5550470000000  0.5299770000000  0.5139050000000 1.0
C      1  0.4352210000000  0.5037100000000  0.5421070000000 1.0
C      1  0.5077190000000  0.4528700000000  0.5375190000000 1.0
C      1  0.5312440000000  0.4833900000000  0.4250330000000 1.0
C      1  0.4378020000000  0.4820700000000  0.5249560000000 1.0
C      1  0.4670450000000  0.5202080000000  0.4957820000000 1.0
C      1  0.5828480000000  0.4702940000000  0.5426800000000 1.0
C      1  0.5194220000000  0.4257320000000  0.4944000000000 1.0
C      1  0.5183740000000  0.5266150000000  0.4481930000000 1.0
C      1  0.5296090000000  0.5759490000000  0.5811330000000 1.0
C      1  0.4392880000000  0.5132320000000  0.4786100000000 1.0
C      1  0.4895550000000  0.5499500000000  0.5513240000000 1.0
C      1  0.4658990000000  0.4791040000000  0.5112360000000 1.0
C      1  0.4758100000000  0.5618700000000  0.5279440000000 1.0
C      1  0.4687170000000  0.4638640000000  0.4493230000000 1.0
C      1  0.5673600000000  0.4732700000000  0.4599190000000 1.0
C      1  0.5172260000000  0.5273800000000  0.5569380000000 1.0
C      1  0.5448400000000  0.5150140000000  0.4581300000000 1.0
C      1  0.5546590000000  0.4665650000000  0.4886090000000 1.0
C      1  0.5046420000000  0.4899670000000  0.4252750000000 1.0
C      1  0.4387460000000  0.4839680000000  0.4912870000000 1.0
C      1  0.5160610000000  0.3986410000000  0.4927020000000 1.0
C      1  0.5515280000000  0.4899670000000  0.4437190000000 1.0
C      1  0.4696130000000  0.5358670000000  0.4386110000000 1.0
C      1  0.5106910000000  0.5009960000000  0.5375580000000 1.0
C      1  0.5098440000000  0.4977330000000  0.4639910000000 1.0
C      1  0.4605210000000  0.5135950000000  0.4520320000000 1.0
C      1  0.4864680000000  0.5101810000000  0.4822360000000 1.0
C      1  0.4382080000000  0.5356680000000  0.5042490000000 1.0
C      1  0.4853780000000  0.5167520000000  0.5543230000000 1.0
C      1  0.4996240000000  0.4419600000000  0.5084350000000 1.0
C      1  0.4228680000000  0.5257600000000  0.5292930000000 1.0
C      1  0.4968890000000  0.5416490000000  0.4389030000000 1.0
C      1  0.5360010000000  0.4913000000000  0.4820460000000 1.0
END
