TITL C-2848507-1641-277 -0.00085372896401499 125000 -362.732722330229 0 0 68 (C1) n - 1
REM
REM in /home/bkarasulu/work/CARBON/AIRSS/Generating-Clusters/AIREBO/with-SteepDescent/Only-C1/SD-CG-opt/Try1-1.4A-POS3A/HFTN-CG
REM
REM
REM
REM
REM
REM ./C.cell (11c1c37f851c82e70ff6c80c92926a4b)
REM
REM compiler GCC version 9.2.1 20190827 (Red Hat 9.2.1-1)
REM options -cpp -mtune=generic -march=x86-64 -g -O0 -fpre-include=/usr/include/finclude/math-vector-fortran.h
REM seed -606697717 -1823696095 -1450028277 847765303 -1861074058 -985993338 2029349696 1669840928 -525363944 -1897916485 -1853512026 -276709775 1455161215 1151699293 -449995375 -1971422433 -1241399680 1966978059 502545382 -508496040 778834407 1854871073 871475155 1364589715 1586016676 -1954942293 -1512480830 -1663041572 -437484435 -2138614093 1125877602 1669818858 -1209273888
REM
CELL 1.54180   50.00000   50.00000   50.00000   90.00000   90.00000   90.00000
LATT -1
SFAC C  
C      1  0.4412320000000  0.4843950000000  0.5410320000000 1.0
C      1  0.5507550000000  0.4369590000000  0.4567310000000 1.0
C      1  0.4671190000000  0.5663590000000  0.4589530000000 1.0
C      1  0.4647720000000  0.4779590000000  0.5582000000000 1.0
C      1  0.5547780000000  0.4967050000000  0.4508120000000 1.0
C      1  0.5056140000000  0.4689630000000  0.5870980000000 1.0
C      1  0.4717540000000  0.5834480000000  0.5112950000000 1.0
C      1  0.4874380000000  0.5033030000000  0.5588100000000 1.0
C      1  0.4360790000000  0.4610380000000  0.5194590000000 1.0
C      1  0.5673730000000  0.4709870000000  0.4693490000000 1.0
C      1  0.4686380000000  0.5200100000000  0.5338500000000 1.0
C      1  0.5446620000000  0.4923250000000  0.4829760000000 1.0
C      1  0.5027740000000  0.5608060000000  0.5411020000000 1.0
C      1  0.4375010000000  0.5181700000000  0.5435850000000 1.0
C      1  0.4755350000000  0.4582580000000  0.4452350000000 1.0
C      1  0.4398530000000  0.4654220000000  0.4951680000000 1.0
C      1  0.4732150000000  0.5204800000000  0.5003330000000 1.0
C      1  0.5139840000000  0.5532630000000  0.4534810000000 1.0
C      1  0.5109910000000  0.4283660000000  0.4856160000000 1.0
C      1  0.5395600000000  0.5584520000000  0.4651290000000 1.0
C      1  0.5069640000000  0.5206370000000  0.4496600000000 1.0
C      1  0.4798830000000  0.5115030000000  0.4682100000000 1.0
C      1  0.5584600000000  0.4330270000000  0.4967300000000 1.0
C      1  0.4956530000000  0.4641900000000  0.5581460000000 1.0
C      1  0.4511690000000  0.5148790000000  0.4515340000000 1.0
C      1  0.4891860000000  0.4481250000000  0.4914150000000 1.0
C      1  0.5349100000000  0.4184980000000  0.4968010000000 1.0
C      1  0.5109730000000  0.4504270000000  0.6060820000000 1.0
C      1  0.4397040000000  0.5157390000000  0.4894190000000 1.0
C      1  0.4946990000000  0.5156390000000  0.4186630000000 1.0
C      1  0.5649060000000  0.5338800000000  0.5013890000000 1.0
C      1  0.4715110000000  0.5542440000000  0.4967110000000 1.0
C      1  0.4448730000000  0.5280200000000  0.5728360000000 1.0
C      1  0.6301250000000  0.4400710000000  0.4882080000000 1.0
C      1  0.4867020000000  0.5425130000000  0.5512050000000 1.0
C      1  0.4982860000000  0.4377920000000  0.5493430000000 1.0
C      1  0.5472530000000  0.5546310000000  0.4922380000000 1.0
C      1  0.5299490000000  0.5075540000000  0.5284670000000 1.0
C      1  0.4448830000000  0.4959250000000  0.4341210000000 1.0
C      1  0.4175990000000  0.5161500000000  0.5090150000000 1.0
C      1  0.4582150000000  0.4887460000000  0.4812660000000 1.0
C      1  0.4721980000000  0.5289860000000  0.5750700000000 1.0
C      1  0.5617850000000  0.5465440000000  0.5493000000000 1.0
C      1  0.4878170000000  0.4888220000000  0.4117830000000 1.0
C      1  0.6044160000000  0.4439780000000  0.4849320000000 1.0
C      1  0.5001570000000  0.4676530000000  0.5142100000000 1.0
C      1  0.5085070000000  0.4682800000000  0.4148050000000 1.0
C      1  0.5183900000000  0.4747910000000  0.4864010000000 1.0
C      1  0.5159650000000  0.5155510000000  0.6024840000000 1.0
C      1  0.4984340000000  0.4977670000000  0.5024190000000 1.0
C      1  0.5559540000000  0.5085860000000  0.5079880000000 1.0
C      1  0.5773830000000  0.4496860000000  0.4836960000000 1.0
C      1  0.5107240000000  0.4881330000000  0.5392220000000 1.0
C      1  0.4722650000000  0.4608410000000  0.4727970000000 1.0
C      1  0.4529310000000  0.5405890000000  0.4721200000000 1.0
C      1  0.4132830000000  0.4933440000000  0.5238510000000 1.0
C      1  0.5424380000000  0.5386690000000  0.5341210000000 1.0
C      1  0.4999290000000  0.5728630000000  0.4953850000000 1.0
C      1  0.4171830000000  0.5392230000000  0.5269090000000 1.0
C      1  0.5147960000000  0.5259900000000  0.5043040000000 1.0
C      1  0.5263150000000  0.5187230000000  0.4765680000000 1.0
C      1  0.5029190000000  0.4537900000000  0.4389600000000 1.0
C      1  0.4648550000000  0.4777770000000  0.4264150000000 1.0
C      1  0.5212360000000  0.5563360000000  0.5140600000000 1.0
C      1  0.5359400000000  0.5091150000000  0.4360730000000 1.0
C      1  0.5027710000000  0.4969830000000  0.5876300000000 1.0
C      1  0.4937750000000  0.5682190000000  0.4648800000000 1.0
C      1  0.5181040000000  0.4509020000000  0.4639450000000 1.0
END
