TITL C-2847948-6138-403 -0.000854727760095556 125000 -394.745321788122 0 0 72 (C1) n - 1
REM
REM in /home/bkarasulu/work/CARBON/AIRSS/Generating-Clusters/AIREBO/with-SteepDescent/Only-C1/SD-CG-opt/Try1-1.4A-POS3A/HFTN-CG
REM
REM
REM
REM
REM
REM ./C.cell (11c1c37f851c82e70ff6c80c92926a4b)
REM
REM compiler GCC version 9.2.1 20190827 (Red Hat 9.2.1-1)
REM options -cpp -mtune=generic -march=x86-64 -g -O0 -fpre-include=/usr/include/finclude/math-vector-fortran.h
REM seed 535125068 1894651166 -1524796910 -1138377648 -1830868184 697495901 767088551 1424639524 -1631157614 -1379601918 137772067 -814374474 1823406202 1228502389 63234548 1511702576 21828506 2142084156 418248756 -15190222 -2070619104 -395520424 -672193797 -1473062262 -1995882164 -1166772904 -1719913574 -433488417 -1966837300 -832990985 -1253716734 1237893469 -107281503
REM
CELL 1.54180   50.00000   50.00000   50.00000   90.00000   90.00000   90.00000
LATT -1
SFAC C  
C      1  0.5101530000000  0.4897910000000  0.5825850000000 1.0
C      1  0.4913290000000  0.5074150000000  0.4885090000000 1.0
C      1  0.5396950000000  0.4389030000000  0.5260030000000 1.0
C      1  0.5033230000000  0.4254330000000  0.4864980000000 1.0
C      1  0.5300060000000  0.5370170000000  0.5464060000000 1.0
C      1  0.5496750000000  0.5175250000000  0.4757190000000 1.0
C      1  0.4242830000000  0.4884880000000  0.4854130000000 1.0
C      1  0.4950400000000  0.5383140000000  0.4564910000000 1.0
C      1  0.4473390000000  0.5172420000000  0.4564760000000 1.0
C      1  0.4677600000000  0.4633430000000  0.4422110000000 1.0
C      1  0.5598790000000  0.4465560000000  0.5065510000000 1.0
C      1  0.4932690000000  0.4405880000000  0.5304380000000 1.0
C      1  0.5075840000000  0.5816810000000  0.4932520000000 1.0
C      1  0.4813880000000  0.5346930000000  0.5594790000000 1.0
C      1  0.4238890000000  0.5155130000000  0.4765660000000 1.0
C      1  0.4933910000000  0.4770560000000  0.5014560000000 1.0
C      1  0.4980590000000  0.5200210000000  0.4328400000000 1.0
C      1  0.4455390000000  0.4583360000000  0.5293910000000 1.0
C      1  0.4659850000000  0.5412870000000  0.4646920000000 1.0
C      1  0.5527950000000  0.4876050000000  0.5412020000000 1.0
C      1  0.4494580000000  0.5657210000000  0.4782510000000 1.0
C      1  0.5679860000000  0.5185390000000  0.5031430000000 1.0
C      1  0.5699600000000  0.5500900000000  0.5039320000000 1.0
C      1  0.5448380000000  0.4692370000000  0.4915520000000 1.0
C      1  0.5724840000000  0.4930560000000  0.5169530000000 1.0
C      1  0.5374510000000  0.4587480000000  0.5482910000000 1.0
C      1  0.5455690000000  0.5524280000000  0.4512030000000 1.0
C      1  0.5199420000000  0.5115650000000  0.5014190000000 1.0
C      1  0.4669880000000  0.4556860000000  0.5031270000000 1.0
C      1  0.4814610000000  0.5057000000000  0.5425100000000 1.0
C      1  0.4537560000000  0.4721560000000  0.5591850000000 1.0
C      1  0.5197070000000  0.4943320000000  0.5443400000000 1.0
C      1  0.5206020000000  0.5103650000000  0.4145590000000 1.0
C      1  0.4896500000000  0.5373960000000  0.5044760000000 1.0
C      1  0.5203520000000  0.5347850000000  0.4765820000000 1.0
C      1  0.4997930000000  0.5319560000000  0.5316260000000 1.0
C      1  0.4576720000000  0.5503800000000  0.5554190000000 1.0
C      1  0.5529830000000  0.5566390000000  0.5301490000000 1.0
C      1  0.5357330000000  0.5331170000000  0.5144640000000 1.0
C      1  0.4676750000000  0.4345910000000  0.5369490000000 1.0
C      1  0.4338340000000  0.4888280000000  0.5396760000000 1.0
C      1  0.5155800000000  0.4633010000000  0.4853370000000 1.0
C      1  0.4741760000000  0.4342890000000  0.4829990000000 1.0
C      1  0.4254670000000  0.5359090000000  0.5011970000000 1.0
C      1  0.4655810000000  0.4894990000000  0.4638450000000 1.0
C      1  0.5205520000000  0.4621130000000  0.5708850000000 1.0
C      1  0.4579740000000  0.5697740000000  0.5042600000000 1.0
C      1  0.5520920000000  0.4813170000000  0.4422990000000 1.0
C      1  0.5585390000000  0.4859520000000  0.4714220000000 1.0
C      1  0.4581340000000  0.5285870000000  0.4952490000000 1.0
C      1  0.4994250000000  0.4711050000000  0.5316940000000 1.0
C      1  0.5330960000000  0.4872550000000  0.5134910000000 1.0
C      1  0.4864520000000  0.5682860000000  0.5036810000000 1.0
C      1  0.5283810000000  0.5660900000000  0.4774970000000 1.0
C      1  0.4967850000000  0.4986350000000  0.4576570000000 1.0
C      1  0.5613510000000  0.5618190000000  0.4796100000000 1.0
C      1  0.5361030000000  0.5313900000000  0.4364350000000 1.0
C      1  0.4934250000000  0.4468810000000  0.5729050000000 1.0
C      1  0.4987510000000  0.4603590000000  0.4382130000000 1.0
C      1  0.4548380000000  0.4824440000000  0.4928170000000 1.0
C      1  0.5812110000000  0.4681140000000  0.5081250000000 1.0
C      1  0.4436980000000  0.5508170000000  0.5257310000000 1.0
C      1  0.5285400000000  0.5038100000000  0.4528820000000 1.0
C      1  0.4491970000000  0.4911250000000  0.4340800000000 1.0
C      1  0.4617400000000  0.4369300000000  0.4586500000000 1.0
C      1  0.4850080000000  0.4778800000000  0.5617330000000 1.0
C      1  0.4366490000000  0.5174530000000  0.5270060000000 1.0
C      1  0.5138870000000  0.4293500000000  0.5141960000000 1.0
C      1  0.5092460000000  0.4465400000000  0.4613810000000 1.0
C      1  0.5120170000000  0.4803190000000  0.4213940000000 1.0
C      1  0.4632590000000  0.5024640000000  0.5164310000000 1.0
C      1  0.5105740000000  0.5180730000000  0.5669140000000 1.0
END
