TITL C-2847957-7266-306 -0.00151228602743783 125000 -324.054226750457 0 0 60 (C1) n - 1
REM
REM in /home/bkarasulu/work/CARBON/AIRSS/Generating-Clusters/AIREBO/with-SteepDescent/Only-C1/SD-CG-opt/Try1-1.4A-POS3A/HFTN-CG
REM
REM
REM
REM
REM
REM ./C.cell (11c1c37f851c82e70ff6c80c92926a4b)
REM
REM compiler GCC version 9.2.1 20190827 (Red Hat 9.2.1-1)
REM options -cpp -mtune=generic -march=x86-64 -g -O0 -fpre-include=/usr/include/finclude/math-vector-fortran.h
REM seed 571295556 303419572 -1433359092 -1106519556 -162145308 1970315111 -2081141040 -288825844 1388790474 -572142991 -1550171760 -2021267652 -611570443 930406114 -2025023006 -1665359698 915336368 -1126838978 51500693 550821529 1569812220 1045568790 624290851 1540450020 -430952811 805916750 -1219167553 -614942031 -1336930057 240052129 1092489515 737874770 -1895679288
REM
CELL 1.54180   50.00000   50.00000   50.00000   90.00000   90.00000   90.00000
LATT -1
SFAC C  
C      1  0.5045280000000  0.4782950000000  0.4811740000000 1.0
C      1  0.4334400000000  0.5285980000000  0.4965600000000 1.0
C      1  0.4526910000000  0.4606090000000  0.4586750000000 1.0
C      1  0.5002160000000  0.5543610000000  0.4899290000000 1.0
C      1  0.4820350000000  0.4617550000000  0.4966860000000 1.0
C      1  0.4401110000000  0.5018430000000  0.4400390000000 1.0
C      1  0.4678480000000  0.4130480000000  0.4772470000000 1.0
C      1  0.4771850000000  0.5284170000000  0.5719780000000 1.0
C      1  0.5363730000000  0.4764640000000  0.5329050000000 1.0
C      1  0.5483020000000  0.4781550000000  0.5083630000000 1.0
C      1  0.5170560000000  0.4508560000000  0.4220560000000 1.0
C      1  0.4335410000000  0.5098460000000  0.5160740000000 1.0
C      1  0.5714540000000  0.4991040000000  0.5049160000000 1.0
C      1  0.4614120000000  0.4873980000000  0.4983640000000 1.0
C      1  0.4779970000000  0.4364230000000  0.4779190000000 1.0
C      1  0.4634140000000  0.5508540000000  0.5262920000000 1.0
C      1  0.4959250000000  0.5230380000000  0.4808460000000 1.0
C      1  0.4575270000000  0.5509290000000  0.4741000000000 1.0
C      1  0.4587250000000  0.4861530000000  0.5603730000000 1.0
C      1  0.5549900000000  0.5412860000000  0.5123220000000 1.0
C      1  0.4912530000000  0.5605040000000  0.5345090000000 1.0
C      1  0.5172310000000  0.4915450000000  0.5522580000000 1.0
C      1  0.5171400000000  0.5137150000000  0.4561020000000 1.0
C      1  0.4831780000000  0.5299680000000  0.5446230000000 1.0
C      1  0.5723400000000  0.4975550000000  0.4571680000000 1.0
C      1  0.4912800000000  0.4672970000000  0.5249000000000 1.0
C      1  0.4795690000000  0.4699570000000  0.5685480000000 1.0
C      1  0.5117890000000  0.5044650000000  0.5017570000000 1.0
C      1  0.5355110000000  0.5642240000000  0.5216480000000 1.0
C      1  0.4872160000000  0.4530440000000  0.5474460000000 1.0
C      1  0.5115510000000  0.4692590000000  0.6088610000000 1.0
C      1  0.5092590000000  0.5639430000000  0.5141850000000 1.0
C      1  0.4935560000000  0.5007960000000  0.5303450000000 1.0
C      1  0.4862010000000  0.5213720000000  0.4093230000000 1.0
C      1  0.5864320000000  0.5050360000000  0.5275100000000 1.0
C      1  0.4373330000000  0.4748700000000  0.4395810000000 1.0
C      1  0.5662330000000  0.5643840000000  0.5316930000000 1.0
C      1  0.5355280000000  0.4720190000000  0.4811510000000 1.0
C      1  0.4397100000000  0.5235970000000  0.4644900000000 1.0
C      1  0.5430810000000  0.4473030000000  0.4644020000000 1.0
C      1  0.4846930000000  0.5375580000000  0.4343430000000 1.0
C      1  0.5873320000000  0.4960060000000  0.4778770000000 1.0
C      1  0.4598950000000  0.4959620000000  0.5294400000000 1.0
C      1  0.4709280000000  0.5097620000000  0.4441700000000 1.0
C      1  0.4677820000000  0.5100830000000  0.4781090000000 1.0
C      1  0.4859810000000  0.4621280000000  0.4571410000000 1.0
C      1  0.4491060000000  0.5531880000000  0.5034200000000 1.0
C      1  0.5393900000000  0.5418410000000  0.4736680000000 1.0
C      1  0.4441440000000  0.4642330000000  0.4845530000000 1.0
C      1  0.5256210000000  0.4457790000000  0.6537130000000 1.0
C      1  0.4964970000000  0.4680770000000  0.4298890000000 1.0
C      1  0.4905750000000  0.4931450000000  0.4221860000000 1.0
C      1  0.5185620000000  0.5123600000000  0.5786580000000 1.0
C      1  0.5424080000000  0.4989600000000  0.4650100000000 1.0
C      1  0.5434120000000  0.5154450000000  0.4947420000000 1.0
C      1  0.5180760000000  0.4563840000000  0.6309620000000 1.0
C      1  0.5047320000000  0.4814060000000  0.5822140000000 1.0
C      1  0.5383360000000  0.4437310000000  0.4378270000000 1.0
C      1  0.4852640000000  0.5564500000000  0.4594620000000 1.0
C      1  0.5171050000000  0.5452170000000  0.4552970000000 1.0
END
