TITL C-2848499-1157-692 0.00196844198641604 125000 -329.610174196193 0 0 63 (C1) n - 1
REM
REM in /home/bkarasulu/work/CARBON/AIRSS/Generating-Clusters/AIREBO/with-SteepDescent/Only-C1/SD-CG-opt/Try1-1.4A-POS3A/HFTN-CG
REM
REM
REM
REM
REM
REM ./C.cell (11c1c37f851c82e70ff6c80c92926a4b)
REM
REM compiler GCC version 9.2.1 20190827 (Red Hat 9.2.1-1)
REM options -cpp -mtune=generic -march=x86-64 -g -O0 -fpre-include=/usr/include/finclude/math-vector-fortran.h
REM seed 1369235949 -227483168 -2110528668 -291948716 -732789925 -544034251 -353856929 1005821966 -1974833426 99910347 984813681 -1707178483 1298469598 -569337730 1687242170 -415172295 449139736 -1559160436 1788022861 760124046 1959011292 -293051420 1370325137 -804795536 1311807716 1637770356 748143328 -1864865941 868951782 1357529063 -1511096932 -1209831607 -1285727969
REM
CELL 1.54180   50.00000   50.00000   50.00000   90.00000   90.00000   90.00000
LATT -1
SFAC C  
C      1  0.5328660000000  0.5250510000000  0.5417420000000 1.0
C      1  0.5213840000000  0.4366750000000  0.4955440000000 1.0
C      1  0.5279440000000  0.4460470000000  0.5777490000000 1.0
C      1  0.5773370000000  0.4777330000000  0.5112250000000 1.0
C      1  0.5633780000000  0.5035230000000  0.4940020000000 1.0
C      1  0.5354840000000  0.5178200000000  0.4845990000000 1.0
C      1  0.5032980000000  0.4619470000000  0.5206150000000 1.0
C      1  0.5228050000000  0.4571860000000  0.5549610000000 1.0
C      1  0.5348010000000  0.4494240000000  0.5241050000000 1.0
C      1  0.4329240000000  0.5213920000000  0.5160410000000 1.0
C      1  0.4145700000000  0.4844500000000  0.5530630000000 1.0
C      1  0.4400540000000  0.5474910000000  0.5390920000000 1.0
C      1  0.4782670000000  0.4645590000000  0.4981710000000 1.0
C      1  0.4365000000000  0.4715730000000  0.4969900000000 1.0
C      1  0.4733770000000  0.4937590000000  0.5339670000000 1.0
C      1  0.4681570000000  0.4537460000000  0.4612860000000 1.0
C      1  0.5672680000000  0.4386990000000  0.4759250000000 1.0
C      1  0.5432620000000  0.4786410000000  0.4905600000000 1.0
C      1  0.5637160000000  0.4591570000000  0.5208880000000 1.0
C      1  0.4644920000000  0.4569950000000  0.5942100000000 1.0
C      1  0.4430320000000  0.4612950000000  0.5222750000000 1.0
C      1  0.4637210000000  0.5682750000000  0.5259130000000 1.0
C      1  0.4441120000000  0.5011390000000  0.4942620000000 1.0
C      1  0.4896930000000  0.4334690000000  0.5340470000000 1.0
C      1  0.5419040000000  0.5382600000000  0.4314780000000 1.0
C      1  0.5146300000000  0.5028530000000  0.5281700000000 1.0
C      1  0.5459960000000  0.4517940000000  0.4857940000000 1.0
C      1  0.5622050000000  0.5195400000000  0.5413590000000 1.0
C      1  0.4556600000000  0.4682810000000  0.5730860000000 1.0
C      1  0.5163890000000  0.5615340000000  0.5464420000000 1.0
C      1  0.4613690000000  0.5386490000000  0.5145340000000 1.0
C      1  0.5272150000000  0.5532670000000  0.5190210000000 1.0
C      1  0.5162950000000  0.4861420000000  0.4996770000000 1.0
C      1  0.4987370000000  0.4851060000000  0.4235090000000 1.0
C      1  0.5235750000000  0.5209760000000  0.4543230000000 1.0
C      1  0.5260830000000  0.4740820000000  0.4274900000000 1.0
C      1  0.4953120000000  0.5142710000000  0.4365800000000 1.0
C      1  0.5470460000000  0.5681890000000  0.4761600000000 1.0
C      1  0.4687930000000  0.5324230000000  0.4627550000000 1.0
C      1  0.4922080000000  0.5639740000000  0.4892880000000 1.0
C      1  0.4632150000000  0.5054920000000  0.4435960000000 1.0
C      1  0.4943240000000  0.4247280000000  0.4558610000000 1.0
C      1  0.4442320000000  0.4559260000000  0.4743730000000 1.0
C      1  0.4810390000000  0.4795770000000  0.4501770000000 1.0
C      1  0.5202010000000  0.5424820000000  0.5658190000000 1.0
C      1  0.4667200000000  0.4459470000000  0.5215000000000 1.0
C      1  0.4497060000000  0.5156490000000  0.5450500000000 1.0
C      1  0.5009110000000  0.4821920000000  0.5477970000000 1.0
C      1  0.5150550000000  0.5271090000000  0.5060130000000 1.0
C      1  0.5000340000000  0.5672440000000  0.4621690000000 1.0
C      1  0.5250740000000  0.4870180000000  0.4535330000000 1.0
C      1  0.4956560000000  0.4440920000000  0.4788450000000 1.0
C      1  0.5760220000000  0.5164550000000  0.5204980000000 1.0
C      1  0.4775090000000  0.4985030000000  0.5001290000000 1.0
C      1  0.4983860000000  0.4911210000000  0.4743120000000 1.0
C      1  0.4440160000000  0.4821590000000  0.5466630000000 1.0
C      1  0.4786740000000  0.5817530000000  0.5076200000000 1.0
C      1  0.4419050000000  0.5135800000000  0.4669830000000 1.0
C      1  0.5271020000000  0.5565160000000  0.4560520000000 1.0
C      1  0.4835440000000  0.5313920000000  0.4938290000000 1.0
C      1  0.5551450000000  0.5380380000000  0.4098790000000 1.0
C      1  0.5464340000000  0.5668360000000  0.5011620000000 1.0
C      1  0.4792340000000  0.5568000000000  0.4472400000000 1.0
END
