TITL C-2848496-4490-223 -0.00759869138893256 125000 -294.766741922436 0 0 55 (C1) n - 1
REM
REM in /home/bkarasulu/work/CARBON/AIRSS/Generating-Clusters/AIREBO/with-SteepDescent/Only-C1/SD-CG-opt/Try1-1.4A-POS3A/HFTN-CG
REM
REM
REM
REM
REM
REM ./C.cell (11c1c37f851c82e70ff6c80c92926a4b)
REM
REM compiler GCC version 9.2.1 20190827 (Red Hat 9.2.1-1)
REM options -cpp -mtune=generic -march=x86-64 -g -O0 -fpre-include=/usr/include/finclude/math-vector-fortran.h
REM seed -1056183427 -765073689 1862555623 -2140696566 -2073586040 1312007392 -1404482123 1649831234 -550851254 1622915578 1635866610 -1723554773 -2067063494 1523551798 -57100141 -193614883 -965454171 952645132 740528909 -217313975 -861804954 1384023687 554062754 1277981839 662647082 -1442219305 -69862550 -164512571 756342388 -320032828 -102646187 989665572 719549947
REM
CELL 1.54180   50.00000   50.00000   50.00000   90.00000   90.00000   90.00000
LATT -1
SFAC C  
C      1  0.4819510000000  0.4602100000000  0.4460970000000 1.0
C      1  0.4834080000000  0.5394170000000  0.6078030000000 1.0
C      1  0.5642420000000  0.5211760000000  0.4756620000000 1.0
C      1  0.4717200000000  0.5188220000000  0.4948210000000 1.0
C      1  0.5360860000000  0.5036430000000  0.5640670000000 1.0
C      1  0.5322990000000  0.4876770000000  0.5450450000000 1.0
C      1  0.5517970000000  0.4978970000000  0.4971130000000 1.0
C      1  0.4375300000000  0.4748580000000  0.4703390000000 1.0
C      1  0.5497970000000  0.5378310000000  0.4975490000000 1.0
C      1  0.5236750000000  0.4947450000000  0.5159950000000 1.0
C      1  0.5179610000000  0.5594510000000  0.4681810000000 1.0
C      1  0.5536400000000  0.5379340000000  0.5271120000000 1.0
C      1  0.4548960000000  0.4964890000000  0.4550440000000 1.0
C      1  0.5160770000000  0.5780130000000  0.4931780000000 1.0
C      1  0.4840020000000  0.4402170000000  0.5216620000000 1.0
C      1  0.5139630000000  0.4745960000000  0.4932230000000 1.0
C      1  0.5103630000000  0.4485860000000  0.5020260000000 1.0
C      1  0.4768900000000  0.5044370000000  0.4703250000000 1.0
C      1  0.4989180000000  0.4702970000000  0.5575110000000 1.0
C      1  0.4460360000000  0.5073340000000  0.4315480000000 1.0
C      1  0.5195220000000  0.5383680000000  0.4910610000000 1.0
C      1  0.5077150000000  0.4815240000000  0.4390230000000 1.0
C      1  0.4647960000000  0.4328000000000  0.4945630000000 1.0
C      1  0.5002650000000  0.4452640000000  0.4241820000000 1.0
C      1  0.4409080000000  0.5325910000000  0.4938560000000 1.0
C      1  0.4949640000000  0.5027970000000  0.5666870000000 1.0
C      1  0.5632960000000  0.4723280000000  0.4904210000000 1.0
C      1  0.4400090000000  0.4275320000000  0.5127610000000 1.0
C      1  0.5229510000000  0.4359990000000  0.5276270000000 1.0
C      1  0.4755820000000  0.4926920000000  0.5406290000000 1.0
C      1  0.5885820000000  0.5009950000000  0.5356640000000 1.0
C      1  0.5221980000000  0.4604150000000  0.4170100000000 1.0
C      1  0.5020390000000  0.4445190000000  0.5490220000000 1.0
C      1  0.4611940000000  0.5535270000000  0.5001190000000 1.0
C      1  0.4283090000000  0.4840020000000  0.5191540000000 1.0
C      1  0.4551230000000  0.4489460000000  0.5294380000000 1.0
C      1  0.5172020000000  0.5289480000000  0.5641920000000 1.0
C      1  0.4815110000000  0.5597620000000  0.5170730000000 1.0
C      1  0.5255880000000  0.5101860000000  0.4792780000000 1.0
C      1  0.4513990000000  0.4759630000000  0.5324020000000 1.0
C      1  0.4230110000000  0.4891930000000  0.4921810000000 1.0
C      1  0.5479340000000  0.5229570000000  0.4461810000000 1.0
C      1  0.5184510000000  0.5114030000000  0.4372870000000 1.0
C      1  0.4196620000000  0.5166200000000  0.4871530000000 1.0
C      1  0.5815120000000  0.5264770000000  0.4468010000000 1.0
C      1  0.4616230000000  0.4509180000000  0.4719970000000 1.0
C      1  0.4483860000000  0.4593360000000  0.4419930000000 1.0
C      1  0.4939690000000  0.5285380000000  0.5875190000000 1.0
C      1  0.5677440000000  0.5122120000000  0.5222790000000 1.0
C      1  0.5036160000000  0.5384800000000  0.5168030000000 1.0
C      1  0.5034660000000  0.4915530000000  0.4685430000000 1.0
C      1  0.5241770000000  0.5725400000000  0.5194160000000 1.0
C      1  0.4923860000000  0.5081810000000  0.5184530000000 1.0
C      1  0.5246800000000  0.5451140000000  0.5395820000000 1.0
C      1  0.5209810000000  0.5436890000000  0.4453460000000 1.0
END
