TITL C-2847946-5639-445 0.00269025908692152 125000 -406.979497108962 0 0 75 (C1) n - 1
REM
REM in /home/bkarasulu/work/CARBON/AIRSS/Generating-Clusters/AIREBO/with-SteepDescent/Only-C1/SD-CG-opt/Try1-1.4A-POS3A/HFTN-CG
REM
REM
REM
REM
REM
REM ./C.cell (11c1c37f851c82e70ff6c80c92926a4b)
REM
REM compiler GCC version 9.2.1 20190827 (Red Hat 9.2.1-1)
REM options -cpp -mtune=generic -march=x86-64 -g -O0 -fpre-include=/usr/include/finclude/math-vector-fortran.h
REM seed 1007777287 1793648644 -1222735794 -1595122768 -918672592 -1623244753 1782300152 -1938317571 1586156401 1054987055 -511740328 1003891022 -177140968 -1524991658 927699769 -1720963710 1605998226 -525416774 -1417320889 -1990466098 -481840967 -2098650333 -1979728082 -980128185 759830661 1385911381 -1887589453 1141165460 -261141180 1836883140 574547976 -674669527 -451054197
REM
CELL 1.54180   50.00000   50.00000   50.00000   90.00000   90.00000   90.00000
LATT -1
SFAC C  
C      1  0.4894240000000  0.5758310000000  0.5162700000000 1.0
C      1  0.4735410000000  0.5505830000000  0.5493610000000 1.0
C      1  0.5263020000000  0.4574350000000  0.4118290000000 1.0
C      1  0.5104490000000  0.4458460000000  0.5485370000000 1.0
C      1  0.4400630000000  0.5129330000000  0.5415650000000 1.0
C      1  0.5294000000000  0.4880340000000  0.4754900000000 1.0
C      1  0.4882770000000  0.4880840000000  0.4765930000000 1.0
C      1  0.5063900000000  0.4741940000000  0.4227010000000 1.0
C      1  0.4515540000000  0.4523810000000  0.4712400000000 1.0
C      1  0.4981900000000  0.4200510000000  0.4945570000000 1.0
C      1  0.5058950000000  0.5090280000000  0.5400510000000 1.0
C      1  0.5343640000000  0.5565140000000  0.5371190000000 1.0
C      1  0.5110220000000  0.4457660000000  0.5215960000000 1.0
C      1  0.4769240000000  0.5864050000000  0.4702730000000 1.0
C      1  0.5568680000000  0.5372170000000  0.4686540000000 1.0
C      1  0.4641050000000  0.4491940000000  0.5658710000000 1.0
C      1  0.5162160000000  0.5809850000000  0.5274800000000 1.0
C      1  0.5634540000000  0.4628140000000  0.5127040000000 1.0
C      1  0.5768230000000  0.5087460000000  0.5412190000000 1.0
C      1  0.4913480000000  0.4667260000000  0.5649880000000 1.0
C      1  0.4820410000000  0.5427260000000  0.5170850000000 1.0
C      1  0.4325780000000  0.4846170000000  0.5579120000000 1.0
C      1  0.4330440000000  0.4803920000000  0.4713030000000 1.0
C      1  0.5005520000000  0.5162770000000  0.5788680000000 1.0
C      1  0.4782140000000  0.4804290000000  0.5393510000000 1.0
C      1  0.4702120000000  0.5051660000000  0.4998740000000 1.0
C      1  0.4313680000000  0.4855810000000  0.5239250000000 1.0
C      1  0.4622220000000  0.4800300000000  0.4562580000000 1.0
C      1  0.5081850000000  0.4753280000000  0.4521520000000 1.0
C      1  0.4885650000000  0.5214660000000  0.4223140000000 1.0
C      1  0.5383020000000  0.5191600000000  0.4301520000000 1.0
C      1  0.4391550000000  0.5139380000000  0.4671400000000 1.0
C      1  0.5566800000000  0.5152000000000  0.4497630000000 1.0
C      1  0.5307540000000  0.4633860000000  0.5596580000000 1.0
C      1  0.4615280000000  0.4942550000000  0.4308990000000 1.0
C      1  0.5765390000000  0.4907590000000  0.5207050000000 1.0
C      1  0.5097660000000  0.5516250000000  0.4578410000000 1.0
C      1  0.4867600000000  0.4913870000000  0.4129650000000 1.0
C      1  0.5606700000000  0.4839090000000  0.4627430000000 1.0
C      1  0.5093710000000  0.5322640000000  0.4997600000000 1.0
C      1  0.4539080000000  0.4647070000000  0.5306650000000 1.0
C      1  0.4572940000000  0.5361930000000  0.4947040000000 1.0
C      1  0.4597880000000  0.5249270000000  0.4347720000000 1.0
C      1  0.5279710000000  0.5597440000000  0.5036760000000 1.0
C      1  0.5293720000000  0.5151520000000  0.5608650000000 1.0
C      1  0.5343960000000  0.5225500000000  0.5161840000000 1.0
C      1  0.4255620000000  0.5376900000000  0.5312180000000 1.0
C      1  0.5431650000000  0.4417310000000  0.4276440000000 1.0
C      1  0.4413190000000  0.4648480000000  0.5735240000000 1.0
C      1  0.5122220000000  0.4477600000000  0.4653800000000 1.0
C      1  0.5165440000000  0.4869980000000  0.5757800000000 1.0
C      1  0.5104540000000  0.5253870000000  0.4417940000000 1.0
C      1  0.4711710000000  0.4398800000000  0.4884510000000 1.0
C      1  0.5456370000000  0.4593360000000  0.4839330000000 1.0
C      1  0.5404150000000  0.4414710000000  0.4554690000000 1.0
C      1  0.4789940000000  0.5258830000000  0.5645070000000 1.0
C      1  0.5279160000000  0.4341410000000  0.4987250000000 1.0
C      1  0.5473420000000  0.4706760000000  0.5390530000000 1.0
C      1  0.5662400000000  0.5266280000000  0.4924630000000 1.0
C      1  0.5529160000000  0.5312200000000  0.5502480000000 1.0
C      1  0.5340460000000  0.4908180000000  0.5191300000000 1.0
C      1  0.4978360000000  0.4600030000000  0.4936550000000 1.0
C      1  0.5630980000000  0.5384440000000  0.5186140000000 1.0
C      1  0.4619010000000  0.5389360000000  0.4632000000000 1.0
C      1  0.4832890000000  0.5611250000000  0.4602680000000 1.0
C      1  0.4598710000000  0.4356500000000  0.5373230000000 1.0
C      1  0.5331320000000  0.5537780000000  0.4733180000000 1.0
C      1  0.4761980000000  0.5913470000000  0.4973010000000 1.0
C      1  0.5022890000000  0.4845040000000  0.5168050000000 1.0
C      1  0.5562280000000  0.4973510000000  0.4942400000000 1.0
C      1  0.4729920000000  0.5141440000000  0.5331520000000 1.0
C      1  0.4380090000000  0.4983820000000  0.4973540000000 1.0
C      1  0.4719440000000  0.4217440000000  0.5161090000000 1.0
C      1  0.5087260000000  0.5151500000000  0.4741990000000 1.0
C      1  0.4307020000000  0.5450390000000  0.5075130000000 1.0
END
