TITL C-2848497-6229-121 -0.000788099227944338 125000 -324.209654048514 0 0 57 (C1) n - 1
REM
REM in /home/bkarasulu/work/CARBON/AIRSS/Generating-Clusters/AIREBO/with-SteepDescent/Only-C1/SD-CG-opt/Try1-1.4A-POS3A/HFTN-CG
REM
REM
REM
REM
REM
REM ./C.cell (11c1c37f851c82e70ff6c80c92926a4b)
REM
REM compiler GCC version 9.2.1 20190827 (Red Hat 9.2.1-1)
REM options -cpp -mtune=generic -march=x86-64 -g -O0 -fpre-include=/usr/include/finclude/math-vector-fortran.h
REM seed 1092685320 75562314 291876490 -141684838 2132203701 1888551345 1839042289 121802187 557374189 -582508046 1204235200 117705968 1863731109 -1822190690 530354412 2091592195 727982709 -65229281 1814533830 144218633 -2001105047 -1273361608 2102937047 -1451291585 840022333 -1518577965 -1942527033 -7099199 1813966236 -817651798 318745603 -1792269384 -955473899
REM
CELL 1.54180   50.00000   50.00000   50.00000   90.00000   90.00000   90.00000
LATT -1
SFAC C  
C      1  0.5225340000000  0.4753010000000  0.5383180000000 1.0
C      1  0.5222020000000  0.4608710000000  0.5627210000000 1.0
C      1  0.4823380000000  0.5253610000000  0.5631170000000 1.0
C      1  0.4645710000000  0.5537480000000  0.5153780000000 1.0
C      1  0.5024830000000  0.5359240000000  0.5478310000000 1.0
C      1  0.5195260000000  0.4558510000000  0.5130050000000 1.0
C      1  0.4456170000000  0.5456160000000  0.5346970000000 1.0
C      1  0.5714340000000  0.5254840000000  0.4894860000000 1.0
C      1  0.4210990000000  0.5307570000000  0.5304630000000 1.0
C      1  0.5993180000000  0.4681620000000  0.4581710000000 1.0
C      1  0.5190130000000  0.3933130000000  0.4437350000000 1.0
C      1  0.4601070000000  0.4423310000000  0.5337970000000 1.0
C      1  0.5154340000000  0.5862080000000  0.5311900000000 1.0
C      1  0.4763310000000  0.4921330000000  0.5614080000000 1.0
C      1  0.4633800000000  0.4653490000000  0.5464730000000 1.0
C      1  0.4411950000000  0.5695840000000  0.4715820000000 1.0
C      1  0.4887610000000  0.4880390000000  0.4180340000000 1.0
C      1  0.4914830000000  0.5418170000000  0.5181100000000 1.0
C      1  0.5193920000000  0.5602290000000  0.5211620000000 1.0
C      1  0.5239530000000  0.4684660000000  0.4633110000000 1.0
C      1  0.3984430000000  0.5373010000000  0.5148420000000 1.0
C      1  0.4218740000000  0.5072250000000  0.5469560000000 1.0
C      1  0.5035070000000  0.5106750000000  0.4226510000000 1.0
C      1  0.4982360000000  0.4941170000000  0.5354790000000 1.0
C      1  0.4146510000000  0.5628100000000  0.4714910000000 1.0
C      1  0.5432430000000  0.5094790000000  0.4984300000000 1.0
C      1  0.5480680000000  0.5492660000000  0.4291550000000 1.0
C      1  0.5107320000000  0.4172380000000  0.4469990000000 1.0
C      1  0.5168830000000  0.5064190000000  0.4924930000000 1.0
C      1  0.5677070000000  0.4805520000000  0.5195880000000 1.0
C      1  0.4986080000000  0.5116000000000  0.5134190000000 1.0
C      1  0.5545520000000  0.4558870000000  0.4271870000000 1.0
C      1  0.5318480000000  0.5384930000000  0.5443830000000 1.0
C      1  0.4572920000000  0.5689410000000  0.4935040000000 1.0
C      1  0.5484230000000  0.4920750000000  0.5353410000000 1.0
C      1  0.5474440000000  0.5427030000000  0.4766970000000 1.0
C      1  0.5704260000000  0.4914470000000  0.4896240000000 1.0
C      1  0.3736130000000  0.5357890000000  0.5253280000000 1.0
C      1  0.5126580000000  0.4509190000000  0.4875710000000 1.0
C      1  0.4872010000000  0.4820670000000  0.5867390000000 1.0
C      1  0.5144100000000  0.4969370000000  0.4664770000000 1.0
C      1  0.5738600000000  0.4747820000000  0.4660370000000 1.0
C      1  0.5026530000000  0.4479150000000  0.4490720000000 1.0
C      1  0.4671430000000  0.3928010000000  0.4796390000000 1.0
C      1  0.4566080000000  0.5393220000000  0.5613210000000 1.0
C      1  0.5516350000000  0.5200850000000  0.5379360000000 1.0
C      1  0.5355750000000  0.5590890000000  0.4945540000000 1.0
C      1  0.4448960000000  0.5050040000000  0.5629780000000 1.0
C      1  0.4726710000000  0.4174330000000  0.4890580000000 1.0
C      1  0.4907900000000  0.4618340000000  0.4245530000000 1.0
C      1  0.4908370000000  0.4340420000000  0.4773530000000 1.0
C      1  0.5378050000000  0.5360960000000  0.4504960000000 1.0
C      1  0.4026940000000  0.5453140000000  0.4884860000000 1.0
C      1  0.5518180000000  0.4656870000000  0.4528060000000 1.0
C      1  0.5181510000000  0.5159610000000  0.4460920000000 1.0
C      1  0.5733710000000  0.5302680000000  0.5220480000000 1.0
C      1  0.4595000000000  0.4278800000000  0.5112320000000 1.0
END
