TITL C-2848499-1157-666 -0.000416695169379819 125000 -483.600970113782 0 0 87 (C1) n - 1
REM
REM in /home/bkarasulu/work/CARBON/AIRSS/Generating-Clusters/AIREBO/with-SteepDescent/Only-C1/SD-CG-opt/Try1-1.4A-POS3A/HFTN-CG
REM
REM
REM
REM
REM
REM ./C.cell (11c1c37f851c82e70ff6c80c92926a4b)
REM
REM compiler GCC version 9.2.1 20190827 (Red Hat 9.2.1-1)
REM options -cpp -mtune=generic -march=x86-64 -g -O0 -fpre-include=/usr/include/finclude/math-vector-fortran.h
REM seed -1030868211 -1252627449 2025628863 1961233066 1794313312 562250826 -1014691990 -941811610 2070395520 693214316 1232012079 -766552487 929818123 1567851584 -1299398307 3977027 2124566801 -827026872 -100065083 -16284886 949625319 -174474996 -1295389486 1071612371 62920511 -728213049 1182646014 649433804 2110881412 -806182473 -385207016 -1134638539 8275766
REM
CELL 1.54180   50.00000   50.00000   50.00000   90.00000   90.00000   90.00000
LATT -1
SFAC C  
C      1  0.4349580000000  0.4752970000000  0.4517010000000 1.0
C      1  0.4104650000000  0.4874800000000  0.4554780000000 1.0
C      1  0.4530700000000  0.4854750000000  0.4305810000000 1.0
C      1  0.5584900000000  0.5524530000000  0.5351930000000 1.0
C      1  0.5520990000000  0.5162320000000  0.4943740000000 1.0
C      1  0.5542130000000  0.5999440000000  0.4811370000000 1.0
C      1  0.5244190000000  0.4382230000000  0.4486980000000 1.0
C      1  0.4445340000000  0.4820220000000  0.4044130000000 1.0
C      1  0.4511380000000  0.5109350000000  0.5139570000000 1.0
C      1  0.5146150000000  0.4674010000000  0.5933700000000 1.0
C      1  0.5967890000000  0.4904040000000  0.5018630000000 1.0
C      1  0.4710590000000  0.4225550000000  0.5521770000000 1.0
C      1  0.5392890000000  0.4610230000000  0.5502200000000 1.0
C      1  0.5368350000000  0.5475270000000  0.5546950000000 1.0
C      1  0.5806600000000  0.5274920000000  0.5367460000000 1.0
C      1  0.4566340000000  0.4670430000000  0.5538410000000 1.0
C      1  0.4754480000000  0.4833510000000  0.4758130000000 1.0
C      1  0.5725930000000  0.5034320000000  0.5151130000000 1.0
C      1  0.5217550000000  0.4872340000000  0.5256290000000 1.0
C      1  0.4978940000000  0.5193160000000  0.5258630000000 1.0
C      1  0.4291390000000  0.5701010000000  0.4804850000000 1.0
C      1  0.5301070000000  0.4994210000000  0.4656040000000 1.0
C      1  0.4388410000000  0.4656910000000  0.5271120000000 1.0
C      1  0.4079970000000  0.5091450000000  0.4782320000000 1.0
C      1  0.4865510000000  0.5783450000000  0.4620270000000 1.0
C      1  0.4365130000000  0.5054120000000  0.5604840000000 1.0
C      1  0.5122190000000  0.5602010000000  0.5517260000000 1.0
C      1  0.5209980000000  0.5336670000000  0.4272330000000 1.0
C      1  0.5227820000000  0.5331340000000  0.4978500000000 1.0
C      1  0.5465270000000  0.5559030000000  0.5040510000000 1.0
C      1  0.5454800000000  0.4596020000000  0.4877040000000 1.0
C      1  0.4935910000000  0.5388760000000  0.5517410000000 1.0
C      1  0.5377720000000  0.5269720000000  0.4466570000000 1.0
C      1  0.5293120000000  0.4750930000000  0.4340800000000 1.0
C      1  0.4883990000000  0.4517390000000  0.4386270000000 1.0
C      1  0.5542660000000  0.4822380000000  0.5324090000000 1.0
C      1  0.4819410000000  0.5011900000000  0.4334300000000 1.0
C      1  0.4569300000000  0.4063160000000  0.5303140000000 1.0
C      1  0.5395880000000  0.5841110000000  0.4978380000000 1.0
C      1  0.4610040000000  0.4266150000000  0.5039660000000 1.0
C      1  0.5152600000000  0.4496640000000  0.5115570000000 1.0
C      1  0.4992460000000  0.5006550000000  0.4617450000000 1.0
C      1  0.4932630000000  0.5319560000000  0.4315270000000 1.0
C      1  0.4746560000000  0.4532090000000  0.4674060000000 1.0
C      1  0.4422790000000  0.5477640000000  0.4802230000000 1.0
C      1  0.5133980000000  0.5893910000000  0.5072920000000 1.0
C      1  0.4971280000000  0.4238320000000  0.4529580000000 1.0
C      1  0.4508310000000  0.5505370000000  0.5640390000000 1.0
C      1  0.5022230000000  0.4749850000000  0.4312660000000 1.0
C      1  0.5563970000000  0.4924040000000  0.4451990000000 1.0
C      1  0.4557600000000  0.5235170000000  0.5704920000000 1.0
C      1  0.4923550000000  0.4703210000000  0.5232330000000 1.0
C      1  0.4926670000000  0.5488240000000  0.4997020000000 1.0
C      1  0.5071930000000  0.5013230000000  0.5531850000000 1.0
C      1  0.4734260000000  0.5429530000000  0.4752270000000 1.0
C      1  0.4942050000000  0.5778440000000  0.4895740000000 1.0
C      1  0.4832680000000  0.5517590000000  0.4475150000000 1.0
C      1  0.5645490000000  0.5192110000000  0.4644810000000 1.0
C      1  0.3818990000000  0.5016970000000  0.4605690000000 1.0
C      1  0.4410150000000  0.4515950000000  0.5018050000000 1.0
C      1  0.4818840000000  0.4786070000000  0.5527660000000 1.0
C      1  0.4441520000000  0.4589250000000  0.4730030000000 1.0
C      1  0.5499540000000  0.4521290000000  0.4426540000000 1.0
C      1  0.4992580000000  0.5102490000000  0.4928780000000 1.0
C      1  0.5792360000000  0.4834830000000  0.4273290000000 1.0
C      1  0.5349660000000  0.5198940000000  0.5596920000000 1.0
C      1  0.4620920000000  0.5137890000000  0.4757720000000 1.0
C      1  0.4361380000000  0.4950380000000  0.5342610000000 1.0
C      1  0.5639210000000  0.4569480000000  0.4671950000000 1.0
C      1  0.5097700000000  0.5835120000000  0.5353370000000 1.0
C      1  0.5592250000000  0.5072390000000  0.5521000000000 1.0
C      1  0.5772230000000  0.5444100000000  0.5074110000000 1.0
C      1  0.5214790000000  0.4741420000000  0.5678090000000 1.0
C      1  0.5866560000000  0.5330680000000  0.4834580000000 1.0
C      1  0.4943550000000  0.5165760000000  0.6020110000000 1.0
C      1  0.4865490000000  0.5176200000000  0.5754220000000 1.0
C      1  0.5110730000000  0.4125210000000  0.4979380000000 1.0
C      1  0.4752330000000  0.4415880000000  0.5293400000000 1.0
C      1  0.5313230000000  0.4388610000000  0.5343940000000 1.0
C      1  0.4323030000000  0.5189800000000  0.4897320000000 1.0
C      1  0.4757380000000  0.4922690000000  0.5065760000000 1.0
C      1  0.5231430000000  0.4120430000000  0.5225960000000 1.0
C      1  0.4564940000000  0.5578600000000  0.5382460000000 1.0
C      1  0.5360340000000  0.4875400000000  0.4962790000000 1.0
C      1  0.5208800000000  0.4391410000000  0.4812370000000 1.0
C      1  0.4835990000000  0.4250370000000  0.4829400000000 1.0
C      1  0.4693880000000  0.5364780000000  0.5201940000000 1.0
END
