TITL C-2847944-5688-75 0.0019931500511315 125000 -68.7551076641351 0 0 13 (Cs) n - 1
REM
REM in /home/bkarasulu/work/CARBON/AIRSS/Generating-Clusters/AIREBO/with-SteepDescent/Only-C1/SD-CG-opt/Try1-1.4A-POS3A/HFTN-CG
REM
REM
REM
REM
REM
REM ./C.cell (11c1c37f851c82e70ff6c80c92926a4b)
REM
REM compiler GCC version 9.2.1 20190827 (Red Hat 9.2.1-1)
REM options -cpp -mtune=generic -march=x86-64 -g -O0 -fpre-include=/usr/include/finclude/math-vector-fortran.h
REM seed -1920876049 492496258 -573025946 1867396685 1447419575 1872984234 24412830 -444567134 1014606089 1013674591 -2142249363 1709481029 640650950 -1609711876 909756510 1795463940 -1528440606 -221693207 1053549544 2036843304 1429341167 1018806172 220442848 246489889 -1538666736 -935440641 489890233 1251667303 486473295 1841316319 1418315243 -665049652 1508053597
REM
CELL 1.54180   50.00000   50.00000   50.00000   90.00000   90.00000   90.00000
LATT -1
SFAC C  
C      1  0.4673710000000  0.4834310000000  0.4883550000000 1.0
C      1  0.5132730000000  0.5593750000000  0.5236850000000 1.0
C      1  0.4906120000000  0.5478800000000  0.5144840000000 1.0
C      1  0.5379490000000  0.4661350000000  0.4981550000000 1.0
C      1  0.4460420000000  0.4733640000000  0.4769210000000 1.0
C      1  0.4906640000000  0.4949970000000  0.4979770000000 1.0
C      1  0.5140110000000  0.4801010000000  0.4993300000000 1.0
C      1  0.4671030000000  0.5625040000000  0.5127210000000 1.0
C      1  0.5379260000000  0.4402050000000  0.4882910000000 1.0
C      1  0.4903070000000  0.5210340000000  0.5075070000000 1.0
C      1  0.5607880000000  0.4773240000000  0.5072950000000 1.0
C      1  0.4455950000000  0.5769190000000  0.5086390000000 1.0
C      1  0.5383590000000  0.4167300000000  0.4766400000000 1.0
END
