TITL C-2848499-1157-493 0.00259141045133049 125000 -188.679795241233 0 0 34 (C1) n - 1
REM
REM in /home/bkarasulu/work/CARBON/AIRSS/Generating-Clusters/AIREBO/with-SteepDescent/Only-C1/SD-CG-opt/Try1-1.4A-POS3A/HFTN-CG
REM
REM
REM
REM
REM
REM ./C.cell (11c1c37f851c82e70ff6c80c92926a4b)
REM
REM compiler GCC version 9.2.1 20190827 (Red Hat 9.2.1-1)
REM options -cpp -mtune=generic -march=x86-64 -g -O0 -fpre-include=/usr/include/finclude/math-vector-fortran.h
REM seed 1570951821 528318185 725874256 1384949333 1586550715 1569057057 873979008 -1670186659 1486496223 757152187 -433664814 1834122400 1039403099 1921306989 -94710199 -368502849 -1606613592 -171897179 -1402372579 1880546969 1475002726 1475779688 -1218210669 997657331 -1858287399 271612022 1898721784 1284519013 1607018182 -31209172 -690797635 -721567005 -1225031676
REM
CELL 1.54180   50.00000   50.00000   50.00000   90.00000   90.00000   90.00000
LATT -1
SFAC C  
C      1  0.5033250000000  0.5822400000000  0.4644550000000 1.0
C      1  0.5350630000000  0.4306620000000  0.5056190000000 1.0
C      1  0.4849280000000  0.5115680000000  0.4509130000000 1.0
C      1  0.5238640000000  0.4612320000000  0.4593620000000 1.0
C      1  0.5206860000000  0.4816550000000  0.5558610000000 1.0
C      1  0.4725350000000  0.4703350000000  0.5269670000000 1.0
C      1  0.5572370000000  0.4328890000000  0.5490730000000 1.0
C      1  0.5314800000000  0.5159770000000  0.4489180000000 1.0
C      1  0.4504350000000  0.4776830000000  0.5083620000000 1.0
C      1  0.4692360000000  0.5417090000000  0.5170620000000 1.0
C      1  0.4968290000000  0.4926060000000  0.5641030000000 1.0
C      1  0.5308030000000  0.5435500000000  0.4523710000000 1.0
C      1  0.4764970000000  0.4957060000000  0.5450440000000 1.0
C      1  0.4818500000000  0.4984790000000  0.4772200000000 1.0
C      1  0.5224490000000  0.4636190000000  0.5346630000000 1.0
C      1  0.4536360000000  0.5045420000000  0.4892330000000 1.0
C      1  0.5393860000000  0.4419280000000  0.5312130000000 1.0
C      1  0.4843750000000  0.5372100000000  0.4676320000000 1.0
C      1  0.5066520000000  0.5028620000000  0.4352300000000 1.0
C      1  0.4674090000000  0.5333020000000  0.4903270000000 1.0
C      1  0.4666830000000  0.4469810000000  0.5419150000000 1.0
C      1  0.5583420000000  0.5453130000000  0.5212870000000 1.0
C      1  0.5405270000000  0.5275790000000  0.5138750000000 1.0
C      1  0.5005890000000  0.4672740000000  0.5108800000000 1.0
C      1  0.5023550000000  0.4936740000000  0.4955820000000 1.0
C      1  0.4768510000000  0.5927870000000  0.5318900000000 1.0
C      1  0.5226490000000  0.5105010000000  0.5039440000000 1.0
C      1  0.5310240000000  0.4835560000000  0.4456250000000 1.0
C      1  0.4718290000000  0.5680820000000  0.5247220000000 1.0
C      1  0.5066720000000  0.4349420000000  0.4588980000000 1.0
C      1  0.5148880000000  0.4476080000000  0.4893630000000 1.0
C      1  0.4677350000000  0.5204340000000  0.5355870000000 1.0
C      1  0.5060150000000  0.5555530000000  0.4617660000000 1.0
C      1  0.4251650000000  0.4859590000000  0.4910390000000 1.0
END
