TITL C-2848499-1157-411 -0.0318424280687474 125000 -122.631527690331 0 0 24 (C1) n - 1
REM
REM in /home/bkarasulu/work/CARBON/AIRSS/Generating-Clusters/AIREBO/with-SteepDescent/Only-C1/SD-CG-opt/Try1-1.4A-POS3A/HFTN-CG
REM
REM
REM
REM
REM
REM ./C.cell (11c1c37f851c82e70ff6c80c92926a4b)
REM
REM compiler GCC version 9.2.1 20190827 (Red Hat 9.2.1-1)
REM options -cpp -mtune=generic -march=x86-64 -g -O0 -fpre-include=/usr/include/finclude/math-vector-fortran.h
REM seed -951428836 -72707954 -1109957796 106629635 -111867360 -1921894184 -1435824874 1877952080 847028393 1037933647 880601737 662944161 1604992268 1827611103 -1373401490 -946468182 822828630 -1318703123 -785785185 250669897 884973735 1321138815 -483100275 1961902120 227456080 216512115 -1928331864 -1937312123 -182952075 1824084074 1503734921 -1972163559 434041961
REM
CELL 1.54180   50.00000   50.00000   50.00000   90.00000   90.00000   90.00000
LATT -1
SFAC C  
C      1  0.5597300000000  0.4409130000000  0.4837630000000 1.0
C      1  0.5485050000000  0.4542840000000  0.5127420000000 1.0
C      1  0.4971450000000  0.4600330000000  0.5229670000000 1.0
C      1  0.4477280000000  0.5178670000000  0.5136330000000 1.0
C      1  0.4438100000000  0.4946440000000  0.4998080000000 1.0
C      1  0.4802500000000  0.4993660000000  0.4617910000000 1.0
C      1  0.5314990000000  0.5757950000000  0.5424060000000 1.0
C      1  0.4246150000000  0.4570490000000  0.4810480000000 1.0
C      1  0.5599640000000  0.5727600000000  0.5328460000000 1.0
C      1  0.4510920000000  0.4562550000000  0.4723550000000 1.0
C      1  0.5287930000000  0.5738890000000  0.4873130000000 1.0
C      1  0.4923720000000  0.4741520000000  0.5002560000000 1.0
C      1  0.5324880000000  0.5031640000000  0.5107720000000 1.0
C      1  0.5054360000000  0.5026790000000  0.4640550000000 1.0
C      1  0.5329500000000  0.5293530000000  0.5124650000000 1.0
C      1  0.5425800000000  0.4836110000000  0.5282420000000 1.0
C      1  0.5360000000000  0.5593720000000  0.5127820000000 1.0
C      1  0.5394940000000  0.4659820000000  0.4823430000000 1.0
C      1  0.4672200000000  0.4812110000000  0.4839200000000 1.0
C      1  0.3964420000000  0.4861070000000  0.5089670000000 1.0
C      1  0.5202810000000  0.5857490000000  0.4663760000000 1.0
C      1  0.4199030000000  0.4799130000000  0.4975520000000 1.0
C      1  0.5184540000000  0.4875360000000  0.4880380000000 1.0
C      1  0.5232500000000  0.4583160000000  0.5335590000000 1.0
END
