TITL C-2848502-4955-269 0.00294090993150089 125000 -526.85388206998 0 0 98 (C1) n - 1
REM
REM in /home/bkarasulu/work/CARBON/AIRSS/Generating-Clusters/AIREBO/with-SteepDescent/Only-C1/SD-CG-opt/Try1-1.4A-POS3A/HFTN-CG
REM
REM
REM
REM
REM
REM ./C.cell (11c1c37f851c82e70ff6c80c92926a4b)
REM
REM compiler GCC version 9.2.1 20190827 (Red Hat 9.2.1-1)
REM options -cpp -mtune=generic -march=x86-64 -g -O0 -fpre-include=/usr/include/finclude/math-vector-fortran.h
REM seed 1515651845 -682830745 490799378 2076528829 -624499204 596673330 1699323947 -647834876 -873319114 571700902 892321937 922212586 -962998238 1097644863 1258707482 1008853716 -1767266910 986658970 -2094958564 -989411890 242953845 218691144 2078727883 -176229283 840436677 -1065706870 -1656419913 975511251 -1654697092 -723013514 236736645 -532547701 -1520271993
REM
CELL 1.54180   50.00000   50.00000   50.00000   90.00000   90.00000   90.00000
LATT -1
SFAC C  
C      1  0.5171070000000  0.5736660000000  0.4587000000000 1.0
C      1  0.4473810000000  0.5185960000000  0.4150290000000 1.0
C      1  0.5037410000000  0.4783110000000  0.5769280000000 1.0
C      1  0.5323580000000  0.4196060000000  0.5536670000000 1.0
C      1  0.4821510000000  0.5137990000000  0.4674500000000 1.0
C      1  0.4495360000000  0.5517830000000  0.4504160000000 1.0
C      1  0.5343150000000  0.4533240000000  0.5073170000000 1.0
C      1  0.4897840000000  0.4653560000000  0.5288850000000 1.0
C      1  0.5108810000000  0.5283300000000  0.4679510000000 1.0
C      1  0.5639550000000  0.5482020000000  0.4636250000000 1.0
C      1  0.4216980000000  0.4730380000000  0.4745920000000 1.0
C      1  0.5005040000000  0.4885750000000  0.5465260000000 1.0
C      1  0.4745110000000  0.5221410000000  0.5867050000000 1.0
C      1  0.5103910000000  0.5017680000000  0.4322560000000 1.0
C      1  0.5353740000000  0.5301730000000  0.5669470000000 1.0
C      1  0.5245590000000  0.5045050000000  0.5833350000000 1.0
C      1  0.4652530000000  0.5362800000000  0.4172190000000 1.0
C      1  0.4921040000000  0.5802470000000  0.4754730000000 1.0
C      1  0.5336500000000  0.3994420000000  0.4529820000000 1.0
C      1  0.5467420000000  0.5485490000000  0.5405950000000 1.0
C      1  0.5676650000000  0.4685560000000  0.5501510000000 1.0
C      1  0.4737680000000  0.4222870000000  0.5431390000000 1.0
C      1  0.5798440000000  0.5184260000000  0.5096350000000 1.0
C      1  0.5336210000000  0.5054840000000  0.4571250000000 1.0
C      1  0.5504230000000  0.4799230000000  0.4203270000000 1.0
C      1  0.5360890000000  0.5198330000000  0.5283750000000 1.0
C      1  0.4563470000000  0.4569150000000  0.4852810000000 1.0
C      1  0.4085220000000  0.4593750000000  0.5207810000000 1.0
C      1  0.5036400000000  0.4908970000000  0.4785540000000 1.0
C      1  0.5083320000000  0.5753930000000  0.5115890000000 1.0
C      1  0.4754860000000  0.5725080000000  0.5205600000000 1.0
C      1  0.5811560000000  0.4677060000000  0.4993140000000 1.0
C      1  0.4530660000000  0.5225410000000  0.5385270000000 1.0
C      1  0.4586810000000  0.4992290000000  0.5801740000000 1.0
C      1  0.5553230000000  0.5586700000000  0.4889540000000 1.0
C      1  0.4533390000000  0.5081980000000  0.5077000000000 1.0
C      1  0.5018250000000  0.4213580000000  0.5471920000000 1.0
C      1  0.4419420000000  0.5018560000000  0.5574770000000 1.0
C      1  0.5342810000000  0.4481010000000  0.4731740000000 1.0
C      1  0.5993120000000  0.5171990000000  0.4906500000000 1.0
C      1  0.5543610000000  0.5273670000000  0.4424070000000 1.0
C      1  0.4488510000000  0.4691710000000  0.4544600000000 1.0
C      1  0.4371530000000  0.4608080000000  0.5364360000000 1.0
C      1  0.5094900000000  0.5441200000000  0.5538450000000 1.0
C      1  0.4261120000000  0.5491780000000  0.5268620000000 1.0
C      1  0.4545930000000  0.4397200000000  0.5558670000000 1.0
C      1  0.4798030000000  0.5405250000000  0.4464860000000 1.0
C      1  0.5298650000000  0.5017850000000  0.4907420000000 1.0
C      1  0.5632840000000  0.5441110000000  0.5121680000000 1.0
C      1  0.5495420000000  0.4755550000000  0.4600190000000 1.0
C      1  0.5215600000000  0.5693280000000  0.5382170000000 1.0
C      1  0.4645910000000  0.4899290000000  0.4846050000000 1.0
C      1  0.4431050000000  0.5323030000000  0.4860080000000 1.0
C      1  0.4382710000000  0.5200900000000  0.4553920000000 1.0
C      1  0.4983020000000  0.5162640000000  0.5998220000000 1.0
C      1  0.4559190000000  0.5549980000000  0.5422610000000 1.0
C      1  0.4896520000000  0.4726730000000  0.4997840000000 1.0
C      1  0.4845620000000  0.5204120000000  0.5140130000000 1.0
C      1  0.5078470000000  0.5546940000000  0.4386770000000 1.0
C      1  0.5185760000000  0.4214660000000  0.4590300000000 1.0
C      1  0.4603500000000  0.4249980000000  0.4886040000000 1.0
C      1  0.4312860000000  0.5596880000000  0.5000610000000 1.0
C      1  0.4293990000000  0.4928830000000  0.5263840000000 1.0
C      1  0.5241000000000  0.5327750000000  0.4296440000000 1.0
C      1  0.5616260000000  0.4280480000000  0.4757950000000 1.0
C      1  0.4144310000000  0.5233480000000  0.5286460000000 1.0
C      1  0.4616910000000  0.4514770000000  0.5184220000000 1.0
C      1  0.5153280000000  0.4456380000000  0.5287680000000 1.0
C      1  0.5189990000000  0.4563010000000  0.5608470000000 1.0
C      1  0.4782170000000  0.5410320000000  0.5630070000000 1.0
C      1  0.5023760000000  0.4597790000000  0.4718490000000 1.0
C      1  0.5657180000000  0.5141860000000  0.5440780000000 1.0
C      1  0.4921000000000  0.4254200000000  0.4541880000000 1.0
C      1  0.5400630000000  0.4836300000000  0.5118810000000 1.0
C      1  0.5301740000000  0.4918820000000  0.5414020000000 1.0
C      1  0.5641490000000  0.4450090000000  0.4995540000000 1.0
C      1  0.4793100000000  0.4546300000000  0.4498860000000 1.0
C      1  0.5707970000000  0.4883070000000  0.5226040000000 1.0
C      1  0.4788890000000  0.4947400000000  0.4202990000000 1.0
C      1  0.5269920000000  0.4699130000000  0.4146950000000 1.0
C      1  0.4666060000000  0.5907460000000  0.4779680000000 1.0
C      1  0.4489500000000  0.4939370000000  0.4364330000000 1.0
C      1  0.4741750000000  0.4761080000000  0.5870930000000 1.0
C      1  0.5474240000000  0.4856630000000  0.5666470000000 1.0
C      1  0.4923710000000  0.5175030000000  0.5429260000000 1.0
C      1  0.4677770000000  0.5450600000000  0.5056270000000 1.0
C      1  0.4132740000000  0.4799100000000  0.4993950000000 1.0
C      1  0.4509330000000  0.5806330000000  0.4996200000000 1.0
C      1  0.4206240000000  0.5440970000000  0.4387590000000 1.0
C      1  0.4978090000000  0.4703510000000  0.4289070000000 1.0
C      1  0.5688000000000  0.5060950000000  0.4253450000000 1.0
C      1  0.5033680000000  0.5509120000000  0.4885230000000 1.0
C      1  0.5804510000000  0.4789360000000  0.4736130000000 1.0
C      1  0.5482370000000  0.4460700000000  0.5555760000000 1.0
C      1  0.4643260000000  0.4161250000000  0.5156120000000 1.0
C      1  0.5325660000000  0.5769990000000  0.4872130000000 1.0
C      1  0.5775470000000  0.4770980000000  0.4405960000000 1.0
C      1  0.5146660000000  0.5254320000000  0.5071570000000 1.0
END
