TITL C-2848508-1660-471 -0.00114754254885155 125000 -1046.74837328027 0 0 188 (C1) n - 1
REM
REM in /home/bkarasulu/work/CARBON/AIRSS/Generating-Clusters/AIREBO/with-SteepDescent/Only-C1/SD-CG-opt/Try1-1.4A-POS3A/HFTN-CG
REM
REM
REM
REM
REM
REM ./C.cell (11c1c37f851c82e70ff6c80c92926a4b)
REM
REM compiler GCC version 9.2.1 20190827 (Red Hat 9.2.1-1)
REM options -cpp -mtune=generic -march=x86-64 -g -O0 -fpre-include=/usr/include/finclude/math-vector-fortran.h
REM seed 1577486310 -1204976696 -424960785 991369712 -1860408845 296203669 1120935678 -1093434201 1892735758 -1060250239 1156677858 -1483129636 -991881312 648656713 -1357727492 -307959142 1842906607 960322349 -1801032328 -1851130604 1554596775 1235321698 851549164 -1803598794 539192492 -1875891990 -344972162 515257031 -740802838 1915578 740259779 1913514176 -1271932887
REM
CELL 1.54180   50.00000   50.00000   50.00000   90.00000   90.00000   90.00000
LATT -1
SFAC C  
C      1  0.5395120000000  0.5279920000000  0.5502720000000 1.0
C      1  0.5952360000000  0.4449570000000  0.5038500000000 1.0
C      1  0.5424820000000  0.5786330000000  0.5799650000000 1.0
C      1  0.5173310000000  0.4932760000000  0.4740550000000 1.0
C      1  0.5769710000000  0.4993780000000  0.4882260000000 1.0
C      1  0.5171170000000  0.4912080000000  0.5298970000000 1.0
C      1  0.5515140000000  0.4446630000000  0.4771490000000 1.0
C      1  0.5353430000000  0.4456280000000  0.5752380000000 1.0
C      1  0.5691120000000  0.5850880000000  0.4940120000000 1.0
C      1  0.5097890000000  0.4312820000000  0.4450400000000 1.0
C      1  0.4224930000000  0.4077150000000  0.5002710000000 1.0
C      1  0.4788590000000  0.4188150000000  0.4453220000000 1.0
C      1  0.4082450000000  0.4174700000000  0.5227040000000 1.0
C      1  0.4775070000000  0.5401530000000  0.4423870000000 1.0
C      1  0.4836100000000  0.5524350000000  0.4046240000000 1.0
C      1  0.5828830000000  0.5289720000000  0.4422870000000 1.0
C      1  0.4722610000000  0.5852500000000  0.4785990000000 1.0
C      1  0.5154600000000  0.3900390000000  0.4733040000000 1.0
C      1  0.4177100000000  0.4529520000000  0.4948410000000 1.0
C      1  0.5656250000000  0.5402060000000  0.4221910000000 1.0
C      1  0.4650070000000  0.5354650000000  0.6096060000000 1.0
C      1  0.5644110000000  0.4191500000000  0.5320590000000 1.0
C      1  0.4685080000000  0.4803090000000  0.5375880000000 1.0
C      1  0.5692460000000  0.5715690000000  0.5194070000000 1.0
C      1  0.3982120000000  0.4701020000000  0.5381300000000 1.0
C      1  0.4907840000000  0.5192680000000  0.4257320000000 1.0
C      1  0.5350750000000  0.4634000000000  0.4542750000000 1.0
C      1  0.4646760000000  0.4773440000000  0.4378230000000 1.0
C      1  0.5245730000000  0.4196950000000  0.3834580000000 1.0
C      1  0.4453840000000  0.4629370000000  0.5822770000000 1.0
C      1  0.5715210000000  0.4240570000000  0.4293980000000 1.0
C      1  0.5847820000000  0.5466140000000  0.5318480000000 1.0
C      1  0.5917600000000  0.5283430000000  0.4871920000000 1.0
C      1  0.5213190000000  0.4292000000000  0.4748070000000 1.0
C      1  0.4317120000000  0.5811420000000  0.5577580000000 1.0
C      1  0.4087360000000  0.5122500000000  0.5665050000000 1.0
C      1  0.4795390000000  0.4405910000000  0.6005790000000 1.0
C      1  0.4166970000000  0.5289780000000  0.4853060000000 1.0
C      1  0.5332070000000  0.5276790000000  0.4947110000000 1.0
C      1  0.4085720000000  0.5753060000000  0.5156970000000 1.0
C      1  0.4082360000000  0.4957350000000  0.5440270000000 1.0
C      1  0.4516110000000  0.5186720000000  0.5886860000000 1.0
C      1  0.5136170000000  0.5985620000000  0.5341280000000 1.0
C      1  0.5546460000000  0.5146540000000  0.5926700000000 1.0
C      1  0.4047180000000  0.4466070000000  0.5242670000000 1.0
C      1  0.4488990000000  0.5336360000000  0.4464150000000 1.0
C      1  0.5751460000000  0.5026560000000  0.4484690000000 1.0
C      1  0.4654240000000  0.5102950000000  0.4900240000000 1.0
C      1  0.5246030000000  0.4804180000000  0.5018250000000 1.0
C      1  0.4302730000000  0.5303020000000  0.5703850000000 1.0
C      1  0.5365480000000  0.5073110000000  0.6205530000000 1.0
C      1  0.4750020000000  0.4407380000000  0.5673760000000 1.0
C      1  0.4690490000000  0.4725830000000  0.6052900000000 1.0
C      1  0.4945280000000  0.5120100000000  0.5321700000000 1.0
C      1  0.4314720000000  0.4271840000000  0.4822710000000 1.0
C      1  0.4122250000000  0.4915590000000  0.4140870000000 1.0
C      1  0.5419450000000  0.4842250000000  0.5485150000000 1.0
C      1  0.5179850000000  0.5725470000000  0.5040670000000 1.0
C      1  0.4778910000000  0.3885200000000  0.5072870000000 1.0
C      1  0.5611690000000  0.4695440000000  0.5301450000000 1.0
C      1  0.6138150000000  0.5088660000000  0.5221950000000 1.0
C      1  0.4473920000000  0.5870080000000  0.4474240000000 1.0
C      1  0.4970490000000  0.4325140000000  0.4975240000000 1.0
C      1  0.5267920000000  0.5761560000000  0.4279250000000 1.0
C      1  0.4480470000000  0.5158560000000  0.3978720000000 1.0
C      1  0.4753260000000  0.5474760000000  0.5150240000000 1.0
C      1  0.4436530000000  0.4909850000000  0.5987700000000 1.0
C      1  0.3969070000000  0.5202670000000  0.4523270000000 1.0
C      1  0.3938100000000  0.5573890000000  0.5007030000000 1.0
C      1  0.4450590000000  0.5332590000000  0.4768010000000 1.0
C      1  0.5189420000000  0.5395860000000  0.5987670000000 1.0
C      1  0.4881140000000  0.5526030000000  0.5461170000000 1.0
C      1  0.6004100000000  0.4638230000000  0.5261230000000 1.0
C      1  0.4889440000000  0.3970770000000  0.5817350000000 1.0
C      1  0.5144460000000  0.5079270000000  0.4435030000000 1.0
C      1  0.4971130000000  0.4695090000000  0.5394670000000 1.0
C      1  0.5547980000000  0.5162810000000  0.4089530000000 1.0
C      1  0.5002480000000  0.4396600000000  0.5365050000000 1.0
C      1  0.5203560000000  0.5218670000000  0.5734120000000 1.0
C      1  0.5676840000000  0.5188930000000  0.5335220000000 1.0
C      1  0.3889470000000  0.4892460000000  0.4637300000000 1.0
C      1  0.4562550000000  0.4339700000000  0.4657400000000 1.0
C      1  0.4686140000000  0.4183980000000  0.4165320000000 1.0
C      1  0.4465820000000  0.5308470000000  0.5223360000000 1.0
C      1  0.5499860000000  0.5021350000000  0.4689420000000 1.0
C      1  0.4423960000000  0.4578690000000  0.5177570000000 1.0
C      1  0.5561570000000  0.4379390000000  0.4441400000000 1.0
C      1  0.5241960000000  0.4534700000000  0.4236230000000 1.0
C      1  0.6072230000000  0.4656330000000  0.4455050000000 1.0
C      1  0.4806850000000  0.5689740000000  0.5749800000000 1.0
C      1  0.4747000000000  0.5009030000000  0.5740410000000 1.0
C      1  0.4562030000000  0.4668570000000  0.4639530000000 1.0
C      1  0.4580880000000  0.5886320000000  0.5694530000000 1.0
C      1  0.4824440000000  0.4097220000000  0.6027980000000 1.0
C      1  0.4884370000000  0.3922410000000  0.4610250000000 1.0
C      1  0.5468950000000  0.4687620000000  0.4023100000000 1.0
C      1  0.4972010000000  0.5690110000000  0.4230680000000 1.0
C      1  0.5190770000000  0.4683450000000  0.5861640000000 1.0
C      1  0.5822610000000  0.3974180000000  0.5126960000000 1.0
C      1  0.4975210000000  0.4999500000000  0.3799270000000 1.0
C      1  0.4749920000000  0.6080650000000  0.5033530000000 1.0
C      1  0.5388590000000  0.5147560000000  0.5207140000000 1.0
C      1  0.5310740000000  0.5870120000000  0.5544070000000 1.0
C      1  0.5395010000000  0.4066270000000  0.4925910000000 1.0
C      1  0.4877470000000  0.4126640000000  0.5529790000000 1.0
C      1  0.4671890000000  0.3959400000000  0.5316690000000 1.0
C      1  0.4670650000000  0.5000000000000  0.4187180000000 1.0
C      1  0.4912560000000  0.6069760000000  0.4605950000000 1.0
C      1  0.4661250000000  0.5053740000000  0.5206010000000 1.0
C      1  0.4917680000000  0.4746820000000  0.4372130000000 1.0
C      1  0.5188450000000  0.5565700000000  0.5315570000000 1.0
C      1  0.5129630000000  0.3985470000000  0.5350330000000 1.0
C      1  0.5497340000000  0.5600520000000  0.5453490000000 1.0
C      1  0.4475300000000  0.4022380000000  0.4098590000000 1.0
C      1  0.5272990000000  0.5146730000000  0.4062510000000 1.0
C      1  0.4668160000000  0.5782600000000  0.5388590000000 1.0
C      1  0.5803310000000  0.5111150000000  0.5706450000000 1.0
C      1  0.5288860000000  0.6017200000000  0.5089800000000 1.0
C      1  0.5416390000000  0.6117580000000  0.4651320000000 1.0
C      1  0.5044280000000  0.5328720000000  0.5118870000000 1.0
C      1  0.5679720000000  0.4249500000000  0.4987350000000 1.0
C      1  0.4736120000000  0.4466860000000  0.5165610000000 1.0
C      1  0.4948430000000  0.5163970000000  0.4837240000000 1.0
C      1  0.4959000000000  0.5322930000000  0.6227250000000 1.0
C      1  0.5632860000000  0.4460530000000  0.5722060000000 1.0
C      1  0.5051470000000  0.4587010000000  0.6117320000000 1.0
C      1  0.4913690000000  0.5647950000000  0.4919720000000 1.0
C      1  0.5838200000000  0.4929320000000  0.5203140000000 1.0
C      1  0.4400100000000  0.5642170000000  0.5224150000000 1.0
C      1  0.4313990000000  0.5557020000000  0.4288920000000 1.0
C      1  0.4463950000000  0.5654290000000  0.4885860000000 1.0
C      1  0.4216820000000  0.5101210000000  0.5201670000000 1.0
C      1  0.5872140000000  0.4816420000000  0.4319450000000 1.0
C      1  0.4936160000000  0.5432890000000  0.4685350000000 1.0
C      1  0.5940380000000  0.4861490000000  0.5520290000000 1.0
C      1  0.5858970000000  0.5084150000000  0.6045540000000 1.0
C      1  0.4853180000000  0.5988080000000  0.5270660000000 1.0
C      1  0.4927320000000  0.5220430000000  0.5606040000000 1.0
C      1  0.5644820000000  0.5657480000000  0.4664330000000 1.0
C      1  0.4344120000000  0.4866640000000  0.5050800000000 1.0
C      1  0.5411090000000  0.5575670000000  0.4878010000000 1.0
C      1  0.5302960000000  0.5290450000000  0.4622770000000 1.0
C      1  0.5233210000000  0.4306630000000  0.5560410000000 1.0
C      1  0.5038380000000  0.4666140000000  0.4625540000000 1.0
C      1  0.5709130000000  0.4452240000000  0.5456910000000 1.0
C      1  0.5531230000000  0.5644930000000  0.4340580000000 1.0
C      1  0.4442970000000  0.4909570000000  0.4760440000000 1.0
C      1  0.3987090000000  0.5505350000000  0.4677520000000 1.0
C      1  0.4559480000000  0.5455080000000  0.4088840000000 1.0
C      1  0.5390460000000  0.4091110000000  0.5437720000000 1.0
C      1  0.4033680000000  0.5391860000000  0.4252260000000 1.0
C      1  0.4263860000000  0.5662510000000  0.4608370000000 1.0
C      1  0.6037250000000  0.5332770000000  0.5118700000000 1.0
C      1  0.4829010000000  0.4508920000000  0.4772430000000 1.0
C      1  0.4807120000000  0.4368420000000  0.3986830000000 1.0
C      1  0.5751960000000  0.4690640000000  0.4773760000000 1.0
C      1  0.5664700000000  0.4886920000000  0.4101670000000 1.0
C      1  0.4676570000000  0.4589260000000  0.3860190000000 1.0
C      1  0.5208660000000  0.4806660000000  0.3849170000000 1.0
C      1  0.4645050000000  0.6105990000000  0.4486990000000 1.0
C      1  0.6019760000000  0.4562100000000  0.4729120000000 1.0
C      1  0.4313180000000  0.5517140000000  0.5528540000000 1.0
C      1  0.5481830000000  0.5474810000000  0.5863930000000 1.0
C      1  0.4935140000000  0.4828130000000  0.6267210000000 1.0
C      1  0.5501500000000  0.6064060000000  0.4917290000000 1.0
C      1  0.4285110000000  0.5159430000000  0.4257120000000 1.0
C      1  0.3969430000000  0.5275820000000  0.5096790000000 1.0
C      1  0.4141400000000  0.5931400000000  0.5389960000000 1.0
C      1  0.5981760000000  0.3778060000000  0.5111830000000 1.0
C      1  0.5093390000000  0.4365310000000  0.3988840000000 1.0
C      1  0.5011180000000  0.5286250000000  0.3947180000000 1.0
C      1  0.5077120000000  0.4024180000000  0.5040160000000 1.0
C      1  0.4257090000000  0.5027980000000  0.4569470000000 1.0
C      1  0.3964230000000  0.4712810000000  0.4791600000000 1.0
C      1  0.5097530000000  0.5055300000000  0.6265300000000 1.0
C      1  0.5180760000000  0.5940140000000  0.4544590000000 1.0
C      1  0.5455050000000  0.4630020000000  0.5043540000000 1.0
C      1  0.4697960000000  0.3820590000000  0.4805660000000 1.0
C      1  0.4894640000000  0.4713740000000  0.5710270000000 1.0
C      1  0.4507020000000  0.4577100000000  0.5507620000000 1.0
C      1  0.4894280000000  0.5554400000000  0.5988140000000 1.0
C      1  0.5734060000000  0.5440450000000  0.5638370000000 1.0
C      1  0.4690610000000  0.4902920000000  0.3880820000000 1.0
C      1  0.5862040000000  0.5440920000000  0.4652730000000 1.0
C      1  0.5142780000000  0.4855090000000  0.4179270000000 1.0
C      1  0.4765330000000  0.5724900000000  0.4473480000000 1.0
C      1  0.5347820000000  0.4926680000000  0.5761660000000 1.0
C      1  0.5196860000000  0.5613910000000  0.4639390000000 1.0
END
