TITL C-2848498-1409-55 0.00311698228153869 125000 -834.536504235171 0 0 156 (C1) n - 1
REM
REM in /home/bkarasulu/work/CARBON/AIRSS/Generating-Clusters/AIREBO/with-SteepDescent/Only-C1/SD-CG-opt/Try1-1.4A-POS3A/HFTN-CG
REM
REM
REM
REM
REM
REM ./C.cell (11c1c37f851c82e70ff6c80c92926a4b)
REM
REM compiler GCC version 9.2.1 20190827 (Red Hat 9.2.1-1)
REM options -cpp -mtune=generic -march=x86-64 -g -O0 -fpre-include=/usr/include/finclude/math-vector-fortran.h
REM seed 602994719 1129494526 -1368447471 -531376227 242266732 -322739592 -1040606266 -368111550 -801181140 280844002 -1190674385 -222147873 1831335987 -1610930311 -1795042788 -1092304016 -1954047621 1206513075 -291114107 269932345 -251626493 -590262026 -2019729237 493961448 815602576 -2035458911 -1549831023 -384574337 -1431330492 222741194 882670266 -142725354 1442249479
REM
CELL 1.54180   50.00000   50.00000   50.00000   90.00000   90.00000   90.00000
LATT -1
SFAC C  
C      1  0.5476590000000  0.5174300000000  0.4470740000000 1.0
C      1  0.5079830000000  0.5056110000000  0.4466810000000 1.0
C      1  0.4840130000000  0.5636040000000  0.4197540000000 1.0
C      1  0.5674530000000  0.5189200000000  0.4216800000000 1.0
C      1  0.5261910000000  0.4923030000000  0.4055140000000 1.0
C      1  0.4761750000000  0.5089890000000  0.5647520000000 1.0
C      1  0.5463240000000  0.4682730000000  0.5863160000000 1.0
C      1  0.4818590000000  0.4692470000000  0.5971450000000 1.0
C      1  0.5246130000000  0.5091950000000  0.5082690000000 1.0
C      1  0.4275690000000  0.5329830000000  0.4588350000000 1.0
C      1  0.5240050000000  0.5060110000000  0.5944570000000 1.0
C      1  0.4537580000000  0.5241980000000  0.4390080000000 1.0
C      1  0.4433250000000  0.4389950000000  0.5659790000000 1.0
C      1  0.5904680000000  0.5307660000000  0.5494110000000 1.0
C      1  0.3990550000000  0.5200480000000  0.5280740000000 1.0
C      1  0.4039350000000  0.4729360000000  0.5198120000000 1.0
C      1  0.4695610000000  0.4183940000000  0.4352450000000 1.0
C      1  0.4025950000000  0.4919890000000  0.4847740000000 1.0
C      1  0.5186420000000  0.4353990000000  0.4623850000000 1.0
C      1  0.5399360000000  0.5515070000000  0.5475600000000 1.0
C      1  0.5482330000000  0.4615410000000  0.5346390000000 1.0
C      1  0.6037570000000  0.4998870000000  0.4794810000000 1.0
C      1  0.5370540000000  0.4514720000000  0.4176710000000 1.0
C      1  0.4307220000000  0.4274660000000  0.5436310000000 1.0
C      1  0.5797670000000  0.4246790000000  0.5224350000000 1.0
C      1  0.4762460000000  0.5383310000000  0.4585920000000 1.0
C      1  0.5458570000000  0.4637920000000  0.4563320000000 1.0
C      1  0.4972130000000  0.4579640000000  0.4486280000000 1.0
C      1  0.4967630000000  0.5790320000000  0.5295500000000 1.0
C      1  0.5532220000000  0.5204130000000  0.5846820000000 1.0
C      1  0.5446680000000  0.5128840000000  0.4007640000000 1.0
C      1  0.4577290000000  0.4333580000000  0.4975140000000 1.0
C      1  0.4375130000000  0.4760930000000  0.5165840000000 1.0
C      1  0.5360150000000  0.5861250000000  0.5293210000000 1.0
C      1  0.4697500000000  0.6083840000000  0.5267530000000 1.0
C      1  0.5273890000000  0.6041430000000  0.5073950000000 1.0
C      1  0.5073280000000  0.4600290000000  0.5678720000000 1.0
C      1  0.5549830000000  0.4907870000000  0.5474810000000 1.0
C      1  0.5246630000000  0.4188810000000  0.4983670000000 1.0
C      1  0.6109110000000  0.5312980000000  0.4849630000000 1.0
C      1  0.4562780000000  0.5873970000000  0.5312970000000 1.0
C      1  0.4390810000000  0.4855330000000  0.5463730000000 1.0
C      1  0.5032180000000  0.5195740000000  0.5279530000000 1.0
C      1  0.4996900000000  0.5603690000000  0.4497550000000 1.0
C      1  0.4142370000000  0.4678800000000  0.4674690000000 1.0
C      1  0.5805710000000  0.5333500000000  0.5748610000000 1.0
C      1  0.4663870000000  0.4985980000000  0.4766100000000 1.0
C      1  0.4812740000000  0.5160840000000  0.3979270000000 1.0
C      1  0.4255490000000  0.4835910000000  0.4400990000000 1.0
C      1  0.4009840000000  0.5464420000000  0.5103260000000 1.0
C      1  0.4180040000000  0.5117750000000  0.5508460000000 1.0
C      1  0.3877150000000  0.5312490000000  0.4577320000000 1.0
C      1  0.4286320000000  0.4332390000000  0.5151070000000 1.0
C      1  0.5518380000000  0.4451700000000  0.5708460000000 1.0
C      1  0.5051190000000  0.5815290000000  0.5784100000000 1.0
C      1  0.4080600000000  0.5053830000000  0.4550880000000 1.0
C      1  0.4327390000000  0.5412060000000  0.5016730000000 1.0
C      1  0.4532100000000  0.4864180000000  0.4259300000000 1.0
C      1  0.4356210000000  0.5556430000000  0.5925950000000 1.0
C      1  0.5961050000000  0.4086500000000  0.4451420000000 1.0
C      1  0.5704560000000  0.4387780000000  0.5431230000000 1.0
C      1  0.4671960000000  0.4664380000000  0.5447180000000 1.0
C      1  0.6024000000000  0.5103760000000  0.5310290000000 1.0
C      1  0.4817300000000  0.4687610000000  0.4203400000000 1.0
C      1  0.4363810000000  0.4682510000000  0.5737730000000 1.0
C      1  0.5764520000000  0.5443970000000  0.4423720000000 1.0
C      1  0.5378700000000  0.4858630000000  0.4885510000000 1.0
C      1  0.5536450000000  0.5875160000000  0.4935940000000 1.0
C      1  0.5458230000000  0.5370470000000  0.4905910000000 1.0
C      1  0.4611600000000  0.4891550000000  0.5835760000000 1.0
C      1  0.5747120000000  0.5630510000000  0.4971100000000 1.0
C      1  0.5268850000000  0.5423980000000  0.4517580000000 1.0
C      1  0.5026510000000  0.5380280000000  0.5522810000000 1.0
C      1  0.4401780000000  0.5910000000000  0.4949210000000 1.0
C      1  0.5785940000000  0.5292920000000  0.4953380000000 1.0
C      1  0.5176210000000  0.5856230000000  0.5536760000000 1.0
C      1  0.4817530000000  0.4936880000000  0.5063710000000 1.0
C      1  0.5154800000000  0.4727580000000  0.5983310000000 1.0
C      1  0.4704650000000  0.5854300000000  0.4940220000000 1.0
C      1  0.4632790000000  0.5736890000000  0.4405180000000 1.0
C      1  0.4439160000000  0.4686930000000  0.4004830000000 1.0
C      1  0.4430560000000  0.4525690000000  0.4579270000000 1.0
C      1  0.5258230000000  0.4058000000000  0.4365210000000 1.0
C      1  0.4662690000000  0.4363250000000  0.5280740000000 1.0
C      1  0.5564400000000  0.4933320000000  0.4627800000000 1.0
C      1  0.4208860000000  0.5708290000000  0.4956210000000 1.0
C      1  0.5294920000000  0.4037170000000  0.4683190000000 1.0
C      1  0.5155580000000  0.5417610000000  0.6040370000000 1.0
C      1  0.5792710000000  0.4908980000000  0.4300790000000 1.0
C      1  0.4889930000000  0.4169060000000  0.5660470000000 1.0
C      1  0.5080590000000  0.4167930000000  0.5433440000000 1.0
C      1  0.4656830000000  0.5589940000000  0.5150820000000 1.0
C      1  0.4032250000000  0.5498600000000  0.4762090000000 1.0
C      1  0.5756080000000  0.4201720000000  0.4550750000000 1.0
C      1  0.4232770000000  0.4384370000000  0.4819250000000 1.0
C      1  0.4888620000000  0.4156680000000  0.5153020000000 1.0
C      1  0.4569400000000  0.5305160000000  0.5519950000000 1.0
C      1  0.4989060000000  0.4466320000000  0.4864500000000 1.0
C      1  0.5064850000000  0.4775710000000  0.4902860000000 1.0
C      1  0.4392120000000  0.5622140000000  0.4459330000000 1.0
C      1  0.4260460000000  0.5020460000000  0.5036550000000 1.0
C      1  0.5168610000000  0.5690510000000  0.6009240000000 1.0
C      1  0.4459490000000  0.5209710000000  0.5237670000000 1.0
C      1  0.5204660000000  0.5195850000000  0.4761440000000 1.0
C      1  0.5307810000000  0.5377950000000  0.3942420000000 1.0
C      1  0.4771600000000  0.5574420000000  0.5470650000000 1.0
C      1  0.5262350000000  0.4408700000000  0.5504540000000 1.0
C      1  0.5179240000000  0.4744650000000  0.5282350000000 1.0
C      1  0.5132610000000  0.5896350000000  0.4605170000000 1.0
C      1  0.4991090000000  0.5243460000000  0.5818520000000 1.0
C      1  0.4760710000000  0.5270720000000  0.5095950000000 1.0
C      1  0.4796450000000  0.5862080000000  0.4646640000000 1.0
C      1  0.4685480000000  0.3760490000000  0.4596520000000 1.0
C      1  0.5608470000000  0.4704810000000  0.4272160000000 1.0
C      1  0.4955260000000  0.6044310000000  0.5070100000000 1.0
C      1  0.5639760000000  0.4166160000000  0.4931380000000 1.0
C      1  0.4624590000000  0.4444290000000  0.4342620000000 1.0
C      1  0.5894000000000  0.4921620000000  0.4583130000000 1.0
C      1  0.4775110000000  0.5747040000000  0.5743190000000 1.0
C      1  0.4700380000000  0.4662530000000  0.4673070000000 1.0
C      1  0.5207310000000  0.4460990000000  0.5102470000000 1.0
C      1  0.5145590000000  0.4924260000000  0.5636970000000 1.0
C      1  0.4321920000000  0.5336180000000  0.5723420000000 1.0
C      1  0.4551800000000  0.5141700000000  0.4081110000000 1.0
C      1  0.5716360000000  0.5421140000000  0.5254600000000 1.0
C      1  0.5810780000000  0.5545860000000  0.4647350000000 1.0
C      1  0.4905400000000  0.4910850000000  0.5396540000000 1.0
C      1  0.5520480000000  0.4364770000000  0.4689860000000 1.0
C      1  0.5316520000000  0.5213440000000  0.5584110000000 1.0
C      1  0.5156850000000  0.3944730000000  0.5190320000000 1.0
C      1  0.5553560000000  0.4912050000000  0.5745960000000 1.0
C      1  0.4942310000000  0.5379450000000  0.4845300000000 1.0
C      1  0.5607650000000  0.4790440000000  0.5085430000000 1.0
C      1  0.5370720000000  0.5959460000000  0.4695860000000 1.0
C      1  0.4966940000000  0.4914190000000  0.4023850000000 1.0
C      1  0.4943450000000  0.4525980000000  0.5296300000000 1.0
C      1  0.5798010000000  0.4993520000000  0.5114480000000 1.0
C      1  0.4736560000000  0.4029050000000  0.4582360000000 1.0
C      1  0.4293610000000  0.5010330000000  0.5816290000000 1.0
C      1  0.4809400000000  0.4180600000000  0.4823050000000 1.0
C      1  0.4757520000000  0.4475550000000  0.5716790000000 1.0
C      1  0.5050570000000  0.5566330000000  0.5084300000000 1.0
C      1  0.5362270000000  0.5561610000000  0.5140770000000 1.0
C      1  0.6203600000000  0.5090180000000  0.5064250000000 1.0
C      1  0.4535790000000  0.5757110000000  0.5881970000000 1.0
C      1  0.5223140000000  0.4768010000000  0.4355290000000 1.0
C      1  0.5972720000000  0.4131970000000  0.4991140000000 1.0
C      1  0.4763000000000  0.5001820000000  0.4471530000000 1.0
C      1  0.5171650000000  0.5294840000000  0.4242770000000 1.0
C      1  0.4445840000000  0.5170830000000  0.4831650000000 1.0
C      1  0.4934440000000  0.5395280000000  0.4076690000000 1.0
C      1  0.5319820000000  0.4244960000000  0.4178510000000 1.0
C      1  0.4613440000000  0.4667060000000  0.5001780000000 1.0
C      1  0.5489290000000  0.5170730000000  0.5294320000000 1.0
C      1  0.5423610000000  0.3910640000000  0.4975360000000 1.0
C      1  0.3880850000000  0.4971350000000  0.5144970000000 1.0
END
