TITL C-2848503-6230-405 0.00145614634861452 125000 -230.200952826404 0 0 40 (C1) n - 1
REM
REM in /home/bkarasulu/work/CARBON/AIRSS/Generating-Clusters/AIREBO/with-SteepDescent/Only-C1/SD-CG-opt/Try1-1.4A-POS3A/HFTN-CG
REM
REM
REM
REM
REM
REM ./C.cell (11c1c37f851c82e70ff6c80c92926a4b)
REM
REM compiler GCC version 9.2.1 20190827 (Red Hat 9.2.1-1)
REM options -cpp -mtune=generic -march=x86-64 -g -O0 -fpre-include=/usr/include/finclude/math-vector-fortran.h
REM seed 477620634 1215700528 530370457 635902619 -191787197 -727878792 -945470757 -2039342429 1854835206 1705759671 1560722828 1077580013 1711962026 -1999277572 -1036797728 -365038013 -1051356820 821820059 -931232183 -1230676632 1458092822 -856619947 -417418610 211626608 -1669444872 -596948683 -275371135 1374710366 -1023050146 -1791134995 1760367573 -1862490747 700449791
REM
CELL 1.54180   50.00000   50.00000   50.00000   90.00000   90.00000   90.00000
LATT -1
SFAC C  
C      1  0.4266960000000  0.4970660000000  0.5280360000000 1.0
C      1  0.4725650000000  0.5190110000000  0.4976500000000 1.0
C      1  0.5437530000000  0.4679190000000  0.4503200000000 1.0
C      1  0.4921330000000  0.5590880000000  0.5228310000000 1.0
C      1  0.5517210000000  0.4599860000000  0.4833310000000 1.0
C      1  0.4803640000000  0.5377310000000  0.4516140000000 1.0
C      1  0.5526820000000  0.5396920000000  0.5153910000000 1.0
C      1  0.5215140000000  0.5111240000000  0.4505190000000 1.0
C      1  0.5293010000000  0.4522620000000  0.5480550000000 1.0
C      1  0.5231630000000  0.4916590000000  0.5237910000000 1.0
C      1  0.4522640000000  0.4905250000000  0.5352070000000 1.0
C      1  0.4435170000000  0.4600500000000  0.4764320000000 1.0
C      1  0.5415870000000  0.4713300000000  0.5307200000000 1.0
C      1  0.4896510000000  0.4481430000000  0.5208490000000 1.0
C      1  0.4701750000000  0.4661820000000  0.4757940000000 1.0
C      1  0.5423380000000  0.4947910000000  0.4404980000000 1.0
C      1  0.4594350000000  0.5330220000000  0.4706930000000 1.0
C      1  0.5007130000000  0.4514480000000  0.5469780000000 1.0
C      1  0.5479340000000  0.5258160000000  0.4923820000000 1.0
C      1  0.5215400000000  0.5138320000000  0.4805050000000 1.0
C      1  0.4858800000000  0.4698170000000  0.5632940000000 1.0
C      1  0.4524530000000  0.5443590000000  0.5013530000000 1.0
C      1  0.5220260000000  0.4618890000000  0.4827980000000 1.0
C      1  0.4854460000000  0.4723650000000  0.5012950000000 1.0
C      1  0.5027730000000  0.5638160000000  0.4957700000000 1.0
C      1  0.4856560000000  0.4677620000000  0.4520640000000 1.0
C      1  0.5359990000000  0.5448480000000  0.5367390000000 1.0
C      1  0.4633990000000  0.5608740000000  0.5217290000000 1.0
C      1  0.5017710000000  0.5096920000000  0.5386350000000 1.0
C      1  0.4974020000000  0.5598950000000  0.4642750000000 1.0
C      1  0.5119840000000  0.4572270000000  0.4549980000000 1.0
C      1  0.4821170000000  0.4901490000000  0.4346740000000 1.0
C      1  0.4584030000000  0.4727550000000  0.5564410000000 1.0
C      1  0.5607910000000  0.4641810000000  0.5100540000000 1.0
C      1  0.4949170000000  0.5149660000000  0.4406330000000 1.0
C      1  0.4768370000000  0.4984230000000  0.5184040000000 1.0
C      1  0.5134940000000  0.4885160000000  0.4954700000000 1.0
C      1  0.4982780000000  0.4953880000000  0.5663440000000 1.0
C      1  0.5080180000000  0.5398480000000  0.5370550000000 1.0
C      1  0.4993120000000  0.5325550000000  0.4863810000000 1.0
END
