TITL C-2847949-8115-404 -0.000535157709476747 125000 -248.646621091753 0 0 46 (C1) n - 1
REM
REM in /home/bkarasulu/work/CARBON/AIRSS/Generating-Clusters/AIREBO/with-SteepDescent/Only-C1/SD-CG-opt/Try1-1.4A-POS3A/HFTN-CG
REM
REM
REM
REM
REM
REM ./C.cell (11c1c37f851c82e70ff6c80c92926a4b)
REM
REM compiler GCC version 9.2.1 20190827 (Red Hat 9.2.1-1)
REM options -cpp -mtune=generic -march=x86-64 -g -O0 -fpre-include=/usr/include/finclude/math-vector-fortran.h
REM seed 1451785799 -1134767345 -1323685689 -2107681067 967443404 361260624 -2001314180 -1446231575 -2107280961 5421584 -705324130 -1019785981 -549683309 1643989638 1137577980 964948118 -1209832836 -29928046 -655375576 -339473553 -2120335568 -169225450 -1951812785 1358171126 725644577 1736795297 1697228336 -1825454101 104824008 -1329522467 1552447639 1441526714 226958703
REM
CELL 1.54180   50.00000   50.00000   50.00000   90.00000   90.00000   90.00000
LATT -1
SFAC C  
C      1  0.4820600000000  0.5664340000000  0.5433290000000 1.0
C      1  0.5321650000000  0.5395930000000  0.5481360000000 1.0
C      1  0.4990860000000  0.5410040000000  0.5439920000000 1.0
C      1  0.4994170000000  0.4867230000000  0.5243750000000 1.0
C      1  0.5183630000000  0.4899210000000  0.4818980000000 1.0
C      1  0.4882830000000  0.5096560000000  0.5468760000000 1.0
C      1  0.4991020000000  0.5143990000000  0.4801060000000 1.0
C      1  0.5754660000000  0.5102190000000  0.4984260000000 1.0
C      1  0.5308730000000  0.4369090000000  0.4857340000000 1.0
C      1  0.5131820000000  0.4467410000000  0.4660120000000 1.0
C      1  0.4907260000000  0.5700290000000  0.4957280000000 1.0
C      1  0.5393230000000  0.5143400000000  0.5586400000000 1.0
C      1  0.5226540000000  0.5210130000000  0.4462800000000 1.0
C      1  0.5686840000000  0.5227870000000  0.4754440000000 1.0
C      1  0.4680070000000  0.4832280000000  0.5118350000000 1.0
C      1  0.4836680000000  0.4440110000000  0.4726430000000 1.0
C      1  0.4786840000000  0.5784040000000  0.5188200000000 1.0
C      1  0.4848160000000  0.4072470000000  0.5109730000000 1.0
C      1  0.4539190000000  0.4758640000000  0.5418940000000 1.0
C      1  0.5212100000000  0.4344290000000  0.5324290000000 1.0
C      1  0.5116320000000  0.5645520000000  0.4462880000000 1.0
C      1  0.5280430000000  0.5537760000000  0.4683140000000 1.0
C      1  0.5148400000000  0.5014080000000  0.5664500000000 1.0
C      1  0.4653790000000  0.5337220000000  0.4712700000000 1.0
C      1  0.4761770000000  0.4155010000000  0.4864670000000 1.0
C      1  0.4992180000000  0.4178680000000  0.5316590000000 1.0
C      1  0.4754460000000  0.4926660000000  0.4816040000000 1.0
C      1  0.4442380000000  0.4749220000000  0.4167040000000 1.0
C      1  0.5098810000000  0.5447400000000  0.4910830000000 1.0
C      1  0.5195250000000  0.4777470000000  0.5075700000000 1.0
C      1  0.5635500000000  0.5039930000000  0.5489970000000 1.0
C      1  0.4535980000000  0.5306070000000  0.4944850000000 1.0
C      1  0.5764990000000  0.5074180000000  0.5252500000000 1.0
C      1  0.4126540000000  0.5385980000000  0.5313210000000 1.0
C      1  0.4640600000000  0.5151280000000  0.5229240000000 1.0
C      1  0.4556570000000  0.4727850000000  0.4401950000000 1.0
C      1  0.5202290000000  0.4733850000000  0.4591150000000 1.0
C      1  0.4692320000000  0.4512860000000  0.5025870000000 1.0
C      1  0.5275610000000  0.4805490000000  0.4343000000000 1.0
C      1  0.4699130000000  0.4711740000000  0.4635100000000 1.0
C      1  0.5475550000000  0.5323380000000  0.4604560000000 1.0
C      1  0.5287670000000  0.4507490000000  0.5105820000000 1.0
C      1  0.5210050000000  0.5424820000000  0.5187660000000 1.0
C      1  0.4653000000000  0.4895850000000  0.5607210000000 1.0
C      1  0.4363950000000  0.5331520000000  0.5205740000000 1.0
C      1  0.4939580000000  0.5369180000000  0.4552400000000 1.0
END
