TITL C-2848495-5024-597 0.00155103887355555 125000 -1032.0724491842 0 0 195 (C1) n - 1
REM
REM in /home/bkarasulu/work/CARBON/AIRSS/Generating-Clusters/AIREBO/with-SteepDescent/Only-C1/SD-CG-opt/Try1-1.4A-POS3A/HFTN-CG
REM
REM
REM
REM
REM
REM ./C.cell (11c1c37f851c82e70ff6c80c92926a4b)
REM
REM compiler GCC version 9.2.1 20190827 (Red Hat 9.2.1-1)
REM options -cpp -mtune=generic -march=x86-64 -g -O0 -fpre-include=/usr/include/finclude/math-vector-fortran.h
REM seed 1179044571 2029204294 -976076383 2077111267 -1178445544 -357647130 -2109485348 946073688 -1617291000 326341501 34950938 -1768255989 -1001037161 -102040030 -2032512180 1431895406 -640957229 -235217294 -1861589438 115322856 1470568871 2141011736 1453317744 1297130129 1251593960 -1328649117 756986085 1526034205 894936811 -985220453 -1084373434 1122181564 338380791
REM
CELL 1.54180   50.00000   50.00000   50.00000   90.00000   90.00000   90.00000
LATT -1
SFAC C  
C      1  0.4525980000000  0.4612790000000  0.4180530000000 1.0
C      1  0.4891620000000  0.4184830000000  0.5250010000000 1.0
C      1  0.4929910000000  0.5358920000000  0.5523800000000 1.0
C      1  0.4797560000000  0.4530390000000  0.4023800000000 1.0
C      1  0.4872360000000  0.5875240000000  0.5570970000000 1.0
C      1  0.5356260000000  0.4934100000000  0.4880780000000 1.0
C      1  0.5517690000000  0.5244040000000  0.4443710000000 1.0
C      1  0.5294250000000  0.4189670000000  0.4308190000000 1.0
C      1  0.4981050000000  0.5796210000000  0.4626800000000 1.0
C      1  0.5588460000000  0.5172900000000  0.6004010000000 1.0
C      1  0.5404640000000  0.4513950000000  0.4891760000000 1.0
C      1  0.4280580000000  0.5373870000000  0.4523400000000 1.0
C      1  0.4638950000000  0.4055810000000  0.5596440000000 1.0
C      1  0.5699280000000  0.4712940000000  0.5366370000000 1.0
C      1  0.5285020000000  0.3981530000000  0.5467040000000 1.0
C      1  0.5635790000000  0.5960890000000  0.5244580000000 1.0
C      1  0.5226300000000  0.3979600000000  0.4700040000000 1.0
C      1  0.5016320000000  0.5063100000000  0.5819340000000 1.0
C      1  0.5109640000000  0.3809700000000  0.4964360000000 1.0
C      1  0.4636130000000  0.5340080000000  0.5352990000000 1.0
C      1  0.5824510000000  0.4256680000000  0.5085680000000 1.0
C      1  0.4388120000000  0.5254080000000  0.4071300000000 1.0
C      1  0.4464520000000  0.5521360000000  0.4934570000000 1.0
C      1  0.4402890000000  0.5818010000000  0.4797680000000 1.0
C      1  0.4863500000000  0.5041810000000  0.5516200000000 1.0
C      1  0.5412750000000  0.5384040000000  0.5803530000000 1.0
C      1  0.4211670000000  0.5383410000000  0.5021950000000 1.0
C      1  0.4180040000000  0.4456340000000  0.4306040000000 1.0
C      1  0.5688120000000  0.4247190000000  0.5729270000000 1.0
C      1  0.5494650000000  0.5681200000000  0.5684730000000 1.0
C      1  0.4932390000000  0.4493650000000  0.5113720000000 1.0
C      1  0.6103820000000  0.4885350000000  0.5084900000000 1.0
C      1  0.5587700000000  0.5195370000000  0.5326440000000 1.0
C      1  0.5988400000000  0.5675410000000  0.4615250000000 1.0
C      1  0.5851990000000  0.5390050000000  0.5234470000000 1.0
C      1  0.5316190000000  0.5574350000000  0.5004980000000 1.0
C      1  0.5130380000000  0.4684270000000  0.5862850000000 1.0
C      1  0.5099270000000  0.4675530000000  0.4067220000000 1.0
C      1  0.5419610000000  0.5988930000000  0.4555030000000 1.0
C      1  0.5255090000000  0.5976960000000  0.4853270000000 1.0
C      1  0.4012230000000  0.4660620000000  0.4363060000000 1.0
C      1  0.5394310000000  0.4087200000000  0.4982780000000 1.0
C      1  0.4292010000000  0.4875000000000  0.5836720000000 1.0
C      1  0.5900940000000  0.4457670000000  0.4807480000000 1.0
C      1  0.4636230000000  0.5707220000000  0.5594640000000 1.0
C      1  0.5411590000000  0.4685010000000  0.6053960000000 1.0
C      1  0.5726770000000  0.4234450000000  0.5385070000000 1.0
C      1  0.5317150000000  0.4825100000000  0.5372700000000 1.0
C      1  0.4793540000000  0.5465400000000  0.6006560000000 1.0
C      1  0.4619000000000  0.4285040000000  0.4177220000000 1.0
C      1  0.4988980000000  0.5495440000000  0.4955100000000 1.0
C      1  0.5091840000000  0.6086190000000  0.5416260000000 1.0
C      1  0.4858330000000  0.4846760000000  0.3926230000000 1.0
C      1  0.5996860000000  0.5086750000000  0.4505450000000 1.0
C      1  0.4185200000000  0.4632110000000  0.5523250000000 1.0
C      1  0.5805900000000  0.5596040000000  0.4339510000000 1.0
C      1  0.6131750000000  0.4633000000000  0.4858500000000 1.0
C      1  0.6138090000000  0.5036930000000  0.5388070000000 1.0
C      1  0.3763350000000  0.5181640000000  0.5151800000000 1.0
C      1  0.5740170000000  0.5659180000000  0.4846820000000 1.0
C      1  0.4118800000000  0.4447070000000  0.5005920000000 1.0
C      1  0.5330030000000  0.6018540000000  0.5183060000000 1.0
C      1  0.5527400000000  0.5114680000000  0.5615140000000 1.0
C      1  0.5846770000000  0.4862430000000  0.4635250000000 1.0
C      1  0.4243790000000  0.5083660000000  0.5104240000000 1.0
C      1  0.5803320000000  0.5039390000000  0.4114730000000 1.0
C      1  0.4630670000000  0.5927350000000  0.4488550000000 1.0
C      1  0.5075660000000  0.4606740000000  0.5383000000000 1.0
C      1  0.5681150000000  0.5823340000000  0.4565020000000 1.0
C      1  0.4988120000000  0.5636650000000  0.6128920000000 1.0
C      1  0.5333470000000  0.4711960000000  0.4624380000000 1.0
C      1  0.5642790000000  0.4543900000000  0.5095700000000 1.0
C      1  0.4974900000000  0.4078370000000  0.4517220000000 1.0
C      1  0.4351930000000  0.5159630000000  0.5417550000000 1.0
C      1  0.4154850000000  0.4499690000000  0.5826850000000 1.0
C      1  0.4837880000000  0.4842470000000  0.5284180000000 1.0
C      1  0.5107460000000  0.4935540000000  0.6091580000000 1.0
C      1  0.4841860000000  0.4390280000000  0.4491450000000 1.0
C      1  0.5055830000000  0.5762570000000  0.5320710000000 1.0
C      1  0.3962460000000  0.4906360000000  0.5134700000000 1.0
C      1  0.5245210000000  0.4314150000000  0.4689540000000 1.0
C      1  0.3819650000000  0.5364870000000  0.4950960000000 1.0
C      1  0.4385000000000  0.5861090000000  0.5192370000000 1.0
C      1  0.4873190000000  0.4285100000000  0.5686980000000 1.0
C      1  0.5297200000000  0.4902000000000  0.4110070000000 1.0
C      1  0.4473700000000  0.5653530000000  0.4513400000000 1.0
C      1  0.5393400000000  0.4576060000000  0.4318450000000 1.0
C      1  0.4640440000000  0.4117730000000  0.4464090000000 1.0
C      1  0.4550640000000  0.5287800000000  0.5906510000000 1.0
C      1  0.5147150000000  0.5480620000000  0.5352670000000 1.0
C      1  0.4708880000000  0.5085870000000  0.4837810000000 1.0
C      1  0.5665610000000  0.4603580000000  0.4609450000000 1.0
C      1  0.4981500000000  0.4751160000000  0.4620180000000 1.0
C      1  0.5401080000000  0.4974420000000  0.4418960000000 1.0
C      1  0.4385040000000  0.4397660000000  0.4795080000000 1.0
C      1  0.4636760000000  0.6052280000000  0.4772730000000 1.0
C      1  0.3930680000000  0.5625150000000  0.4817340000000 1.0
C      1  0.5865730000000  0.4766600000000  0.4309350000000 1.0
C      1  0.4860110000000  0.5756870000000  0.5091270000000 1.0
C      1  0.6039760000000  0.4984730000000  0.5654000000000 1.0
C      1  0.5250400000000  0.5524120000000  0.6087170000000 1.0
C      1  0.5330950000000  0.5697870000000  0.4122000000000 1.0
C      1  0.4297410000000  0.5137260000000  0.5749460000000 1.0
C      1  0.4844150000000  0.5406480000000  0.3993070000000 1.0
C      1  0.5089710000000  0.4982580000000  0.4441170000000 1.0
C      1  0.4222000000000  0.4373040000000  0.5307150000000 1.0
C      1  0.4710430000000  0.4509250000000  0.4781900000000 1.0
C      1  0.5680870000000  0.5329030000000  0.4166650000000 1.0
C      1  0.4619030000000  0.5670340000000  0.5271330000000 1.0
C      1  0.4440400000000  0.5543770000000  0.5710790000000 1.0
C      1  0.4533300000000  0.5514300000000  0.4213690000000 1.0
C      1  0.4025710000000  0.5596980000000  0.4554560000000 1.0
C      1  0.4380140000000  0.4528380000000  0.6005790000000 1.0
C      1  0.4972520000000  0.5090740000000  0.3778360000000 1.0
C      1  0.4108820000000  0.4919830000000  0.5441350000000 1.0
C      1  0.5095770000000  0.4416940000000  0.4275580000000 1.0
C      1  0.5253800000000  0.5240630000000  0.4797540000000 1.0
C      1  0.5073700000000  0.5382880000000  0.5832340000000 1.0
C      1  0.4908220000000  0.5477510000000  0.4625250000000 1.0
C      1  0.4414880000000  0.4839470000000  0.6127280000000 1.0
C      1  0.4628380000000  0.3938690000000  0.4752910000000 1.0
C      1  0.5811450000000  0.5276410000000  0.4940570000000 1.0
C      1  0.5962820000000  0.4606260000000  0.5218440000000 1.0
C      1  0.5272390000000  0.3873690000000  0.5207770000000 1.0
C      1  0.5711580000000  0.4456120000000  0.4315920000000 1.0
C      1  0.6226760000000  0.5138530000000  0.4893830000000 1.0
C      1  0.4695350000000  0.5341900000000  0.5026980000000 1.0
C      1  0.4185910000000  0.5203290000000  0.4278270000000 1.0
C      1  0.5137270000000  0.5235770000000  0.5116950000000 1.0
C      1  0.4695750000000  0.5007250000000  0.5780480000000 1.0
C      1  0.5639840000000  0.5679000000000  0.5408190000000 1.0
C      1  0.4678790000000  0.4000400000000  0.5282300000000 1.0
C      1  0.4870520000000  0.4534470000000  0.5820020000000 1.0
C      1  0.4006180000000  0.4762900000000  0.4675240000000 1.0
C      1  0.5585090000000  0.4779310000000  0.4123330000000 1.0
C      1  0.4512780000000  0.4593620000000  0.5478430000000 1.0
C      1  0.4332540000000  0.4833320000000  0.4610050000000 1.0
C      1  0.4916310000000  0.5973800000000  0.4882980000000 1.0
C      1  0.5198850000000  0.5197460000000  0.3999490000000 1.0
C      1  0.5257380000000  0.5666430000000  0.4713020000000 1.0
C      1  0.3971980000000  0.4674260000000  0.4948900000000 1.0
C      1  0.5817090000000  0.4960940000000  0.4938990000000 1.0
C      1  0.4079820000000  0.5259510000000  0.4761590000000 1.0
C      1  0.4685760000000  0.4780410000000  0.4986380000000 1.0
C      1  0.4605780000000  0.4529490000000  0.5201560000000 1.0
C      1  0.4651420000000  0.4738850000000  0.4538090000000 1.0
C      1  0.4435840000000  0.4928130000000  0.4090690000000 1.0
C      1  0.4130800000000  0.5772630000000  0.4996680000000 1.0
C      1  0.5505600000000  0.4514240000000  0.5792660000000 1.0
C      1  0.5362300000000  0.4296060000000  0.5232730000000 1.0
C      1  0.4937900000000  0.5063980000000  0.4175490000000 1.0
C      1  0.4881670000000  0.3997410000000  0.4896930000000 1.0
C      1  0.4574560000000  0.5202990000000  0.4548180000000 1.0
C      1  0.5551690000000  0.4929110000000  0.5149360000000 1.0
C      1  0.5511880000000  0.4484640000000  0.5467810000000 1.0
C      1  0.5288850000000  0.5431090000000  0.4517780000000 1.0
C      1  0.6123160000000  0.5308560000000  0.5341660000000 1.0
C      1  0.4241610000000  0.5467290000000  0.5511220000000 1.0
C      1  0.4315460000000  0.4112870000000  0.5492350000000 1.0
C      1  0.5442350000000  0.4976030000000  0.6134210000000 1.0
C      1  0.4462670000000  0.4274040000000  0.5088170000000 1.0
C      1  0.5823580000000  0.5323600000000  0.4536440000000 1.0
C      1  0.4136170000000  0.4948690000000  0.4352960000000 1.0
C      1  0.4816370000000  0.5343690000000  0.4326180000000 1.0
C      1  0.5621640000000  0.4263590000000  0.4812860000000 1.0
C      1  0.4446820000000  0.4473360000000  0.4480460000000 1.0
C      1  0.4589090000000  0.5065840000000  0.6161430000000 1.0
C      1  0.5460700000000  0.5467740000000  0.5272430000000 1.0
C      1  0.4845230000000  0.5022310000000  0.6250350000000 1.0
C      1  0.4958310000000  0.4288440000000  0.4856360000000 1.0
C      1  0.4811760000000  0.5698080000000  0.4147750000000 1.0
C      1  0.5079970000000  0.4742420000000  0.4931850000000 1.0
C      1  0.5385800000000  0.4811920000000  0.5677780000000 1.0
C      1  0.3878310000000  0.5045310000000  0.4654030000000 1.0
C      1  0.4127160000000  0.5573470000000  0.5272660000000 1.0
C      1  0.5407410000000  0.5414900000000  0.4040940000000 1.0
C      1  0.3818850000000  0.5100220000000  0.5443200000000 1.0
C      1  0.4375640000000  0.4884560000000  0.4919660000000 1.0
C      1  0.5519890000000  0.4245080000000  0.4501210000000 1.0
C      1  0.4510030000000  0.3971070000000  0.5035540000000 1.0
C      1  0.5542320000000  0.4013500000000  0.5565550000000 1.0
C      1  0.5249910000000  0.5906180000000  0.4331500000000 1.0
C      1  0.4646380000000  0.4982330000000  0.4323890000000 1.0
C      1  0.5087320000000  0.5545250000000  0.4275750000000 1.0
C      1  0.4930190000000  0.5931030000000  0.4342870000000 1.0
C      1  0.4962930000000  0.5153240000000  0.4667060000000 1.0
C      1  0.5108170000000  0.4958960000000  0.5190640000000 1.0
C      1  0.5815860000000  0.5696640000000  0.5128550000000 1.0
C      1  0.5355880000000  0.5926270000000  0.5525590000000 1.0
C      1  0.5121330000000  0.4279590000000  0.5472160000000 1.0
C      1  0.6066300000000  0.5378760000000  0.4768090000000 1.0
C      1  0.5813020000000  0.5078680000000  0.5794840000000 1.0
C      1  0.4583540000000  0.4699540000000  0.5793710000000 1.0
C      1  0.4478820000000  0.4338570000000  0.5657360000000 1.0
C      1  0.5551510000000  0.5401500000000  0.4830740000000 1.0
END
