TITL C-2848503-6230-233 0.000383120055540089 125000 -665.1575513597 0 0 124 (C1) n - 1
REM
REM in /home/bkarasulu/work/CARBON/AIRSS/Generating-Clusters/AIREBO/with-SteepDescent/Only-C1/SD-CG-opt/Try1-1.4A-POS3A/HFTN-CG
REM
REM
REM
REM
REM
REM ./C.cell (11c1c37f851c82e70ff6c80c92926a4b)
REM
REM compiler GCC version 9.2.1 20190827 (Red Hat 9.2.1-1)
REM options -cpp -mtune=generic -march=x86-64 -g -O0 -fpre-include=/usr/include/finclude/math-vector-fortran.h
REM seed 1853694485 849609888 -431775585 -1868476262 943626530 -305316851 -415715943 1849117640 1341136626 -1735200769 444968944 1130454984 922815915 1990467096 -832956977 -1713535347 -1836471230 2101708040 -1533345507 -622575422 1504785550 135203821 -2022223732 -1940594243 1527253610 -773082638 -1155597198 -604433345 2074512725 -1166600578 1531077161 448107349 -108366832
REM
CELL 1.54180   50.00000   50.00000   50.00000   90.00000   90.00000   90.00000
LATT -1
SFAC C  
C      1  0.5144660000000  0.4508570000000  0.5115140000000 1.0
C      1  0.4196910000000  0.4424330000000  0.5072040000000 1.0
C      1  0.4072320000000  0.5030800000000  0.5103540000000 1.0
C      1  0.5525310000000  0.4238990000000  0.4995150000000 1.0
C      1  0.4923000000000  0.4225860000000  0.4725450000000 1.0
C      1  0.5571470000000  0.4760600000000  0.5156060000000 1.0
C      1  0.4686230000000  0.4712700000000  0.5207040000000 1.0
C      1  0.4395570000000  0.4388950000000  0.4798350000000 1.0
C      1  0.4682050000000  0.5018850000000  0.5745990000000 1.0
C      1  0.4804680000000  0.3938470000000  0.5043920000000 1.0
C      1  0.5083720000000  0.5852170000000  0.5225110000000 1.0
C      1  0.5181320000000  0.5286540000000  0.4765500000000 1.0
C      1  0.5633370000000  0.4635300000000  0.4381470000000 1.0
C      1  0.5048140000000  0.5244120000000  0.4172650000000 1.0
C      1  0.5393350000000  0.4216020000000  0.4557810000000 1.0
C      1  0.4891380000000  0.4734870000000  0.6037230000000 1.0
C      1  0.4844720000000  0.5913520000000  0.5370100000000 1.0
C      1  0.5254120000000  0.5538120000000  0.4982460000000 1.0
C      1  0.4730820000000  0.5519600000000  0.4156410000000 1.0
C      1  0.5573220000000  0.5273500000000  0.5017260000000 1.0
C      1  0.4387420000000  0.4838010000000  0.4433260000000 1.0
C      1  0.4277590000000  0.4511880000000  0.5390630000000 1.0
C      1  0.5123520000000  0.4061380000000  0.5331740000000 1.0
C      1  0.4853640000000  0.4914020000000  0.5509140000000 1.0
C      1  0.5378430000000  0.4871210000000  0.4578080000000 1.0
C      1  0.4490240000000  0.5428610000000  0.4370260000000 1.0
C      1  0.5114940000000  0.5599120000000  0.5890720000000 1.0
C      1  0.4373520000000  0.5626870000000  0.5467660000000 1.0
C      1  0.5116540000000  0.5917500000000  0.4956810000000 1.0
C      1  0.4276880000000  0.5126100000000  0.4864520000000 1.0
C      1  0.5014630000000  0.4711630000000  0.4930360000000 1.0
C      1  0.4965690000000  0.5145490000000  0.4447150000000 1.0
C      1  0.5039120000000  0.5325070000000  0.5499990000000 1.0
C      1  0.5312610000000  0.5363240000000  0.4186410000000 1.0
C      1  0.5768990000000  0.4484110000000  0.4645440000000 1.0
C      1  0.4989310000000  0.4341810000000  0.5443780000000 1.0
C      1  0.5484640000000  0.4990590000000  0.4942970000000 1.0
C      1  0.5393490000000  0.4402000000000  0.5903470000000 1.0
C      1  0.5094830000000  0.5740820000000  0.4420510000000 1.0
C      1  0.5630700000000  0.4768720000000  0.4757140000000 1.0
C      1  0.4520390000000  0.5594990000000  0.4869530000000 1.0
C      1  0.5121060000000  0.4676330000000  0.4547080000000 1.0
C      1  0.4115730000000  0.5222770000000  0.5331050000000 1.0
C      1  0.4791000000000  0.4531820000000  0.4764260000000 1.0
C      1  0.5890540000000  0.4829250000000  0.5186070000000 1.0
C      1  0.4713640000000  0.4388170000000  0.5158640000000 1.0
C      1  0.4218110000000  0.5480170000000  0.5261290000000 1.0
C      1  0.5313680000000  0.4061310000000  0.5059270000000 1.0
C      1  0.4959800000000  0.4054240000000  0.5619940000000 1.0
C      1  0.5972730000000  0.4718150000000  0.4769950000000 1.0
C      1  0.4635880000000  0.5197850000000  0.4189180000000 1.0
C      1  0.5912470000000  0.4985980000000  0.4579980000000 1.0
C      1  0.4638250000000  0.4807320000000  0.4795140000000 1.0
C      1  0.4449400000000  0.4907510000000  0.5059750000000 1.0
C      1  0.5888800000000  0.5306100000000  0.5090170000000 1.0
C      1  0.5539280000000  0.5734380000000  0.5499790000000 1.0
C      1  0.5745240000000  0.5011290000000  0.5406190000000 1.0
C      1  0.5236880000000  0.4555120000000  0.5430390000000 1.0
C      1  0.5324500000000  0.5350980000000  0.5776680000000 1.0
C      1  0.4693730000000  0.4877200000000  0.4286710000000 1.0
C      1  0.5616150000000  0.4241620000000  0.4723740000000 1.0
C      1  0.5413670000000  0.5283700000000  0.4563340000000 1.0
C      1  0.5721050000000  0.4913010000000  0.4375950000000 1.0
C      1  0.4913450000000  0.5387350000000  0.4618350000000 1.0
C      1  0.4370420000000  0.5023110000000  0.5370040000000 1.0
C      1  0.5207450000000  0.4274700000000  0.4286630000000 1.0
C      1  0.5361130000000  0.4548860000000  0.4342430000000 1.0
C      1  0.4278780000000  0.5444680000000  0.4983460000000 1.0
C      1  0.5194960000000  0.4502140000000  0.5746380000000 1.0
C      1  0.5838410000000  0.5309490000000  0.5427080000000 1.0
C      1  0.5917610000000  0.5017620000000  0.4921310000000 1.0
C      1  0.4854120000000  0.5007670000000  0.5982320000000 1.0
C      1  0.4222480000000  0.5029080000000  0.4572500000000 1.0
C      1  0.4606780000000  0.5393970000000  0.4646930000000 1.0
C      1  0.5359050000000  0.5805210000000  0.4812630000000 1.0
C      1  0.4063180000000  0.5206210000000  0.4422160000000 1.0
C      1  0.4932100000000  0.4574090000000  0.5809330000000 1.0
C      1  0.5736730000000  0.5486640000000  0.4808630000000 1.0
C      1  0.4982770000000  0.4928540000000  0.4114920000000 1.0
C      1  0.4605800000000  0.6075000000000  0.4709000000000 1.0
C      1  0.5063180000000  0.5232610000000  0.5173470000000 1.0
C      1  0.5560510000000  0.5544330000000  0.4589420000000 1.0
C      1  0.4657340000000  0.5332860000000  0.5038670000000 1.0
C      1  0.4605260000000  0.4364770000000  0.4531630000000 1.0
C      1  0.4882530000000  0.5745300000000  0.4227330000000 1.0
C      1  0.5299330000000  0.5627900000000  0.5298550000000 1.0
C      1  0.4153220000000  0.4730610000000  0.5080320000000 1.0
C      1  0.4803400000000  0.5512230000000  0.5789510000000 1.0
C      1  0.4987240000000  0.4212350000000  0.5059140000000 1.0
C      1  0.6121570000000  0.4662700000000  0.5278070000000 1.0
C      1  0.4345190000000  0.4080560000000  0.4935550000000 1.0
C      1  0.4932820000000  0.5489450000000  0.5002600000000 1.0
C      1  0.4790370000000  0.6164120000000  0.5452870000000 1.0
C      1  0.4525690000000  0.5450580000000  0.5693700000000 1.0
C      1  0.4790990000000  0.5449910000000  0.5395480000000 1.0
C      1  0.4981040000000  0.5698290000000  0.4738410000000 1.0
C      1  0.4209990000000  0.4761030000000  0.5474260000000 1.0
C      1  0.5512880000000  0.5122800000000  0.4300450000000 1.0
C      1  0.5425190000000  0.4976880000000  0.5376450000000 1.0
C      1  0.4336880000000  0.4572780000000  0.4513680000000 1.0
C      1  0.4724530000000  0.4539820000000  0.4252370000000 1.0
C      1  0.4685750000000  0.5138690000000  0.5316450000000 1.0
C      1  0.4864730000000  0.4972760000000  0.5079680000000 1.0
C      1  0.5347530000000  0.5610820000000  0.4346590000000 1.0
C      1  0.5175840000000  0.4396860000000  0.4662600000000 1.0
C      1  0.5540100000000  0.5424050000000  0.5543850000000 1.0
C      1  0.5256650000000  0.4918980000000  0.4264030000000 1.0
C      1  0.5375740000000  0.5295520000000  0.5275350000000 1.0
C      1  0.4882090000000  0.4864030000000  0.4564630000000 1.0
C      1  0.5179200000000  0.4969850000000  0.4832800000000 1.0
C      1  0.5185340000000  0.4848730000000  0.5543910000000 1.0
C      1  0.4668730000000  0.5696890000000  0.5414030000000 1.0
C      1  0.4696760000000  0.5115080000000  0.4812860000000 1.0
C      1  0.4678680000000  0.5834440000000  0.4769770000000 1.0
C      1  0.4905230000000  0.4287210000000  0.4391390000000 1.0
C      1  0.5326400000000  0.5014040000000  0.5761260000000 1.0
C      1  0.4769290000000  0.4584510000000  0.5510920000000 1.0
C      1  0.4490730000000  0.4411590000000  0.5527250000000 1.0
C      1  0.5005490000000  0.5239990000000  0.5816820000000 1.0
C      1  0.5461440000000  0.4492650000000  0.5106570000000 1.0
C      1  0.4474590000000  0.5172670000000  0.5657150000000 1.0
C      1  0.4472530000000  0.4247750000000  0.5163090000000 1.0
C      1  0.6059720000000  0.5381760000000  0.5581400000000 1.0
C      1  0.4188020000000  0.5435570000000  0.4338720000000 1.0
END
