TITL C-2847949-8115-337 -0.00189288390780835 125000 -1041.81540272263 0 0 200 (C1) n - 1
REM
REM in /home/bkarasulu/work/CARBON/AIRSS/Generating-Clusters/AIREBO/with-SteepDescent/Only-C1/SD-CG-opt/Try1-1.4A-POS3A/HFTN-CG
REM
REM
REM
REM
REM
REM ./C.cell (11c1c37f851c82e70ff6c80c92926a4b)
REM
REM compiler GCC version 9.2.1 20190827 (Red Hat 9.2.1-1)
REM options -cpp -mtune=generic -march=x86-64 -g -O0 -fpre-include=/usr/include/finclude/math-vector-fortran.h
REM seed -1729400453 -800745816 1309530908 1714945306 1429381951 1152301612 890169432 -1766967601 -405106764 -311243951 130417148 -1365973372 2031474380 1704661568 2130756105 -33457351 1201539505 235922019 -1747430597 -236655596 -1095679228 571574212 1562309858 1025148661 1572003481 118896094 -551130917 -973128075 1306068662 461426011 776561887 -597192603 -823900239
REM
CELL 1.54180   50.00000   50.00000   50.00000   90.00000   90.00000   90.00000
LATT -1
SFAC C  
C      1  0.4337210000000  0.5515400000000  0.5270830000000 1.0
C      1  0.5319140000000  0.5141560000000  0.4348220000000 1.0
C      1  0.5321500000000  0.5630470000000  0.5661580000000 1.0
C      1  0.4984230000000  0.4657940000000  0.4181860000000 1.0
C      1  0.5257500000000  0.4513340000000  0.5703800000000 1.0
C      1  0.5974410000000  0.4552130000000  0.4788450000000 1.0
C      1  0.4541080000000  0.4886350000000  0.4083460000000 1.0
C      1  0.5092610000000  0.5073560000000  0.3817040000000 1.0
C      1  0.4922580000000  0.3779490000000  0.4990380000000 1.0
C      1  0.5489730000000  0.5840620000000  0.5453830000000 1.0
C      1  0.4576400000000  0.5274310000000  0.5561660000000 1.0
C      1  0.4641780000000  0.5399380000000  0.4758290000000 1.0
C      1  0.4777080000000  0.4770340000000  0.5736540000000 1.0
C      1  0.5581770000000  0.5903620000000  0.4690710000000 1.0
C      1  0.4579620000000  0.5101440000000  0.3923370000000 1.0
C      1  0.4904590000000  0.4925510000000  0.4907220000000 1.0
C      1  0.5997570000000  0.5137810000000  0.4487640000000 1.0
C      1  0.5947200000000  0.4270890000000  0.4993410000000 1.0
C      1  0.4664820000000  0.4524900000000  0.6256450000000 1.0
C      1  0.5540070000000  0.4391570000000  0.4165520000000 1.0
C      1  0.4787280000000  0.4530580000000  0.5977480000000 1.0
C      1  0.5411200000000  0.4981440000000  0.5913470000000 1.0
C      1  0.5685340000000  0.4095900000000  0.4634650000000 1.0
C      1  0.5271020000000  0.4445330000000  0.5370870000000 1.0
C      1  0.4065570000000  0.5312690000000  0.4845610000000 1.0
C      1  0.4431560000000  0.5578320000000  0.4956790000000 1.0
C      1  0.5075200000000  0.5397970000000  0.4179420000000 1.0
C      1  0.5843360000000  0.5396500000000  0.5694600000000 1.0
C      1  0.4978810000000  0.5618370000000  0.3861790000000 1.0
C      1  0.4723980000000  0.5769620000000  0.4543940000000 1.0
C      1  0.5467220000000  0.4606860000000  0.4418480000000 1.0
C      1  0.6015300000000  0.5208440000000  0.5483110000000 1.0
C      1  0.5385630000000  0.4690830000000  0.4099070000000 1.0
C      1  0.5333750000000  0.4703030000000  0.4863750000000 1.0
C      1  0.5577770000000  0.4737380000000  0.5938510000000 1.0
C      1  0.4950560000000  0.3900910000000  0.5254950000000 1.0
C      1  0.5662600000000  0.4864830000000  0.4523160000000 1.0
C      1  0.3680430000000  0.5223580000000  0.4900130000000 1.0
C      1  0.5519420000000  0.5429060000000  0.5333160000000 1.0
C      1  0.5130380000000  0.5767510000000  0.4041540000000 1.0
C      1  0.4403450000000  0.6027730000000  0.5454990000000 1.0
C      1  0.5790210000000  0.4764640000000  0.5739960000000 1.0
C      1  0.5036430000000  0.6075020000000  0.5202280000000 1.0
C      1  0.5097110000000  0.5374860000000  0.5222880000000 1.0
C      1  0.4496330000000  0.4078600000000  0.4436490000000 1.0
C      1  0.5110600000000  0.4586370000000  0.6002030000000 1.0
C      1  0.5994600000000  0.4859840000000  0.5227340000000 1.0
C      1  0.4597420000000  0.4582480000000  0.5139140000000 1.0
C      1  0.4972330000000  0.4718310000000  0.4695610000000 1.0
C      1  0.5445470000000  0.5637290000000  0.4983390000000 1.0
C      1  0.4737770000000  0.5356400000000  0.4184630000000 1.0
C      1  0.5133940000000  0.6080950000000  0.4939760000000 1.0
C      1  0.4027150000000  0.4439580000000  0.5664750000000 1.0
C      1  0.5222970000000  0.4129690000000  0.4319280000000 1.0
C      1  0.5441800000000  0.4344300000000  0.4996240000000 1.0
C      1  0.4771830000000  0.5439520000000  0.6045400000000 1.0
C      1  0.3992370000000  0.4801220000000  0.5234650000000 1.0
C      1  0.5213810000000  0.5104760000000  0.5665560000000 1.0
C      1  0.5671660000000  0.4965060000000  0.5191250000000 1.0
C      1  0.5818190000000  0.5241100000000  0.5952380000000 1.0
C      1  0.5259770000000  0.4856840000000  0.5123930000000 1.0
C      1  0.6064310000000  0.4565840000000  0.5115760000000 1.0
C      1  0.4871800000000  0.5617240000000  0.4881880000000 1.0
C      1  0.5738370000000  0.4607460000000  0.5028370000000 1.0
C      1  0.4334850000000  0.4579580000000  0.5696610000000 1.0
C      1  0.5501880000000  0.5890090000000  0.5189850000000 1.0
C      1  0.5995110000000  0.4805720000000  0.4562640000000 1.0
C      1  0.4504490000000  0.5242000000000  0.4389600000000 1.0
C      1  0.5511710000000  0.5188630000000  0.4071900000000 1.0
C      1  0.4645950000000  0.5078530000000  0.4645470000000 1.0
C      1  0.3819020000000  0.4975760000000  0.5436130000000 1.0
C      1  0.4718830000000  0.5785360000000  0.5141910000000 1.0
C      1  0.5952440000000  0.4977660000000  0.4847430000000 1.0
C      1  0.4336830000000  0.4680400000000  0.4638780000000 1.0
C      1  0.5141810000000  0.4611900000000  0.4456720000000 1.0
C      1  0.4830070000000  0.5447810000000  0.4484990000000 1.0
C      1  0.5592660000000  0.4906700000000  0.4185400000000 1.0
C      1  0.5104750000000  0.6002210000000  0.4236470000000 1.0
C      1  0.4604390000000  0.5058530000000  0.4958560000000 1.0
C      1  0.4093970000000  0.5622350000000  0.4753510000000 1.0
C      1  0.5828490000000  0.5727460000000  0.4845220000000 1.0
C      1  0.5838680000000  0.5225880000000  0.5222330000000 1.0
C      1  0.5441890000000  0.4235160000000  0.5769340000000 1.0
C      1  0.5741380000000  0.5532050000000  0.5113830000000 1.0
C      1  0.3862330000000  0.5085400000000  0.4716020000000 1.0
C      1  0.5009150000000  0.5753330000000  0.5316260000000 1.0
C      1  0.4642300000000  0.4614100000000  0.3982190000000 1.0
C      1  0.5603090000000  0.5489130000000  0.5603480000000 1.0
C      1  0.4990510000000  0.3887270000000  0.4534190000000 1.0
C      1  0.4361440000000  0.4991370000000  0.5111910000000 1.0
C      1  0.5868200000000  0.4267620000000  0.5324120000000 1.0
C      1  0.5397110000000  0.5948150000000  0.4401700000000 1.0
C      1  0.5420850000000  0.5124760000000  0.4874560000000 1.0
C      1  0.4969890000000  0.4193840000000  0.4679900000000 1.0
C      1  0.5602620000000  0.5193690000000  0.4461030000000 1.0
C      1  0.5449400000000  0.4984430000000  0.5451440000000 1.0
C      1  0.5132420000000  0.4919490000000  0.6068930000000 1.0
C      1  0.4846440000000  0.5304390000000  0.3866570000000 1.0
C      1  0.4348040000000  0.4392540000000  0.5188430000000 1.0
C      1  0.5220160000000  0.5424030000000  0.4712110000000 1.0
C      1  0.4709760000000  0.5072030000000  0.5878270000000 1.0
C      1  0.5193670000000  0.4138050000000  0.5272290000000 1.0
C      1  0.4192470000000  0.5263410000000  0.5347560000000 1.0
C      1  0.4035200000000  0.4349690000000  0.4596180000000 1.0
C      1  0.4665700000000  0.4769150000000  0.5415130000000 1.0
C      1  0.5628910000000  0.4874570000000  0.4866070000000 1.0
C      1  0.4614640000000  0.4545100000000  0.4280950000000 1.0
C      1  0.5158790000000  0.4411390000000  0.4860520000000 1.0
C      1  0.5411150000000  0.6029190000000  0.4926560000000 1.0
C      1  0.5503160000000  0.4057090000000  0.5316810000000 1.0
C      1  0.5561080000000  0.4065670000000  0.5584260000000 1.0
C      1  0.4832520000000  0.4494140000000  0.4909810000000 1.0
C      1  0.4580850000000  0.4399960000000  0.5763080000000 1.0
C      1  0.4709510000000  0.6168060000000  0.4563620000000 1.0
C      1  0.3935540000000  0.4607970000000  0.5005030000000 1.0
C      1  0.4197750000000  0.5464340000000  0.5992820000000 1.0
C      1  0.4163330000000  0.4631130000000  0.4346490000000 1.0
C      1  0.5225610000000  0.5263970000000  0.3984130000000 1.0
C      1  0.4169160000000  0.5220630000000  0.4389500000000 1.0
C      1  0.4445560000000  0.5904560000000  0.4978100000000 1.0
C      1  0.5554420000000  0.5497560000000  0.4321420000000 1.0
C      1  0.5236670000000  0.5227420000000  0.6169110000000 1.0
C      1  0.4686680000000  0.4165610000000  0.5618950000000 1.0
C      1  0.6124550000000  0.5176630000000  0.4950740000000 1.0
C      1  0.4983550000000  0.6014370000000  0.5532730000000 1.0
C      1  0.5335340000000  0.5179800000000  0.5199030000000 1.0
C      1  0.4541430000000  0.4845320000000  0.4422850000000 1.0
C      1  0.5922030000000  0.5011430000000  0.5742220000000 1.0
C      1  0.5433320000000  0.4541930000000  0.6060820000000 1.0
C      1  0.6210690000000  0.5097540000000  0.5227890000000 1.0
C      1  0.4044860000000  0.4918100000000  0.4485530000000 1.0
C      1  0.4687470000000  0.3956840000000  0.5449620000000 1.0
C      1  0.4166570000000  0.4561520000000  0.5397310000000 1.0
C      1  0.4381120000000  0.4727600000000  0.4972560000000 1.0
C      1  0.4220370000000  0.5557160000000  0.4389120000000 1.0
C      1  0.5503090000000  0.4372790000000  0.4662810000000 1.0
C      1  0.4939270000000  0.5970070000000  0.4717310000000 1.0
C      1  0.3715750000000  0.5333130000000  0.5153590000000 1.0
C      1  0.5158220000000  0.5628080000000  0.5048540000000 1.0
C      1  0.4851760000000  0.4484330000000  0.5444130000000 1.0
C      1  0.5167740000000  0.4807070000000  0.3864430000000 1.0
C      1  0.5013210000000  0.5161200000000  0.4495330000000 1.0
C      1  0.5075570000000  0.4675470000000  0.5291350000000 1.0
C      1  0.5823730000000  0.5409100000000  0.4603550000000 1.0
C      1  0.5024130000000  0.4349240000000  0.4271010000000 1.0
C      1  0.4870130000000  0.4896990000000  0.4352860000000 1.0
C      1  0.5061370000000  0.5479920000000  0.5511830000000 1.0
C      1  0.5452000000000  0.3924410000000  0.4819530000000 1.0
C      1  0.4004590000000  0.4665670000000  0.4709860000000 1.0
C      1  0.5079180000000  0.4800790000000  0.5668470000000 1.0
C      1  0.4608700000000  0.6061110000000  0.5307800000000 1.0
C      1  0.5658360000000  0.4094810000000  0.5032070000000 1.0
C      1  0.4324860000000  0.5307530000000  0.4671020000000 1.0
C      1  0.5217130000000  0.5380120000000  0.5865320000000 1.0
C      1  0.4162950000000  0.5869480000000  0.4904600000000 1.0
C      1  0.4845640000000  0.6008730000000  0.4334810000000 1.0
C      1  0.4831350000000  0.5252270000000  0.5121820000000 1.0
C      1  0.4998170000000  0.5234600000000  0.4827030000000 1.0
C      1  0.4432620000000  0.5017640000000  0.5422540000000 1.0
C      1  0.4641090000000  0.5692870000000  0.5460000000000 1.0
C      1  0.5125220000000  0.3829490000000  0.4802510000000 1.0
C      1  0.5219660000000  0.4949480000000  0.4663670000000 1.0
C      1  0.4375730000000  0.4191300000000  0.4912970000000 1.0
C      1  0.5100520000000  0.5692490000000  0.4641360000000 1.0
C      1  0.4982720000000  0.4314370000000  0.5679530000000 1.0
C      1  0.5556150000000  0.5222220000000  0.6044860000000 1.0
C      1  0.4250140000000  0.4308110000000  0.4387340000000 1.0
C      1  0.4705550000000  0.4336490000000  0.4509600000000 1.0
C      1  0.4065630000000  0.4186940000000  0.4825090000000 1.0
C      1  0.5723210000000  0.5995070000000  0.4328140000000 1.0
C      1  0.5293470000000  0.4133670000000  0.4606590000000 1.0
C      1  0.6042920000000  0.5689390000000  0.5112900000000 1.0
C      1  0.4885730000000  0.4931590000000  0.5232870000000 1.0
C      1  0.4661190000000  0.3782710000000  0.4875290000000 1.0
C      1  0.3863770000000  0.5244800000000  0.5380940000000 1.0
C      1  0.5247320000000  0.5645440000000  0.4336730000000 1.0
C      1  0.4046470000000  0.4352990000000  0.5068040000000 1.0
C      1  0.4507270000000  0.5455160000000  0.6022080000000 1.0
C      1  0.4319450000000  0.5727560000000  0.5528350000000 1.0
C      1  0.4536710000000  0.4430710000000  0.4754390000000 1.0
C      1  0.5687990000000  0.5452500000000  0.4038200000000 1.0
C      1  0.4650670000000  0.5417700000000  0.5282730000000 1.0
C      1  0.4921760000000  0.4322550000000  0.5184850000000 1.0
C      1  0.4396300000000  0.5471920000000  0.5714670000000 1.0
C      1  0.5574430000000  0.4504010000000  0.5265810000000 1.0
C      1  0.4851670000000  0.5774010000000  0.5682440000000 1.0
C      1  0.4826590000000  0.4077680000000  0.4325230000000 1.0
C      1  0.4454090000000  0.4856440000000  0.5799220000000 1.0
C      1  0.5541230000000  0.5403160000000  0.4792800000000 1.0
C      1  0.5529020000000  0.4692780000000  0.5544980000000 1.0
C      1  0.5064650000000  0.4015840000000  0.5562250000000 1.0
C      1  0.4921160000000  0.4629000000000  0.3862730000000 1.0
C      1  0.4073230000000  0.5093350000000  0.5078360000000 1.0
C      1  0.5738440000000  0.5707550000000  0.4461250000000 1.0
C      1  0.4514000000000  0.3969440000000  0.4746860000000 1.0
C      1  0.4907160000000  0.5168810000000  0.6127380000000 1.0
C      1  0.6040360000000  0.5461850000000  0.4860250000000 1.0
C      1  0.4405380000000  0.5696970000000  0.4638900000000 1.0
C      1  0.4948160000000  0.5587940000000  0.5878350000000 1.0
C      1  0.4900760000000  0.5238000000000  0.5658630000000 1.0
END
