TITL C-2847958-8115-660 -0.00351417780916703 125000 -416.595417009062 0 0 77 (C1) n - 1
REM
REM in /home/bkarasulu/work/CARBON/AIRSS/Generating-Clusters/AIREBO/with-SteepDescent/Only-C1/SD-CG-opt/Try1-1.4A-POS3A/HFTN-CG
REM
REM
REM
REM
REM
REM ./C.cell (11c1c37f851c82e70ff6c80c92926a4b)
REM
REM compiler GCC version 9.2.1 20190827 (Red Hat 9.2.1-1)
REM options -cpp -mtune=generic -march=x86-64 -g -O0 -fpre-include=/usr/include/finclude/math-vector-fortran.h
REM seed -450754686 -621033385 1694322928 -86142518 1814765074 462656183 1260194515 764694035 -587154683 -1597433297 478177167 -43940172 2074614402 414662697 366076091 1814906926 493850254 600432735 1886775998 1429774202 -1216352770 1432241423 -1899823513 -776439950 1713153044 190479052 1136276597 774941656 -1713787995 -182430187 255263472 1176810533 -592230727
REM
CELL 1.54180   50.00000   50.00000   50.00000   90.00000   90.00000   90.00000
LATT -1
SFAC C  
C      1  0.4776720000000  0.5678580000000  0.5328030000000 1.0
C      1  0.4654230000000  0.4193130000000  0.5268010000000 1.0
C      1  0.4906890000000  0.5519490000000  0.5579970000000 1.0
C      1  0.5196140000000  0.4239200000000  0.5382340000000 1.0
C      1  0.5088600000000  0.5096060000000  0.5881860000000 1.0
C      1  0.5432350000000  0.5318900000000  0.4360370000000 1.0
C      1  0.4447900000000  0.4506870000000  0.5041870000000 1.0
C      1  0.5378200000000  0.4788650000000  0.5354680000000 1.0
C      1  0.5376300000000  0.4740710000000  0.5663570000000 1.0
C      1  0.4465890000000  0.4464440000000  0.5350510000000 1.0
C      1  0.4633940000000  0.5088710000000  0.4368740000000 1.0
C      1  0.4792700000000  0.4963060000000  0.4876110000000 1.0
C      1  0.4702750000000  0.5355590000000  0.4574320000000 1.0
C      1  0.4452430000000  0.4667260000000  0.5608190000000 1.0
C      1  0.4847690000000  0.4592720000000  0.4419300000000 1.0
C      1  0.5689090000000  0.4819300000000  0.4583250000000 1.0
C      1  0.5585000000000  0.5128310000000  0.4680890000000 1.0
C      1  0.4646120000000  0.4742670000000  0.5776440000000 1.0
C      1  0.5117410000000  0.5163690000000  0.4993520000000 1.0
C      1  0.4948410000000  0.5466150000000  0.4166500000000 1.0
C      1  0.5434100000000  0.5403120000000  0.5432420000000 1.0
C      1  0.4346840000000  0.5117170000000  0.4976860000000 1.0
C      1  0.4337170000000  0.4838440000000  0.5407950000000 1.0
C      1  0.5671240000000  0.4795410000000  0.5183960000000 1.0
C      1  0.4405900000000  0.5377910000000  0.5042080000000 1.0
C      1  0.4934440000000  0.5213350000000  0.4275360000000 1.0
C      1  0.5057410000000  0.4878250000000  0.4094950000000 1.0
C      1  0.5215980000000  0.5574500000000  0.5632830000000 1.0
C      1  0.4397670000000  0.4684180000000  0.4534680000000 1.0
C      1  0.5155310000000  0.4333330000000  0.5061130000000 1.0
C      1  0.4804270000000  0.5674060000000  0.4637570000000 1.0
C      1  0.4438000000000  0.5432720000000  0.5306660000000 1.0
C      1  0.5022450000000  0.5687390000000  0.4377140000000 1.0
C      1  0.4787180000000  0.4440860000000  0.5459220000000 1.0
C      1  0.4622730000000  0.4498050000000  0.4554780000000 1.0
C      1  0.5301880000000  0.4863660000000  0.4214970000000 1.0
C      1  0.5736400000000  0.4534240000000  0.5115530000000 1.0
C      1  0.4382400000000  0.4970700000000  0.4499890000000 1.0
C      1  0.5396650000000  0.5027950000000  0.5018360000000 1.0
C      1  0.4823520000000  0.5618340000000  0.5033080000000 1.0
C      1  0.5036520000000  0.4833300000000  0.5028650000000 1.0
C      1  0.5402260000000  0.4976040000000  0.5821250000000 1.0
C      1  0.4749160000000  0.5134310000000  0.5166620000000 1.0
C      1  0.5043730000000  0.4813680000000  0.5427960000000 1.0
C      1  0.5305550000000  0.5309230000000  0.4750390000000 1.0
C      1  0.5545560000000  0.5018970000000  0.4361280000000 1.0
C      1  0.5091620000000  0.4550100000000  0.4545340000000 1.0
C      1  0.5180010000000  0.5584200000000  0.5295480000000 1.0
C      1  0.5311140000000  0.5269590000000  0.5712150000000 1.0
C      1  0.4940170000000  0.4844160000000  0.5738970000000 1.0
C      1  0.4519140000000  0.4883600000000  0.5154280000000 1.0
C      1  0.5266240000000  0.4799540000000  0.4541530000000 1.0
C      1  0.4894440000000  0.5135280000000  0.4665280000000 1.0
C      1  0.4245500000000  0.5083850000000  0.4716850000000 1.0
C      1  0.4825480000000  0.4830490000000  0.4257580000000 1.0
C      1  0.5197810000000  0.5616880000000  0.4653510000000 1.0
C      1  0.4795230000000  0.4698150000000  0.5226470000000 1.0
C      1  0.4523320000000  0.4763460000000  0.4836180000000 1.0
C      1  0.5161030000000  0.5819660000000  0.5131980000000 1.0
C      1  0.4586660000000  0.5519090000000  0.4850080000000 1.0
C      1  0.5509530000000  0.4391580000000  0.5031350000000 1.0
C      1  0.5155230000000  0.4353400000000  0.4721650000000 1.0
C      1  0.5286960000000  0.4646970000000  0.5061810000000 1.0
C      1  0.5144910000000  0.4582130000000  0.5736080000000 1.0
C      1  0.5344240000000  0.5573720000000  0.4360660000000 1.0
C      1  0.5556080000000  0.5250070000000  0.5220480000000 1.0
C      1  0.5729160000000  0.5066730000000  0.4986730000000 1.0
C      1  0.5037170000000  0.5779930000000  0.4861730000000 1.0
C      1  0.4690490000000  0.5304850000000  0.5441440000000 1.0
C      1  0.5052580000000  0.4383890000000  0.5568250000000 1.0
C      1  0.4978990000000  0.5370520000000  0.5174000000000 1.0
C      1  0.5536450000000  0.5415920000000  0.4956470000000 1.0
C      1  0.4843110000000  0.5212710000000  0.5715660000000 1.0
C      1  0.5445410000000  0.4774940000000  0.4801180000000 1.0
C      1  0.4644150000000  0.4384040000000  0.4807040000000 1.0
C      1  0.5183280000000  0.5127050000000  0.4490460000000 1.0
C      1  0.4831380000000  0.4400840000000  0.5065300000000 1.0
END
