TITL C-2848499-1157-229 -0.000344049984718842 125000 -501.370737491377 0 0 93 (C1) n - 1
REM
REM in /home/bkarasulu/work/CARBON/AIRSS/Generating-Clusters/AIREBO/with-SteepDescent/Only-C1/SD-CG-opt/Try1-1.4A-POS3A/HFTN-CG
REM
REM
REM
REM
REM
REM ./C.cell (11c1c37f851c82e70ff6c80c92926a4b)
REM
REM compiler GCC version 9.2.1 20190827 (Red Hat 9.2.1-1)
REM options -cpp -mtune=generic -march=x86-64 -g -O0 -fpre-include=/usr/include/finclude/math-vector-fortran.h
REM seed -349851906 320631241 -1275506480 -1192014885 1745687043 138208593 -504318124 1151853796 -1861115762 616778919 -560558486 1378221582 -777528025 1689985694 1290375099 -113800399 -1009635782 -484072035 752905702 8496629 -615098194 1775667171 -1355249881 -1624612029 -147830769 -1801075543 1537769322 1456144899 -1647272418 683089578 1852449261 1247586502 971804027
REM
CELL 1.54180   50.00000   50.00000   50.00000   90.00000   90.00000   90.00000
LATT -1
SFAC C  
C      1  0.5434570000000  0.4741860000000  0.5320890000000 1.0
C      1  0.5047500000000  0.5701900000000  0.5627340000000 1.0
C      1  0.5014160000000  0.5004560000000  0.5667490000000 1.0
C      1  0.4392760000000  0.5232010000000  0.4545950000000 1.0
C      1  0.5579180000000  0.5650920000000  0.5146920000000 1.0
C      1  0.5131520000000  0.4207990000000  0.5191420000000 1.0
C      1  0.5137420000000  0.4788970000000  0.5433590000000 1.0
C      1  0.5171310000000  0.4507120000000  0.4382790000000 1.0
C      1  0.4813150000000  0.4122830000000  0.4817480000000 1.0
C      1  0.4921960000000  0.5429420000000  0.4322740000000 1.0
C      1  0.5213260000000  0.4694280000000  0.4652450000000 1.0
C      1  0.4960200000000  0.4428050000000  0.4796300000000 1.0
C      1  0.4769450000000  0.4965020000000  0.4384090000000 1.0
C      1  0.5812500000000  0.4829630000000  0.4956630000000 1.0
C      1  0.4729060000000  0.4423310000000  0.5397400000000 1.0
C      1  0.5424410000000  0.5243390000000  0.4432610000000 1.0
C      1  0.4426470000000  0.5512750000000  0.4542540000000 1.0
C      1  0.4827020000000  0.5474310000000  0.5712610000000 1.0
C      1  0.5552320000000  0.4974320000000  0.4319730000000 1.0
C      1  0.4564160000000  0.4404040000000  0.5140180000000 1.0
C      1  0.4285260000000  0.4698080000000  0.5031540000000 1.0
C      1  0.4604260000000  0.5593450000000  0.5290240000000 1.0
C      1  0.5503660000000  0.4513460000000  0.4455880000000 1.0
C      1  0.4953340000000  0.4748240000000  0.4829110000000 1.0
C      1  0.5236380000000  0.4991850000000  0.4190080000000 1.0
C      1  0.5287930000000  0.4380920000000  0.4761720000000 1.0
C      1  0.5677050000000  0.4391340000000  0.4948060000000 1.0
C      1  0.4280350000000  0.5658130000000  0.5098560000000 1.0
C      1  0.5689350000000  0.5177620000000  0.5206790000000 1.0
C      1  0.4681380000000  0.4622260000000  0.5590930000000 1.0
C      1  0.4557880000000  0.4487920000000  0.4581190000000 1.0
C      1  0.4967190000000  0.5166050000000  0.4271390000000 1.0
C      1  0.5478590000000  0.5224380000000  0.5469480000000 1.0
C      1  0.5874940000000  0.4903430000000  0.5284210000000 1.0
C      1  0.5125900000000  0.5802450000000  0.4932220000000 1.0
C      1  0.4581720000000  0.4326980000000  0.4872000000000 1.0
C      1  0.5190540000000  0.5185880000000  0.5292880000000 1.0
C      1  0.5220830000000  0.4148450000000  0.4551690000000 1.0
C      1  0.4348590000000  0.5370470000000  0.5266730000000 1.0
C      1  0.4970790000000  0.5881660000000  0.5350600000000 1.0
C      1  0.4513990000000  0.4715960000000  0.4807320000000 1.0
C      1  0.4896490000000  0.5603800000000  0.4593020000000 1.0
C      1  0.5371280000000  0.4295280000000  0.5048470000000 1.0
C      1  0.5216520000000  0.4992280000000  0.4529510000000 1.0
C      1  0.5631550000000  0.4922640000000  0.5520890000000 1.0
C      1  0.5078530000000  0.4974130000000  0.5050330000000 1.0
C      1  0.4889780000000  0.5876700000000  0.5078600000000 1.0
C      1  0.4901870000000  0.4703500000000  0.5743680000000 1.0
C      1  0.4847260000000  0.4697270000000  0.4252920000000 1.0
C      1  0.5494990000000  0.4743240000000  0.5764620000000 1.0
C      1  0.5550530000000  0.4478510000000  0.5243400000000 1.0
C      1  0.4833930000000  0.5439720000000  0.5134030000000 1.0
C      1  0.5294330000000  0.5166610000000  0.5751110000000 1.0
C      1  0.5232550000000  0.4677950000000  0.5727710000000 1.0
C      1  0.4448810000000  0.5136190000000  0.4825910000000 1.0
C      1  0.4617550000000  0.5648880000000  0.4685040000000 1.0
C      1  0.4088180000000  0.4953990000000  0.5068040000000 1.0
C      1  0.4088860000000  0.4612440000000  0.5275750000000 1.0
C      1  0.4894590000000  0.5211340000000  0.4889540000000 1.0
C      1  0.5530760000000  0.5559570000000  0.5434960000000 1.0
C      1  0.4364290000000  0.4727920000000  0.4437760000000 1.0
C      1  0.5403030000000  0.5340640000000  0.4819440000000 1.0
C      1  0.4593800000000  0.5739100000000  0.4983120000000 1.0
C      1  0.5773450000000  0.5137820000000  0.4818280000000 1.0
C      1  0.5398860000000  0.5838450000000  0.5024420000000 1.0
C      1  0.5526450000000  0.4926590000000  0.5093390000000 1.0
C      1  0.4445060000000  0.4820210000000  0.5507780000000 1.0
C      1  0.4162590000000  0.4694710000000  0.5505360000000 1.0
C      1  0.4712710000000  0.5208840000000  0.5291440000000 1.0
C      1  0.4460550000000  0.4988050000000  0.4406380000000 1.0
C      1  0.4775800000000  0.5183900000000  0.5611430000000 1.0
C      1  0.5686400000000  0.4609460000000  0.4726630000000 1.0
C      1  0.4836740000000  0.4426240000000  0.4418490000000 1.0
C      1  0.5199740000000  0.5693420000000  0.4514810000000 1.0
C      1  0.4456310000000  0.5145100000000  0.5501060000000 1.0
C      1  0.5656180000000  0.5403080000000  0.4990280000000 1.0
C      1  0.5255110000000  0.5698660000000  0.5375920000000 1.0
C      1  0.4655220000000  0.5667320000000  0.5559070000000 1.0
C      1  0.5125720000000  0.4713620000000  0.4124460000000 1.0
C      1  0.4915760000000  0.4731370000000  0.5224570000000 1.0
C      1  0.5014580000000  0.4420410000000  0.5321440000000 1.0
C      1  0.5383080000000  0.5501350000000  0.4541620000000 1.0
C      1  0.5593260000000  0.4913990000000  0.4636460000000 1.0
C      1  0.4233000000000  0.5189440000000  0.5041710000000 1.0
C      1  0.5097840000000  0.5482320000000  0.4838690000000 1.0
C      1  0.4972090000000  0.4022190000000  0.5068930000000 1.0
C      1  0.5141820000000  0.5485870000000  0.5175890000000 1.0
C      1  0.5344680000000  0.5019650000000  0.4843300000000 1.0
C      1  0.4725720000000  0.4968120000000  0.4722290000000 1.0
C      1  0.5121680000000  0.5375660000000  0.5566600000000 1.0
C      1  0.4938900000000  0.4141720000000  0.4519890000000 1.0
C      1  0.4593500000000  0.5027420000000  0.5093140000000 1.0
C      1  0.4575390000000  0.4737690000000  0.5204630000000 1.0
END
