TITL C-2847953-8112-93 -0.00365309352872419 125000 -234.910037037915 0 0 41 (C1) n - 1
REM
REM in /home/bkarasulu/work/CARBON/AIRSS/Generating-Clusters/AIREBO/with-SteepDescent/Only-C1/SD-CG-opt/Try1-1.4A-POS3A/HFTN-CG
REM
REM
REM
REM
REM
REM ./C.cell (11c1c37f851c82e70ff6c80c92926a4b)
REM
REM compiler GCC version 9.2.1 20190827 (Red Hat 9.2.1-1)
REM options -cpp -mtune=generic -march=x86-64 -g -O0 -fpre-include=/usr/include/finclude/math-vector-fortran.h
REM seed 1841909011 1501197202 -883272899 1821529978 1741166330 89500042 495118294 -252926429 -1381738153 392292119 -1320933891 -1482782558 -1612135625 2082405203 1272635230 -1147350502 1794476004 -1659644980 1938243737 -570923739 -77709035 1175677614 -1023660911 1361365795 -1990985942 -655460672 1957371918 1995093192 -1515685526 -1102947556 -875567397 1931457804 611338293
REM
CELL 1.54180   50.00000   50.00000   50.00000   90.00000   90.00000   90.00000
LATT -1
SFAC C  
C      1  0.5528920000000  0.4937980000000  0.5498980000000 1.0
C      1  0.5454930000000  0.4650050000000  0.4710630000000 1.0
C      1  0.4291090000000  0.5197700000000  0.4853290000000 1.0
C      1  0.5632810000000  0.5382800000000  0.5353410000000 1.0
C      1  0.5320850000000  0.4544650000000  0.4939160000000 1.0
C      1  0.4714950000000  0.4800350000000  0.4470180000000 1.0
C      1  0.5467290000000  0.5216750000000  0.5508730000000 1.0
C      1  0.4862350000000  0.4210010000000  0.5140900000000 1.0
C      1  0.4732760000000  0.5486110000000  0.4905920000000 1.0
C      1  0.5051830000000  0.5377480000000  0.4843180000000 1.0
C      1  0.4915780000000  0.5514380000000  0.5191070000000 1.0
C      1  0.5480360000000  0.5059190000000  0.5001310000000 1.0
C      1  0.5950410000000  0.5217860000000  0.4644380000000 1.0
C      1  0.5816390000000  0.4979740000000  0.4621440000000 1.0
C      1  0.5073420000000  0.5299880000000  0.5255540000000 1.0
C      1  0.5633800000000  0.5326160000000  0.5051630000000 1.0
C      1  0.5413400000000  0.4790590000000  0.5713230000000 1.0
C      1  0.4531880000000  0.4614740000000  0.5091690000000 1.0
C      1  0.5539710000000  0.4845320000000  0.5237840000000 1.0
C      1  0.3565470000000  0.5085370000000  0.4578560000000 1.0
C      1  0.5002130000000  0.5698840000000  0.4928880000000 1.0
C      1  0.5578460000000  0.4902290000000  0.4744090000000 1.0
C      1  0.5839730000000  0.5412000000000  0.4802900000000 1.0
C      1  0.5614670000000  0.5615060000000  0.4869120000000 1.0
C      1  0.4312690000000  0.4755030000000  0.5174650000000 1.0
C      1  0.4498870000000  0.4658650000000  0.4581050000000 1.0
C      1  0.4814870000000  0.4454960000000  0.5019150000000 1.0
C      1  0.5053690000000  0.5108690000000  0.5718580000000 1.0
C      1  0.3801500000000  0.5024140000000  0.4653970000000 1.0
C      1  0.5053020000000  0.4626850000000  0.4962640000000 1.0
C      1  0.4564080000000  0.4501910000000  0.4800060000000 1.0
C      1  0.4194200000000  0.4958650000000  0.5033230000000 1.0
C      1  0.5182900000000  0.5250370000000  0.5508390000000 1.0
C      1  0.4089090000000  0.4967290000000  0.4719170000000 1.0
C      1  0.4458410000000  0.5394130000000  0.4857190000000 1.0
C      1  0.4237240000000  0.4755750000000  0.4550740000000 1.0
C      1  0.4902260000000  0.4924980000000  0.4625050000000 1.0
C      1  0.5480550000000  0.4578070000000  0.5170840000000 1.0
C      1  0.5156410000000  0.4861100000000  0.5795700000000 1.0
C      1  0.5014510000000  0.4890300000000  0.4878690000000 1.0
C      1  0.5172350000000  0.5123840000000  0.4994830000000 1.0
END
