TITL C-2848494-1720-547 0.000900323577142861 125000 -653.75628961139 0 0 119 (C1) n - 1
REM
REM in /home/bkarasulu/work/CARBON/AIRSS/Generating-Clusters/AIREBO/with-SteepDescent/Only-C1/SD-CG-opt/Try1-1.4A-POS3A/HFTN-CG
REM
REM
REM
REM
REM
REM ./C.cell (11c1c37f851c82e70ff6c80c92926a4b)
REM
REM compiler GCC version 9.2.1 20190827 (Red Hat 9.2.1-1)
REM options -cpp -mtune=generic -march=x86-64 -g -O0 -fpre-include=/usr/include/finclude/math-vector-fortran.h
REM seed 1237470229 -1779609988 -56179204 -930509600 1191075703 -1732729322 -1024236428 1911374292 1549605667 -1007871971 -760860613 -2083471963 1781336385 -528508881 639408223 -1045610763 -258288362 -812935524 -1687658066 150475687 -1318107958 -1700641695 2067808521 546142721 1669244654 835031008 -1791649430 -333866183 2040287284 -1388106559 -408548314 1678694889 898096291
REM
CELL 1.54180   50.00000   50.00000   50.00000   90.00000   90.00000   90.00000
LATT -1
SFAC C  
C      1  0.5243960000000  0.5122920000000  0.5921830000000 1.0
C      1  0.5327240000000  0.4168210000000  0.5185630000000 1.0
C      1  0.5844710000000  0.5397170000000  0.4951230000000 1.0
C      1  0.5299930000000  0.5648760000000  0.4678710000000 1.0
C      1  0.3936170000000  0.5220640000000  0.5144040000000 1.0
C      1  0.5153330000000  0.5473530000000  0.5630720000000 1.0
C      1  0.5293570000000  0.4566430000000  0.4504660000000 1.0
C      1  0.5422450000000  0.5688900000000  0.4403820000000 1.0
C      1  0.4991610000000  0.4238670000000  0.4919070000000 1.0
C      1  0.4873330000000  0.5361650000000  0.5683630000000 1.0
C      1  0.4344650000000  0.4677150000000  0.5769170000000 1.0
C      1  0.5515350000000  0.5771600000000  0.5347470000000 1.0
C      1  0.4759980000000  0.4539840000000  0.4335470000000 1.0
C      1  0.4673770000000  0.4202990000000  0.4803130000000 1.0
C      1  0.4637500000000  0.4857510000000  0.4756010000000 1.0
C      1  0.4936470000000  0.5272160000000  0.5086900000000 1.0
C      1  0.4971240000000  0.4569390000000  0.4132480000000 1.0
C      1  0.4147290000000  0.5156200000000  0.5392150000000 1.0
C      1  0.5301720000000  0.3914330000000  0.4971610000000 1.0
C      1  0.4533180000000  0.5484870000000  0.5517690000000 1.0
C      1  0.4350700000000  0.4738670000000  0.4744010000000 1.0
C      1  0.5439970000000  0.4746460000000  0.5583150000000 1.0
C      1  0.5420370000000  0.4276050000000  0.5454090000000 1.0
C      1  0.4650250000000  0.5060150000000  0.4483220000000 1.0
C      1  0.4714470000000  0.5019270000000  0.5812770000000 1.0
C      1  0.5736750000000  0.5171190000000  0.5047880000000 1.0
C      1  0.4219590000000  0.5407120000000  0.5166850000000 1.0
C      1  0.5240600000000  0.4592020000000  0.4203060000000 1.0
C      1  0.5366010000000  0.4419930000000  0.5005340000000 1.0
C      1  0.5610980000000  0.4502490000000  0.4800250000000 1.0
C      1  0.5004190000000  0.4872470000000  0.5299340000000 1.0
C      1  0.5153790000000  0.5609160000000  0.5356780000000 1.0
C      1  0.5788510000000  0.5338560000000  0.5515160000000 1.0
C      1  0.5002100000000  0.4104600000000  0.5215510000000 1.0
C      1  0.4484760000000  0.4826220000000  0.5956470000000 1.0
C      1  0.4584110000000  0.4851950000000  0.3961280000000 1.0
C      1  0.4796060000000  0.5322330000000  0.5354860000000 1.0
C      1  0.4240820000000  0.4591480000000  0.5288250000000 1.0
C      1  0.5211570000000  0.5929270000000  0.5367660000000 1.0
C      1  0.5138960000000  0.4815260000000  0.4631990000000 1.0
C      1  0.5200260000000  0.5064620000000  0.5098620000000 1.0
C      1  0.4822850000000  0.4958060000000  0.5022920000000 1.0
C      1  0.5585650000000  0.5178970000000  0.5304180000000 1.0
C      1  0.5934770000000  0.5076750000000  0.5468440000000 1.0
C      1  0.4956570000000  0.4949310000000  0.4385670000000 1.0
C      1  0.5872640000000  0.4824770000000  0.5350380000000 1.0
C      1  0.5171510000000  0.5511640000000  0.5031540000000 1.0
C      1  0.5151890000000  0.5188240000000  0.4494100000000 1.0
C      1  0.4837530000000  0.4841120000000  0.4085700000000 1.0
C      1  0.5236350000000  0.4353830000000  0.4712750000000 1.0
C      1  0.5838290000000  0.4862060000000  0.4444060000000 1.0
C      1  0.4988040000000  0.4549600000000  0.5013460000000 1.0
C      1  0.5757370000000  0.5608970000000  0.5521920000000 1.0
C      1  0.4253580000000  0.4618800000000  0.4376570000000 1.0
C      1  0.4154320000000  0.4628950000000  0.4978740000000 1.0
C      1  0.5722930000000  0.4640570000000  0.5505980000000 1.0
C      1  0.4469840000000  0.5567240000000  0.4624750000000 1.0
C      1  0.4893310000000  0.4670760000000  0.4753780000000 1.0
C      1  0.4560190000000  0.5327810000000  0.5811700000000 1.0
C      1  0.5244550000000  0.4675520000000  0.5161240000000 1.0
C      1  0.4260260000000  0.4337950000000  0.5060580000000 1.0
C      1  0.4572240000000  0.5525080000000  0.4139590000000 1.0
C      1  0.5473520000000  0.5668100000000  0.5034300000000 1.0
C      1  0.4547330000000  0.5279460000000  0.4722300000000 1.0
C      1  0.4084460000000  0.4924560000000  0.4721280000000 1.0
C      1  0.4464970000000  0.4446220000000  0.5687240000000 1.0
C      1  0.5856230000000  0.4791410000000  0.5068730000000 1.0
C      1  0.5103160000000  0.3953940000000  0.4770430000000 1.0
C      1  0.4832560000000  0.4401850000000  0.4590820000000 1.0
C      1  0.5437710000000  0.5440560000000  0.5354260000000 1.0
C      1  0.4217860000000  0.4845930000000  0.5512600000000 1.0
C      1  0.4722370000000  0.4436760000000  0.5492120000000 1.0
C      1  0.5397360000000  0.4926320000000  0.5334760000000 1.0
C      1  0.4945210000000  0.5725570000000  0.4910600000000 1.0
C      1  0.5695430000000  0.4353940000000  0.5488410000000 1.0
C      1  0.4325280000000  0.4437200000000  0.4607190000000 1.0
C      1  0.5057860000000  0.6008510000000  0.4908440000000 1.0
C      1  0.4887000000000  0.5886840000000  0.5461010000000 1.0
C      1  0.4542510000000  0.4679740000000  0.5350690000000 1.0
C      1  0.4657090000000  0.5742870000000  0.5359790000000 1.0
C      1  0.5277900000000  0.5146700000000  0.4117190000000 1.0
C      1  0.4547620000000  0.4764870000000  0.4349250000000 1.0
C      1  0.5901440000000  0.5129090000000  0.4443260000000 1.0
C      1  0.4672570000000  0.5703700000000  0.5041480000000 1.0
C      1  0.4555240000000  0.4935610000000  0.5549830000000 1.0
C      1  0.4420730000000  0.5735410000000  0.4845580000000 1.0
C      1  0.5246690000000  0.4837140000000  0.5814370000000 1.0
C      1  0.5257180000000  0.5337600000000  0.4758370000000 1.0
C      1  0.5344290000000  0.5354210000000  0.5786550000000 1.0
C      1  0.4530170000000  0.4942400000000  0.5131020000000 1.0
C      1  0.5550810000000  0.4768680000000  0.4597270000000 1.0
C      1  0.5842590000000  0.5395320000000  0.4431770000000 1.0
C      1  0.5403350000000  0.4999310000000  0.4395430000000 1.0
C      1  0.4366240000000  0.5669260000000  0.5177790000000 1.0
C      1  0.4974150000000  0.4095870000000  0.4546680000000 1.0
C      1  0.4386960000000  0.5186710000000  0.4966900000000 1.0
C      1  0.5851380000000  0.4538720000000  0.4930500000000 1.0
C      1  0.5310900000000  0.5006070000000  0.4811480000000 1.0
C      1  0.5670880000000  0.5593640000000  0.4841030000000 1.0
C      1  0.5254720000000  0.4482090000000  0.5558310000000 1.0
C      1  0.4086400000000  0.5126300000000  0.4901210000000 1.0
C      1  0.5358100000000  0.4834480000000  0.4109460000000 1.0
C      1  0.5627180000000  0.4950500000000  0.4874170000000 1.0
C      1  0.5673430000000  0.5588960000000  0.4551750000000 1.0
C      1  0.4330310000000  0.4745020000000  0.4089840000000 1.0
C      1  0.4827330000000  0.5426250000000  0.4800320000000 1.0
C      1  0.5170960000000  0.6107030000000  0.5111960000000 1.0
C      1  0.4776090000000  0.5282380000000  0.4258400000000 1.0
C      1  0.4985240000000  0.4550780000000  0.5595980000000 1.0
C      1  0.5087770000000  0.5343160000000  0.4131440000000 1.0
C      1  0.5233730000000  0.4629890000000  0.6038510000000 1.0
C      1  0.4952210000000  0.5463400000000  0.4486190000000 1.0
C      1  0.4644910000000  0.5625370000000  0.4412520000000 1.0
C      1  0.4484890000000  0.5185280000000  0.5364040000000 1.0
C      1  0.5175640000000  0.5604720000000  0.4272290000000 1.0
C      1  0.4961400000000  0.4864980000000  0.5636710000000 1.0
C      1  0.4966300000000  0.5191440000000  0.5962920000000 1.0
C      1  0.4796260000000  0.4158170000000  0.5383210000000 1.0
C      1  0.4401220000000  0.4261530000000  0.4820050000000 1.0
END
