TITL C-2848502-4955-606 0.000104191223810987 125000 -415.497394448236 0 0 76 (C1) n - 1
REM
REM in /home/bkarasulu/work/CARBON/AIRSS/Generating-Clusters/AIREBO/with-SteepDescent/Only-C1/SD-CG-opt/Try1-1.4A-POS3A/HFTN-CG
REM
REM
REM
REM
REM
REM ./C.cell (11c1c37f851c82e70ff6c80c92926a4b)
REM
REM compiler GCC version 9.2.1 20190827 (Red Hat 9.2.1-1)
REM options -cpp -mtune=generic -march=x86-64 -g -O0 -fpre-include=/usr/include/finclude/math-vector-fortran.h
REM seed -408264763 1817037310 1760308639 -186933152 1917079441 1235313287 1741652432 442598742 -1995029807 -156121870 1315254059 -121841188 364043116 1573043929 579704445 -1588826920 1735495179 2054292235 1956676675 -727210284 1086844373 726775553 135834160 699494123 1154571960 -228252147 2031463812 810049588 -1133717946 1895008971 517869097 1338952056 -1248489789
REM
CELL 1.54180   50.00000   50.00000   50.00000   90.00000   90.00000   90.00000
LATT -1
SFAC C  
C      1  0.5313900000000  0.5469370000000  0.4653490000000 1.0
C      1  0.4456310000000  0.4825830000000  0.5087370000000 1.0
C      1  0.5357220000000  0.5164880000000  0.5272410000000 1.0
C      1  0.4577130000000  0.4976020000000  0.5614270000000 1.0
C      1  0.5309750000000  0.4391760000000  0.5646770000000 1.0
C      1  0.4877960000000  0.5712650000000  0.4977310000000 1.0
C      1  0.5225880000000  0.5767860000000  0.5391720000000 1.0
C      1  0.4379860000000  0.4868610000000  0.4418820000000 1.0
C      1  0.4665940000000  0.5507700000000  0.4551650000000 1.0
C      1  0.4761580000000  0.4722280000000  0.5689500000000 1.0
C      1  0.4818790000000  0.4678520000000  0.4431290000000 1.0
C      1  0.5234050000000  0.4807120000000  0.4213050000000 1.0
C      1  0.5186070000000  0.5811810000000  0.5088770000000 1.0
C      1  0.4818270000000  0.5313890000000  0.4714630000000 1.0
C      1  0.4728180000000  0.5827550000000  0.5260170000000 1.0
C      1  0.5540750000000  0.5058500000000  0.5608800000000 1.0
C      1  0.5141920000000  0.5069990000000  0.5603140000000 1.0
C      1  0.4700700000000  0.5187400000000  0.5080810000000 1.0
C      1  0.4431680000000  0.4414890000000  0.4577910000000 1.0
C      1  0.5447060000000  0.4833870000000  0.5477150000000 1.0
C      1  0.4926560000000  0.5183230000000  0.4252660000000 1.0
C      1  0.4972070000000  0.5326580000000  0.4980260000000 1.0
C      1  0.5140150000000  0.4762690000000  0.4989370000000 1.0
C      1  0.5220250000000  0.5307900000000  0.4308440000000 1.0
C      1  0.5507280000000  0.5442810000000  0.4374220000000 1.0
C      1  0.4298920000000  0.4560740000000  0.5022860000000 1.0
C      1  0.5050070000000  0.4472400000000  0.5097420000000 1.0
C      1  0.5384920000000  0.5178440000000  0.4645920000000 1.0
C      1  0.5686390000000  0.4891530000000  0.5002000000000 1.0
C      1  0.4568150000000  0.5301180000000  0.5366840000000 1.0
C      1  0.4864850000000  0.4895120000000  0.5138820000000 1.0
C      1  0.4711720000000  0.5441090000000  0.4288310000000 1.0
C      1  0.5062710000000  0.4815280000000  0.5786460000000 1.0
C      1  0.5915300000000  0.4976400000000  0.5189610000000 1.0
C      1  0.5471480000000  0.5788480000000  0.4915080000000 1.0
C      1  0.5283800000000  0.4663590000000  0.5625310000000 1.0
C      1  0.4748420000000  0.4390830000000  0.4963350000000 1.0
C      1  0.5060030000000  0.5226430000000  0.5247640000000 1.0
C      1  0.5668280000000  0.5094790000000  0.4749560000000 1.0
C      1  0.5036350000000  0.4472730000000  0.4535150000000 1.0
C      1  0.4456130000000  0.5275280000000  0.4875450000000 1.0
C      1  0.4049650000000  0.4510100000000  0.5120220000000 1.0
C      1  0.5418920000000  0.4303590000000  0.4887440000000 1.0
C      1  0.5174990000000  0.5574820000000  0.5573170000000 1.0
C      1  0.4497710000000  0.5097770000000  0.4607690000000 1.0
C      1  0.5665860000000  0.5628360000000  0.4810940000000 1.0
C      1  0.4972710000000  0.4296970000000  0.4747660000000 1.0
C      1  0.4816490000000  0.5049360000000  0.5825890000000 1.0
C      1  0.4915470000000  0.4795110000000  0.4735800000000 1.0
C      1  0.4738030000000  0.5335620000000  0.5659680000000 1.0
C      1  0.4344620000000  0.5085110000000  0.5225620000000 1.0
C      1  0.4522730000000  0.4633160000000  0.4424130000000 1.0
C      1  0.5318640000000  0.4129810000000  0.5647020000000 1.0
C      1  0.5309880000000  0.5003390000000  0.4427550000000 1.0
C      1  0.4321590000000  0.5034420000000  0.5532290000000 1.0
C      1  0.5149220000000  0.5558500000000  0.4864960000000 1.0
C      1  0.5336000000000  0.4609610000000  0.4466480000000 1.0
C      1  0.5706560000000  0.5410650000000  0.4629500000000 1.0
C      1  0.5353690000000  0.4595520000000  0.4797140000000 1.0
C      1  0.4577570000000  0.5593430000000  0.4865540000000 1.0
C      1  0.4178780000000  0.5251680000000  0.5004710000000 1.0
C      1  0.4698460000000  0.4620730000000  0.5209440000000 1.0
C      1  0.4461460000000  0.4399370000000  0.4858090000000 1.0
C      1  0.5414500000000  0.4880220000000  0.5155660000000 1.0
C      1  0.5699940000000  0.4357470000000  0.4915900000000 1.0
C      1  0.5579640000000  0.4787810000000  0.4631820000000 1.0
C      1  0.4742770000000  0.4531960000000  0.5479570000000 1.0
C      1  0.4944450000000  0.4860150000000  0.4214540000000 1.0
C      1  0.4614130000000  0.4892120000000  0.4829710000000 1.0
C      1  0.4829660000000  0.5060860000000  0.4542980000000 1.0
C      1  0.4918220000000  0.5540470000000  0.5688780000000 1.0
C      1  0.5762200000000  0.4613040000000  0.4859270000000 1.0
C      1  0.5335530000000  0.5324090000000  0.5572110000000 1.0
C      1  0.4575020000000  0.5576300000000  0.5197450000000 1.0
C      1  0.4857040000000  0.5033280000000  0.5429540000000 1.0
C      1  0.5191070000000  0.4147090000000  0.4847990000000 1.0
END
