TITL C-2848495-5024-101 0.000362889397660995 125000 -663.934251958906 0 0 122 (C1) n - 1
REM
REM in /home/bkarasulu/work/CARBON/AIRSS/Generating-Clusters/AIREBO/with-SteepDescent/Only-C1/SD-CG-opt/Try1-1.4A-POS3A/HFTN-CG
REM
REM
REM
REM
REM
REM ./C.cell (11c1c37f851c82e70ff6c80c92926a4b)
REM
REM compiler GCC version 9.2.1 20190827 (Red Hat 9.2.1-1)
REM options -cpp -mtune=generic -march=x86-64 -g -O0 -fpre-include=/usr/include/finclude/math-vector-fortran.h
REM seed 1876920899 -1872895389 -1045084435 779934124 457056197 720836406 917797325 427692639 -1693672005 -1499255792 806127119 416593737 -1476066441 1933959193 2032824283 1564062161 1073955253 -795986312 -2009029005 -1121527588 1141516122 -2040924090 195150623 1764103166 1413923135 -737395988 1973969548 -1248690678 1737766908 1646814614 669795830 1337191554 -1340950249
REM
CELL 1.54180   50.00000   50.00000   50.00000   90.00000   90.00000   90.00000
LATT -1
SFAC C  
C      1  0.4611120000000  0.5679860000000  0.5165130000000 1.0
C      1  0.5671630000000  0.5464000000000  0.4347340000000 1.0
C      1  0.4266070000000  0.5149750000000  0.4471270000000 1.0
C      1  0.4715270000000  0.4463080000000  0.4244590000000 1.0
C      1  0.4272970000000  0.5249160000000  0.5549170000000 1.0
C      1  0.4438630000000  0.5237510000000  0.4268060000000 1.0
C      1  0.4492720000000  0.5061210000000  0.4994800000000 1.0
C      1  0.4663100000000  0.5182790000000  0.5518470000000 1.0
C      1  0.4393570000000  0.5538800000000  0.5018420000000 1.0
C      1  0.5151440000000  0.4838820000000  0.4460230000000 1.0
C      1  0.4763590000000  0.4860030000000  0.4369350000000 1.0
C      1  0.5024330000000  0.4391700000000  0.5765720000000 1.0
C      1  0.5799460000000  0.5338070000000  0.4897240000000 1.0
C      1  0.4841710000000  0.5835460000000  0.4694360000000 1.0
C      1  0.5731520000000  0.5253060000000  0.4513050000000 1.0
C      1  0.5521000000000  0.5424440000000  0.5699990000000 1.0
C      1  0.4026080000000  0.4665730000000  0.5060700000000 1.0
C      1  0.5742810000000  0.4975490000000  0.5568590000000 1.0
C      1  0.4701950000000  0.4840070000000  0.4843150000000 1.0
C      1  0.4990880000000  0.4565350000000  0.4187940000000 1.0
C      1  0.4948720000000  0.4889090000000  0.4095600000000 1.0
C      1  0.4995560000000  0.5011700000000  0.4844980000000 1.0
C      1  0.5452420000000  0.5689760000000  0.4409110000000 1.0
C      1  0.5038320000000  0.5316070000000  0.5247940000000 1.0
C      1  0.4779850000000  0.4796470000000  0.5959230000000 1.0
C      1  0.4814700000000  0.5870670000000  0.4999510000000 1.0
C      1  0.5248240000000  0.4945240000000  0.5734240000000 1.0
C      1  0.4349110000000  0.5278170000000  0.5218950000000 1.0
C      1  0.5270310000000  0.4973830000000  0.4986860000000 1.0
C      1  0.4694170000000  0.4280300000000  0.5427300000000 1.0
C      1  0.4976780000000  0.5180380000000  0.4216640000000 1.0
C      1  0.3983330000000  0.4936340000000  0.5134050000000 1.0
C      1  0.5711960000000  0.4427430000000  0.5258590000000 1.0
C      1  0.4493110000000  0.4704810000000  0.4316540000000 1.0
C      1  0.4414470000000  0.4834960000000  0.5222980000000 1.0
C      1  0.4784430000000  0.5297180000000  0.5881480000000 1.0
C      1  0.5316240000000  0.4589920000000  0.4623040000000 1.0
C      1  0.5463860000000  0.5145540000000  0.4648690000000 1.0
C      1  0.5215850000000  0.4406670000000  0.4354810000000 1.0
C      1  0.4954770000000  0.5480210000000  0.4962080000000 1.0
C      1  0.5744580000000  0.4792320000000  0.4899930000000 1.0
C      1  0.5422700000000  0.4972160000000  0.5453960000000 1.0
C      1  0.4662140000000  0.5346360000000  0.4953900000000 1.0
C      1  0.4362630000000  0.4580940000000  0.5028900000000 1.0
C      1  0.5360130000000  0.5211570000000  0.5212840000000 1.0
C      1  0.5022280000000  0.4695700000000  0.5782570000000 1.0
C      1  0.5407610000000  0.4904530000000  0.4131690000000 1.0
C      1  0.5047960000000  0.4467380000000  0.4794110000000 1.0
C      1  0.4468080000000  0.5527690000000  0.5541890000000 1.0
C      1  0.4209190000000  0.5601990000000  0.4810800000000 1.0
C      1  0.5532120000000  0.4095930000000  0.4637560000000 1.0
C      1  0.4911100000000  0.4692900000000  0.4619060000000 1.0
C      1  0.5370870000000  0.5422320000000  0.4222340000000 1.0
C      1  0.4916900000000  0.5435050000000  0.4659740000000 1.0
C      1  0.5258370000000  0.5777300000000  0.5370020000000 1.0
C      1  0.5106580000000  0.5741910000000  0.5107070000000 1.0
C      1  0.5974010000000  0.4789610000000  0.5595950000000 1.0
C      1  0.5476390000000  0.4848960000000  0.4774880000000 1.0
C      1  0.5566030000000  0.5415200000000  0.5391180000000 1.0
C      1  0.3939210000000  0.5154450000000  0.4877700000000 1.0
C      1  0.5316410000000  0.5802190000000  0.4613650000000 1.0
C      1  0.4253810000000  0.5053600000000  0.4797270000000 1.0
C      1  0.5350220000000  0.5671470000000  0.4881880000000 1.0
C      1  0.4477500000000  0.4408110000000  0.4481890000000 1.0
C      1  0.4110870000000  0.5507920000000  0.5296930000000 1.0
C      1  0.4974230000000  0.5134430000000  0.5521900000000 1.0
C      1  0.4699860000000  0.5319070000000  0.4348730000000 1.0
C      1  0.5071750000000  0.5460370000000  0.4379440000000 1.0
C      1  0.5701290000000  0.4277740000000  0.5478540000000 1.0
C      1  0.4076410000000  0.5033020000000  0.5375090000000 1.0
C      1  0.5264200000000  0.4466690000000  0.4999210000000 1.0
C      1  0.4878610000000  0.5059470000000  0.5125750000000 1.0
C      1  0.4655990000000  0.5606480000000  0.4525060000000 1.0
C      1  0.5593890000000  0.4724750000000  0.5295530000000 1.0
C      1  0.5930280000000  0.4755020000000  0.5293800000000 1.0
C      1  0.4247780000000  0.4815270000000  0.4481010000000 1.0
C      1  0.6019910000000  0.4919370000000  0.4766100000000 1.0
C      1  0.4951790000000  0.4812600000000  0.5504730000000 1.0
C      1  0.5264440000000  0.5485370000000  0.5767320000000 1.0
C      1  0.5884380000000  0.4521230000000  0.4641230000000 1.0
C      1  0.5835990000000  0.5640040000000  0.4959540000000 1.0
C      1  0.5290810000000  0.4685840000000  0.4081970000000 1.0
C      1  0.5177320000000  0.5726690000000  0.5639780000000 1.0
C      1  0.5283040000000  0.5123910000000  0.4359650000000 1.0
C      1  0.4123850000000  0.4455380000000  0.4821910000000 1.0
C      1  0.5521810000000  0.4243760000000  0.5685080000000 1.0
C      1  0.4802330000000  0.5885050000000  0.5343520000000 1.0
C      1  0.5526750000000  0.5701160000000  0.5313410000000 1.0
C      1  0.4960310000000  0.4315430000000  0.5243220000000 1.0
C      1  0.5242810000000  0.4249930000000  0.5647710000000 1.0
C      1  0.4763470000000  0.4287470000000  0.5690200000000 1.0
C      1  0.5094030000000  0.5243190000000  0.5793400000000 1.0
C      1  0.4526510000000  0.4891340000000  0.5941770000000 1.0
C      1  0.5964370000000  0.5175270000000  0.4673140000000 1.0
C      1  0.4865070000000  0.4003060000000  0.4770350000000 1.0
C      1  0.5825980000000  0.5074980000000  0.5077840000000 1.0
C      1  0.4446120000000  0.4664110000000  0.4709830000000 1.0
C      1  0.4071180000000  0.5367460000000  0.4640430000000 1.0
C      1  0.4857640000000  0.4262590000000  0.4934050000000 1.0
C      1  0.5772390000000  0.4473070000000  0.4960980000000 1.0
C      1  0.5604270000000  0.5750400000000  0.5050670000000 1.0
C      1  0.5028360000000  0.4638960000000  0.5271060000000 1.0
C      1  0.4783140000000  0.4629510000000  0.5073180000000 1.0
C      1  0.4838070000000  0.5112950000000  0.4584440000000 1.0
C      1  0.5005390000000  0.3985250000000  0.4536550000000 1.0
C      1  0.5576100000000  0.4388850000000  0.4696360000000 1.0
C      1  0.5179540000000  0.4141640000000  0.4395350000000 1.0
C      1  0.4609270000000  0.5788250000000  0.5549330000000 1.0
C      1  0.4751210000000  0.5463400000000  0.5364870000000 1.0
C      1  0.4589200000000  0.4373280000000  0.5117400000000 1.0
C      1  0.4498750000000  0.5151090000000  0.5784900000000 1.0
C      1  0.5460120000000  0.5351890000000  0.4919480000000 1.0
C      1  0.4692120000000  0.4926140000000  0.5330270000000 1.0
C      1  0.6093960000000  0.4869470000000  0.5074670000000 1.0
C      1  0.5308010000000  0.4714320000000  0.5156870000000 1.0
C      1  0.5169870000000  0.4147310000000  0.5390900000000 1.0
C      1  0.4208120000000  0.4295980000000  0.4624480000000 1.0
C      1  0.4307880000000  0.4789580000000  0.6071180000000 1.0
C      1  0.4338700000000  0.5586640000000  0.4534450000000 1.0
C      1  0.3974130000000  0.4932330000000  0.4624990000000 1.0
C      1  0.5071360000000  0.5942480000000  0.4590360000000 1.0
C      1  0.5752120000000  0.5173060000000  0.5349130000000 1.0
END
