TITL C-2847945-6269-726 0.00072351772565409 125000 -136.255520832809 0 0 26 (C1) n - 1
REM
REM in /home/bkarasulu/work/CARBON/AIRSS/Generating-Clusters/AIREBO/with-SteepDescent/Only-C1/SD-CG-opt/Try1-1.4A-POS3A/HFTN-CG
REM
REM
REM
REM
REM
REM ./C.cell (11c1c37f851c82e70ff6c80c92926a4b)
REM
REM compiler GCC version 9.2.1 20190827 (Red Hat 9.2.1-1)
REM options -cpp -mtune=generic -march=x86-64 -g -O0 -fpre-include=/usr/include/finclude/math-vector-fortran.h
REM seed -1226830123 -707505405 744829581 -475555962 -666374593 -1938083388 -1459198248 734291317 -798095708 -1953112816 877000844 -1577165334 -1923397392 -2024725930 -133900091 1699445705 2003300474 544916150 -1920158540 -709149004 -2045439986 852096278 2131837226 1671578675 -431110172 1324105075 1240239335 369582273 456928618 -1786087534 225004368 129730326 1552862323
REM
CELL 1.54180   50.00000   50.00000   50.00000   90.00000   90.00000   90.00000
LATT -1
SFAC C  
C      1  0.4314810000000  0.4847500000000  0.4555340000000 1.0
C      1  0.4659970000000  0.5763810000000  0.4866570000000 1.0
C      1  0.4229680000000  0.5145700000000  0.4481420000000 1.0
C      1  0.5228050000000  0.5377750000000  0.5122260000000 1.0
C      1  0.4822040000000  0.5329630000000  0.4835370000000 1.0
C      1  0.4438600000000  0.5373830000000  0.4572530000000 1.0
C      1  0.4837180000000  0.4755550000000  0.4867720000000 1.0
C      1  0.4380830000000  0.4600890000000  0.4621610000000 1.0
C      1  0.5366170000000  0.4529830000000  0.5593360000000 1.0
C      1  0.4794080000000  0.5054920000000  0.4715850000000 1.0
C      1  0.5875650000000  0.4665810000000  0.5464000000000 1.0
C      1  0.5694650000000  0.4912810000000  0.5396960000000 1.0
C      1  0.4914110000000  0.4754780000000  0.5135360000000 1.0
C      1  0.4649490000000  0.4548170000000  0.4784800000000 1.0
C      1  0.5506290000000  0.4495850000000  0.5119880000000 1.0
C      1  0.5852750000000  0.5347740000000  0.5468530000000 1.0
C      1  0.4998710000000  0.5471450000000  0.5003720000000 1.0
C      1  0.5664980000000  0.5177110000000  0.5375070000000 1.0
C      1  0.4466080000000  0.4297840000000  0.4696180000000 1.0
C      1  0.5061350000000  0.4861990000000  0.4634160000000 1.0
C      1  0.5191320000000  0.4478070000000  0.5771970000000 1.0
C      1  0.5435430000000  0.5280020000000  0.5257820000000 1.0
C      1  0.4562310000000  0.5069070000000  0.4521000000000 1.0
C      1  0.4605270000000  0.5507250000000  0.4747070000000 1.0
C      1  0.4896680000000  0.5742990000000  0.5022510000000 1.0
C      1  0.5553540000000  0.4609650000000  0.5368940000000 1.0
END
