TITL C-2848499-1157-427 0.00060691913357674 125000 -340.78056377554 0 0 66 (C1) n - 1
REM
REM in /home/bkarasulu/work/CARBON/AIRSS/Generating-Clusters/AIREBO/with-SteepDescent/Only-C1/SD-CG-opt/Try1-1.4A-POS3A/HFTN-CG
REM
REM
REM
REM
REM
REM ./C.cell (11c1c37f851c82e70ff6c80c92926a4b)
REM
REM compiler GCC version 9.2.1 20190827 (Red Hat 9.2.1-1)
REM options -cpp -mtune=generic -march=x86-64 -g -O0 -fpre-include=/usr/include/finclude/math-vector-fortran.h
REM seed 140516650 416002943 1557406165 -2072651096 890197584 -1072026859 566460098 2111159897 1795947906 1315033608 472195628 1716667628 -1381612536 -266197997 -691912923 56450538 -1297094338 929964721 1373856785 231932125 -1443535510 1862169010 1047108280 -612115575 -776256436 1510119148 1515955232 -1298844412 1078635988 1427236967 1013542979 -1132807141 1384202930
REM
CELL 1.54180   50.00000   50.00000   50.00000   90.00000   90.00000   90.00000
LATT -1
SFAC C  
C      1  0.4658500000000  0.4359100000000  0.5160920000000 1.0
C      1  0.5189430000000  0.4874580000000  0.4866150000000 1.0
C      1  0.5084830000000  0.5287400000000  0.5462750000000 1.0
C      1  0.5568240000000  0.4532030000000  0.4993210000000 1.0
C      1  0.4636750000000  0.4840750000000  0.5403950000000 1.0
C      1  0.5396670000000  0.4928030000000  0.5312540000000 1.0
C      1  0.4480150000000  0.5133620000000  0.5329030000000 1.0
C      1  0.5211100000000  0.5494780000000  0.4417400000000 1.0
C      1  0.4498120000000  0.5230870000000  0.4375600000000 1.0
C      1  0.5177220000000  0.4792710000000  0.5499320000000 1.0
C      1  0.5199580000000  0.5015070000000  0.4268180000000 1.0
C      1  0.4814600000000  0.4616340000000  0.5587470000000 1.0
C      1  0.5305640000000  0.4403340000000  0.5153120000000 1.0
C      1  0.5397600000000  0.5444050000000  0.4698140000000 1.0
C      1  0.4525170000000  0.4946880000000  0.4742810000000 1.0
C      1  0.4306200000000  0.4699200000000  0.4822510000000 1.0
C      1  0.5426270000000  0.5331670000000  0.5016250000000 1.0
C      1  0.5311110000000  0.5534180000000  0.5454690000000 1.0
C      1  0.5301990000000  0.5018100000000  0.4594370000000 1.0
C      1  0.4759240000000  0.5513060000000  0.5510820000000 1.0
C      1  0.4853440000000  0.5274190000000  0.5681420000000 1.0
C      1  0.5112810000000  0.4535880000000  0.4829210000000 1.0
C      1  0.5620240000000  0.4578780000000  0.4676990000000 1.0
C      1  0.5640320000000  0.4773430000000  0.5132110000000 1.0
C      1  0.5038060000000  0.5224270000000  0.4654740000000 1.0
C      1  0.4380960000000  0.5250400000000  0.4682470000000 1.0
C      1  0.4824360000000  0.4988470000000  0.4605800000000 1.0
C      1  0.5581940000000  0.5168640000000  0.4695510000000 1.0
C      1  0.4395160000000  0.4794500000000  0.5088970000000 1.0
C      1  0.5100920000000  0.4257890000000  0.5348150000000 1.0
C      1  0.4644340000000  0.5025920000000  0.5051410000000 1.0
C      1  0.4806000000000  0.5692230000000  0.5225290000000 1.0
C      1  0.5357430000000  0.4319730000000  0.4827620000000 1.0
C      1  0.5013520000000  0.5716240000000  0.4950360000000 1.0
C      1  0.4773160000000  0.5293630000000  0.4856630000000 1.0
C      1  0.4773480000000  0.5177710000000  0.4354100000000 1.0
C      1  0.5223500000000  0.4711850000000  0.4350580000000 1.0
C      1  0.5032470000000  0.4574640000000  0.4501030000000 1.0
C      1  0.4335950000000  0.4689250000000  0.5357170000000 1.0
C      1  0.4781880000000  0.4660140000000  0.5154960000000 1.0
C      1  0.5573820000000  0.5148380000000  0.5479280000000 1.0
C      1  0.4561010000000  0.4627930000000  0.4623230000000 1.0
C      1  0.4524790000000  0.5439450000000  0.5353270000000 1.0
C      1  0.5271610000000  0.4556030000000  0.5719570000000 1.0
C      1  0.4490810000000  0.5619530000000  0.5114790000000 1.0
C      1  0.4940660000000  0.5545390000000  0.4596290000000 1.0
C      1  0.5666060000000  0.5087550000000  0.5001490000000 1.0
C      1  0.5030450000000  0.4429320000000  0.5575090000000 1.0
C      1  0.4927120000000  0.5148790000000  0.5195230000000 1.0
C      1  0.5475400000000  0.4735250000000  0.4519650000000 1.0
C      1  0.4343020000000  0.5178820000000  0.5012720000000 1.0
C      1  0.5206550000000  0.5725240000000  0.4691320000000 1.0
C      1  0.4896260000000  0.4153380000000  0.5184830000000 1.0
C      1  0.5382930000000  0.5282900000000  0.5626320000000 1.0
C      1  0.5464800000000  0.5555420000000  0.5229630000000 1.0
C      1  0.4898470000000  0.4957290000000  0.5587160000000 1.0
C      1  0.5096450000000  0.4638550000000  0.5233180000000 1.0
C      1  0.5784550000000  0.5013860000000  0.5311560000000 1.0
C      1  0.4962150000000  0.5435070000000  0.5070680000000 1.0
C      1  0.4781200000000  0.4458280000000  0.4613180000000 1.0
C      1  0.4848520000000  0.4321920000000  0.4891880000000 1.0
C      1  0.4511860000000  0.5497160000000  0.4841180000000 1.0
C      1  0.5230120000000  0.5066690000000  0.5094070000000 1.0
C      1  0.4866540000000  0.4769610000000  0.4847430000000 1.0
C      1  0.4689140000000  0.5654300000000  0.4636510000000 1.0
C      1  0.5037350000000  0.5250340000000  0.4256690000000 1.0
END
