TITL C-2848507-1641-227 -0.000485864466396538 125000 -848.334222908142 0 0 161 (C1) n - 1
REM
REM in /home/bkarasulu/work/CARBON/AIRSS/Generating-Clusters/AIREBO/with-SteepDescent/Only-C1/SD-CG-opt/Try1-1.4A-POS3A/HFTN-CG
REM
REM
REM
REM
REM
REM ./C.cell (11c1c37f851c82e70ff6c80c92926a4b)
REM
REM compiler GCC version 9.2.1 20190827 (Red Hat 9.2.1-1)
REM options -cpp -mtune=generic -march=x86-64 -g -O0 -fpre-include=/usr/include/finclude/math-vector-fortran.h
REM seed -719957054 1693595421 -664493249 -855463780 542040978 -768290895 1719040893 -1897075336 1651559839 2084666919 -1044078565 -1281821729 -831867542 -1027559678 2035688266 -922421826 -218323375 1494354080 -709488986 -696608570 -1618895107 -266618930 1090899048 -868764476 2058891805 365976650 -213289019 1154027864 11525232 1169347610 -304119302 150125113 959581217
REM
CELL 1.54180   50.00000   50.00000   50.00000   90.00000   90.00000   90.00000
LATT -1
SFAC C  
C      1  0.4952640000000  0.4396100000000  0.5769190000000 1.0
C      1  0.4890370000000  0.5443350000000  0.5887800000000 1.0
C      1  0.5654510000000  0.4963260000000  0.5844350000000 1.0
C      1  0.4338940000000  0.4238890000000  0.5192640000000 1.0
C      1  0.4364520000000  0.5088570000000  0.4962340000000 1.0
C      1  0.5288220000000  0.4341550000000  0.5766030000000 1.0
C      1  0.6021750000000  0.4710790000000  0.4644340000000 1.0
C      1  0.5070870000000  0.5429270000000  0.5175380000000 1.0
C      1  0.4093750000000  0.5244870000000  0.4854390000000 1.0
C      1  0.5794850000000  0.5828830000000  0.4726930000000 1.0
C      1  0.5105030000000  0.5904250000000  0.4536920000000 1.0
C      1  0.4365860000000  0.4831250000000  0.4539610000000 1.0
C      1  0.4454370000000  0.4068530000000  0.4587370000000 1.0
C      1  0.4842130000000  0.4264240000000  0.5091930000000 1.0
C      1  0.5179440000000  0.4882830000000  0.5688320000000 1.0
C      1  0.4441680000000  0.5539130000000  0.5839260000000 1.0
C      1  0.5522730000000  0.4447980000000  0.5108490000000 1.0
C      1  0.4767690000000  0.4773850000000  0.4015110000000 1.0
C      1  0.4997890000000  0.5528420000000  0.4496870000000 1.0
C      1  0.5278830000000  0.5263480000000  0.4403380000000 1.0
C      1  0.4468940000000  0.4668630000000  0.4113800000000 1.0
C      1  0.5997870000000  0.4984650000000  0.4642540000000 1.0
C      1  0.4653990000000  0.4803000000000  0.5539220000000 1.0
C      1  0.5534350000000  0.4156240000000  0.4623920000000 1.0
C      1  0.4036620000000  0.4903120000000  0.4862880000000 1.0
C      1  0.4274560000000  0.5470580000000  0.5034180000000 1.0
C      1  0.4076320000000  0.5246110000000  0.4551780000000 1.0
C      1  0.6006930000000  0.4338050000000  0.5024790000000 1.0
C      1  0.4284210000000  0.4492660000000  0.4346010000000 1.0
C      1  0.5666780000000  0.4591980000000  0.4352840000000 1.0
C      1  0.4437580000000  0.4558290000000  0.5561400000000 1.0
C      1  0.5092510000000  0.5988900000000  0.5034080000000 1.0
C      1  0.5588680000000  0.5693770000000  0.4492450000000 1.0
C      1  0.3974750000000  0.4513140000000  0.5365050000000 1.0
C      1  0.4614320000000  0.5460000000000  0.5051030000000 1.0
C      1  0.5517030000000  0.5221920000000  0.4177010000000 1.0
C      1  0.4520870000000  0.5235090000000  0.4705140000000 1.0
C      1  0.5202120000000  0.5090840000000  0.5956370000000 1.0
C      1  0.5373020000000  0.5956450000000  0.4480180000000 1.0
C      1  0.5693660000000  0.5535370000000  0.5497450000000 1.0
C      1  0.4488350000000  0.5325530000000  0.5596870000000 1.0
C      1  0.4371660000000  0.5772270000000  0.5317660000000 1.0
C      1  0.5059990000000  0.5761230000000  0.4815250000000 1.0
C      1  0.5226910000000  0.4651530000000  0.4655100000000 1.0
C      1  0.4982390000000  0.5645340000000  0.5422700000000 1.0
C      1  0.4802950000000  0.5070790000000  0.3978420000000 1.0
C      1  0.4811350000000  0.5585190000000  0.4148540000000 1.0
C      1  0.4279320000000  0.5398880000000  0.4434040000000 1.0
C      1  0.4982610000000  0.4934790000000  0.4875490000000 1.0
C      1  0.4107670000000  0.4571790000000  0.4864350000000 1.0
C      1  0.4673280000000  0.4205120000000  0.4171520000000 1.0
C      1  0.4838860000000  0.5062060000000  0.5525930000000 1.0
C      1  0.4300720000000  0.4786320000000  0.5349220000000 1.0
C      1  0.6099620000000  0.4581650000000  0.5120200000000 1.0
C      1  0.5742590000000  0.5057590000000  0.5028510000000 1.0
C      1  0.4482860000000  0.4320000000000  0.4526950000000 1.0
C      1  0.5772800000000  0.5419290000000  0.4412260000000 1.0
C      1  0.5380950000000  0.4040130000000  0.4443090000000 1.0
C      1  0.4442490000000  0.4332120000000  0.4102210000000 1.0
C      1  0.4659000000000  0.4930130000000  0.4959180000000 1.0
C      1  0.4593610000000  0.5976130000000  0.5191440000000 1.0
C      1  0.4446140000000  0.5927880000000  0.4910430000000 1.0
C      1  0.5494070000000  0.3994750000000  0.5160480000000 1.0
C      1  0.5623920000000  0.5276550000000  0.5706850000000 1.0
C      1  0.4996190000000  0.5274550000000  0.4879220000000 1.0
C      1  0.5288370000000  0.5616100000000  0.4044480000000 1.0
C      1  0.4762310000000  0.4504600000000  0.4585550000000 1.0
C      1  0.5669290000000  0.4751910000000  0.5163890000000 1.0
C      1  0.4161400000000  0.5113820000000  0.5531270000000 1.0
C      1  0.5095850000000  0.5110690000000  0.3897880000000 1.0
C      1  0.5904330000000  0.4789920000000  0.5403910000000 1.0
C      1  0.4862520000000  0.4967240000000  0.4372330000000 1.0
C      1  0.5505830000000  0.5423300000000  0.3994480000000 1.0
C      1  0.5251400000000  0.4605260000000  0.4096260000000 1.0
C      1  0.4382820000000  0.4656460000000  0.5045750000000 1.0
C      1  0.4604220000000  0.5862630000000  0.4684940000000 1.0
C      1  0.5273490000000  0.4983300000000  0.5044810000000 1.0
C      1  0.5458920000000  0.5057470000000  0.5305800000000 1.0
C      1  0.4908270000000  0.4677650000000  0.5687370000000 1.0
C      1  0.4950860000000  0.4784780000000  0.4587590000000 1.0
C      1  0.5314510000000  0.4867780000000  0.4147380000000 1.0
C      1  0.5496550000000  0.5070130000000  0.4803110000000 1.0
C      1  0.4970430000000  0.4565430000000  0.4090740000000 1.0
C      1  0.5317380000000  0.4231280000000  0.5272010000000 1.0
C      1  0.4671350000000  0.5515850000000  0.5382450000000 1.0
C      1  0.4224880000000  0.4816650000000  0.5778630000000 1.0
C      1  0.5021210000000  0.5662870000000  0.3967060000000 1.0
C      1  0.5728540000000  0.5126410000000  0.4558380000000 1.0
C      1  0.4672280000000  0.5589980000000  0.5980570000000 1.0
C      1  0.3878090000000  0.5173170000000  0.5258780000000 1.0
C      1  0.4548170000000  0.5229500000000  0.4365400000000 1.0
C      1  0.4104530000000  0.4986440000000  0.5156560000000 1.0
C      1  0.4068970000000  0.4975530000000  0.4472110000000 1.0
C      1  0.4221980000000  0.5769940000000  0.4941180000000 1.0
C      1  0.4547060000000  0.4921450000000  0.4310840000000 1.0
C      1  0.5453720000000  0.4818450000000  0.4604220000000 1.0
C      1  0.4740050000000  0.4927490000000  0.5954630000000 1.0
C      1  0.5066570000000  0.4415260000000  0.5277060000000 1.0
C      1  0.4873340000000  0.5833880000000  0.5161430000000 1.0
C      1  0.4804490000000  0.5790600000000  0.4419730000000 1.0
C      1  0.4813960000000  0.5528600000000  0.4783100000000 1.0
C      1  0.5220770000000  0.4596230000000  0.5981160000000 1.0
C      1  0.5696560000000  0.4306320000000  0.5364220000000 1.0
C      1  0.5591060000000  0.4400260000000  0.5656810000000 1.0
C      1  0.4529410000000  0.4297850000000  0.5463760000000 1.0
C      1  0.5016270000000  0.5973400000000  0.5505870000000 1.0
C      1  0.4963760000000  0.4016420000000  0.5280470000000 1.0
C      1  0.5833360000000  0.5681160000000  0.4971340000000 1.0
C      1  0.4532970000000  0.5556030000000  0.4593500000000 1.0
C      1  0.5432570000000  0.4751330000000  0.5408220000000 1.0
C      1  0.5306330000000  0.5924670000000  0.5425780000000 1.0
C      1  0.5302390000000  0.5574950000000  0.4352460000000 1.0
C      1  0.5240180000000  0.3902660000000  0.4270040000000 1.0
C      1  0.4839770000000  0.5185480000000  0.5819450000000 1.0
C      1  0.5569070000000  0.5488800000000  0.4747740000000 1.0
C      1  0.4693210000000  0.5177730000000  0.5172110000000 1.0
C      1  0.4951020000000  0.4647350000000  0.5058170000000 1.0
C      1  0.5636970000000  0.5741090000000  0.5218190000000 1.0
C      1  0.5017990000000  0.5100400000000  0.5236790000000 1.0
C      1  0.5106500000000  0.5077350000000  0.4236110000000 1.0
C      1  0.5404370000000  0.5495730000000  0.5180810000000 1.0
C      1  0.5119130000000  0.5549460000000  0.5724480000000 1.0
C      1  0.5717070000000  0.5007190000000  0.5521370000000 1.0
C      1  0.5805340000000  0.5363100000000  0.4892230000000 1.0
C      1  0.5136090000000  0.4129410000000  0.5543840000000 1.0
C      1  0.4271410000000  0.5464610000000  0.5374740000000 1.0
C      1  0.4805600000000  0.4188030000000  0.5600970000000 1.0
C      1  0.5482280000000  0.4449200000000  0.4176420000000 1.0
C      1  0.5915680000000  0.4182280000000  0.5255840000000 1.0
C      1  0.4083840000000  0.4647260000000  0.4536620000000 1.0
C      1  0.5342970000000  0.5883560000000  0.5123970000000 1.0
C      1  0.4864400000000  0.4382440000000  0.4284550000000 1.0
C      1  0.5460800000000  0.4701120000000  0.5747080000000 1.0
C      1  0.5290310000000  0.5543690000000  0.4864030000000 1.0
C      1  0.5333130000000  0.5331280000000  0.5875120000000 1.0
C      1  0.4725160000000  0.5313830000000  0.4140640000000 1.0
C      1  0.3983670000000  0.5353630000000  0.5457080000000 1.0
C      1  0.5041100000000  0.4822180000000  0.6055550000000 1.0
C      1  0.4538190000000  0.4704220000000  0.4745450000000 1.0
C      1  0.4450120000000  0.5091780000000  0.5352830000000 1.0
C      1  0.5670490000000  0.4022940000000  0.4983270000000 1.0
C      1  0.5155130000000  0.5174460000000  0.5532040000000 1.0
C      1  0.5240290000000  0.4519790000000  0.4932840000000 1.0
C      1  0.5810600000000  0.4529430000000  0.4590080000000 1.0
C      1  0.4487720000000  0.5018270000000  0.5743410000000 1.0
C      1  0.5714300000000  0.4333420000000  0.4851640000000 1.0
C      1  0.5891650000000  0.4550610000000  0.5609700000000 1.0
C      1  0.4028700000000  0.4746410000000  0.5549310000000 1.0
C      1  0.5122220000000  0.4684970000000  0.5417710000000 1.0
C      1  0.4791400000000  0.6116300000000  0.5430660000000 1.0
C      1  0.5256420000000  0.5251860000000  0.4694370000000 1.0
C      1  0.4670380000000  0.4710980000000  0.5218910000000 1.0
C      1  0.4105860000000  0.4387910000000  0.5144640000000 1.0
C      1  0.5310330000000  0.5427320000000  0.5493860000000 1.0
C      1  0.4928510000000  0.4397040000000  0.4828480000000 1.0
C      1  0.5438190000000  0.5727500000000  0.5564480000000 1.0
C      1  0.4323750000000  0.4554590000000  0.5880340000000 1.0
C      1  0.5599530000000  0.4923560000000  0.4317870000000 1.0
C      1  0.4627710000000  0.4065050000000  0.5244390000000 1.0
C      1  0.5669760000000  0.5299200000000  0.5256430000000 1.0
C      1  0.6186840000000  0.4833280000000  0.5229470000000 1.0
END
