TITL C-2848503-6230-174 -0.00104228455945742 125000 -997.702461884635 0 0 186 (C1) n - 1
REM
REM in /home/bkarasulu/work/CARBON/AIRSS/Generating-Clusters/AIREBO/with-SteepDescent/Only-C1/SD-CG-opt/Try1-1.4A-POS3A/HFTN-CG
REM
REM
REM
REM
REM
REM ./C.cell (11c1c37f851c82e70ff6c80c92926a4b)
REM
REM compiler GCC version 9.2.1 20190827 (Red Hat 9.2.1-1)
REM options -cpp -mtune=generic -march=x86-64 -g -O0 -fpre-include=/usr/include/finclude/math-vector-fortran.h
REM seed -1206128703 737382230 1746270506 2128771802 1781925304 1282251449 1008168871 948080888 1899783444 -589353993 -1022406075 -2132088171 -265565638 594889342 -537485877 -1856827080 -894866148 169141812 -1658224504 -1518469000 1354047301 1801053178 1933142905 690094896 -156032591 1137734840 -1186707659 -1933881195 358461268 748755640 510984548 1771821023 -1624427608
REM
CELL 1.54180   50.00000   50.00000   50.00000   90.00000   90.00000   90.00000
LATT -1
SFAC C  
C      1  0.5830300000000  0.4949010000000  0.5278070000000 1.0
C      1  0.5054800000000  0.5742350000000  0.4747810000000 1.0
C      1  0.4961000000000  0.5248800000000  0.6030500000000 1.0
C      1  0.4792540000000  0.5196860000000  0.5277580000000 1.0
C      1  0.4962370000000  0.4364550000000  0.4615300000000 1.0
C      1  0.4448180000000  0.4182330000000  0.4521210000000 1.0
C      1  0.5454760000000  0.3996180000000  0.4941080000000 1.0
C      1  0.4458420000000  0.4847580000000  0.4721640000000 1.0
C      1  0.4856810000000  0.4611930000000  0.4321100000000 1.0
C      1  0.4449020000000  0.5028870000000  0.5903790000000 1.0
C      1  0.4085100000000  0.4556410000000  0.4420390000000 1.0
C      1  0.5415700000000  0.4884780000000  0.5608390000000 1.0
C      1  0.4022610000000  0.5384940000000  0.4664210000000 1.0
C      1  0.5662730000000  0.4784020000000  0.4169700000000 1.0
C      1  0.5551460000000  0.5300070000000  0.5232250000000 1.0
C      1  0.4573450000000  0.4965600000000  0.5019600000000 1.0
C      1  0.6002390000000  0.4884830000000  0.4669490000000 1.0
C      1  0.4761880000000  0.4916380000000  0.4671530000000 1.0
C      1  0.4386790000000  0.5588600000000  0.4982740000000 1.0
C      1  0.4451750000000  0.5282820000000  0.4610230000000 1.0
C      1  0.5846540000000  0.5340060000000  0.4917130000000 1.0
C      1  0.5847480000000  0.4472570000000  0.4335920000000 1.0
C      1  0.4610330000000  0.4697870000000  0.5177750000000 1.0
C      1  0.5667330000000  0.4720930000000  0.5448870000000 1.0
C      1  0.4648730000000  0.5075090000000  0.5561060000000 1.0
C      1  0.4347910000000  0.5773720000000  0.5508400000000 1.0
C      1  0.4217010000000  0.5251430000000  0.5505590000000 1.0
C      1  0.5181470000000  0.5124780000000  0.4639120000000 1.0
C      1  0.4941770000000  0.4796650000000  0.5604170000000 1.0
C      1  0.3969830000000  0.4415850000000  0.4911150000000 1.0
C      1  0.4197780000000  0.4273040000000  0.5082920000000 1.0
C      1  0.4731450000000  0.4160480000000  0.4471340000000 1.0
C      1  0.5348030000000  0.4412730000000  0.5038460000000 1.0
C      1  0.5287800000000  0.6199600000000  0.5007570000000 1.0
C      1  0.4581580000000  0.5836230000000  0.4532000000000 1.0
C      1  0.4865970000000  0.3873540000000  0.5038220000000 1.0
C      1  0.4815750000000  0.5780550000000  0.5706180000000 1.0
C      1  0.4427410000000  0.4869850000000  0.4321200000000 1.0
C      1  0.5613500000000  0.4492270000000  0.4139220000000 1.0
C      1  0.4564280000000  0.4616440000000  0.4495680000000 1.0
C      1  0.5740390000000  0.4333160000000  0.4573250000000 1.0
C      1  0.5473650000000  0.5448210000000  0.4531750000000 1.0
C      1  0.5214460000000  0.6105920000000  0.5299180000000 1.0
C      1  0.5320600000000  0.5936650000000  0.4832760000000 1.0
C      1  0.4281700000000  0.4660640000000  0.5098630000000 1.0
C      1  0.5603090000000  0.4400110000000  0.5502440000000 1.0
C      1  0.5187680000000  0.4694050000000  0.4323630000000 1.0
C      1  0.4106250000000  0.5643640000000  0.4466030000000 1.0
C      1  0.4821770000000  0.4494990000000  0.5005280000000 1.0
C      1  0.5604420000000  0.4281310000000  0.5222540000000 1.0
C      1  0.3966600000000  0.5403330000000  0.4269800000000 1.0
C      1  0.3882160000000  0.4640460000000  0.5035580000000 1.0
C      1  0.4717350000000  0.5364980000000  0.4743140000000 1.0
C      1  0.5345270000000  0.4530470000000  0.4567230000000 1.0
C      1  0.5770760000000  0.4649600000000  0.4686310000000 1.0
C      1  0.5781680000000  0.5166810000000  0.5782410000000 1.0
C      1  0.4769850000000  0.5636350000000  0.4644870000000 1.0
C      1  0.4926360000000  0.6024000000000  0.4606470000000 1.0
C      1  0.4769700000000  0.5762250000000  0.5156390000000 1.0
C      1  0.5494880000000  0.5639130000000  0.4255220000000 1.0
C      1  0.4420480000000  0.5057350000000  0.5309340000000 1.0
C      1  0.4738850000000  0.5483360000000  0.5795520000000 1.0
C      1  0.6059590000000  0.5076000000000  0.4893460000000 1.0
C      1  0.5927960000000  0.5033760000000  0.4373040000000 1.0
C      1  0.5638300000000  0.4898620000000  0.4489060000000 1.0
C      1  0.3943380000000  0.5305490000000  0.5492700000000 1.0
C      1  0.5437880000000  0.5176010000000  0.4123180000000 1.0
C      1  0.5867020000000  0.5319310000000  0.4346260000000 1.0
C      1  0.4681600000000  0.5444570000000  0.5072260000000 1.0
C      1  0.6012470000000  0.4704420000000  0.4374720000000 1.0
C      1  0.5350330000000  0.5873280000000  0.4335630000000 1.0
C      1  0.3988770000000  0.5166480000000  0.4182130000000 1.0
C      1  0.4473470000000  0.4116160000000  0.5568410000000 1.0
C      1  0.5711850000000  0.5874530000000  0.4862700000000 1.0
C      1  0.3938030000000  0.4430450000000  0.4629250000000 1.0
C      1  0.4233930000000  0.4416690000000  0.5675960000000 1.0
C      1  0.5394440000000  0.5676640000000  0.5014940000000 1.0
C      1  0.4187520000000  0.4107240000000  0.5688560000000 1.0
C      1  0.5058650000000  0.5610110000000  0.5061100000000 1.0
C      1  0.4554980000000  0.5272920000000  0.5964580000000 1.0
C      1  0.4644580000000  0.5981350000000  0.4792150000000 1.0
C      1  0.5225880000000  0.5493390000000  0.5716510000000 1.0
C      1  0.4274410000000  0.4993610000000  0.5674640000000 1.0
C      1  0.5041190000000  0.4328270000000  0.4286320000000 1.0
C      1  0.5006690000000  0.5541210000000  0.5390020000000 1.0
C      1  0.4813580000000  0.4804680000000  0.6038510000000 1.0
C      1  0.4988790000000  0.6152880000000  0.4885170000000 1.0
C      1  0.5167640000000  0.5462040000000  0.4591170000000 1.0
C      1  0.4894270000000  0.4656490000000  0.4715960000000 1.0
C      1  0.4850680000000  0.5698400000000  0.4149980000000 1.0
C      1  0.5343390000000  0.4439630000000  0.4182270000000 1.0
C      1  0.5316630000000  0.5952440000000  0.5501690000000 1.0
C      1  0.4103570000000  0.4886520000000  0.4338140000000 1.0
C      1  0.4505440000000  0.5912290000000  0.5256830000000 1.0
C      1  0.4856300000000  0.4059260000000  0.4218650000000 1.0
C      1  0.4613420000000  0.5929930000000  0.5579530000000 1.0
C      1  0.4312960000000  0.5284730000000  0.5080400000000 1.0
C      1  0.4568130000000  0.4448440000000  0.4791460000000 1.0
C      1  0.4878990000000  0.4813310000000  0.4087640000000 1.0
C      1  0.5610120000000  0.4949640000000  0.3706510000000 1.0
C      1  0.4902950000000  0.4237910000000  0.5854930000000 1.0
C      1  0.4546740000000  0.5608450000000  0.4206070000000 1.0
C      1  0.5514940000000  0.5968470000000  0.4593980000000 1.0
C      1  0.5719290000000  0.4104480000000  0.4889280000000 1.0
C      1  0.4927410000000  0.5219360000000  0.5693350000000 1.0
C      1  0.4027180000000  0.5388200000000  0.4939800000000 1.0
C      1  0.5145710000000  0.4578730000000  0.5723540000000 1.0
C      1  0.5353740000000  0.4679010000000  0.5944410000000 1.0
C      1  0.5197870000000  0.4927910000000  0.6099060000000 1.0
C      1  0.5136690000000  0.4239080000000  0.5644550000000 1.0
C      1  0.4873320000000  0.5178160000000  0.4505430000000 1.0
C      1  0.5380970000000  0.4994330000000  0.4882010000000 1.0
C      1  0.5724870000000  0.5620180000000  0.5073850000000 1.0
C      1  0.5284260000000  0.5100470000000  0.5190370000000 1.0
C      1  0.5062330000000  0.5869220000000  0.4354170000000 1.0
C      1  0.5000990000000  0.5450840000000  0.4319470000000 1.0
C      1  0.5574280000000  0.5178740000000  0.4671220000000 1.0
C      1  0.5037480000000  0.5269960000000  0.5053160000000 1.0
C      1  0.5177710000000  0.5438010000000  0.5975650000000 1.0
C      1  0.5876410000000  0.5450380000000  0.4596770000000 1.0
C      1  0.4392620000000  0.5497580000000  0.5511800000000 1.0
C      1  0.4505010000000  0.5362300000000  0.4317260000000 1.0
C      1  0.5289870000000  0.4783610000000  0.5313820000000 1.0
C      1  0.4399030000000  0.5927860000000  0.4962740000000 1.0
C      1  0.5286040000000  0.4044050000000  0.5177990000000 1.0
C      1  0.6365840000000  0.5064760000000  0.5015440000000 1.0
C      1  0.5327900000000  0.3902890000000  0.4671510000000 1.0
C      1  0.5289560000000  0.4679240000000  0.4835550000000 1.0
C      1  0.5175100000000  0.5268850000000  0.5465410000000 1.0
C      1  0.5989900000000  0.4919800000000  0.5795110000000 1.0
C      1  0.5541150000000  0.4972100000000  0.5901450000000 1.0
C      1  0.4964660000000  0.5076130000000  0.4194100000000 1.0
C      1  0.4977990000000  0.4327370000000  0.6100990000000 1.0
C      1  0.5452320000000  0.5379060000000  0.4918300000000 1.0
C      1  0.4072550000000  0.4889140000000  0.5013970000000 1.0
C      1  0.4874280000000  0.4002600000000  0.5310840000000 1.0
C      1  0.4171110000000  0.5752790000000  0.4778930000000 1.0
C      1  0.4363060000000  0.5788920000000  0.4343230000000 1.0
C      1  0.5127000000000  0.3995080000000  0.5456730000000 1.0
C      1  0.4241820000000  0.4464830000000  0.5360460000000 1.0
C      1  0.5580960000000  0.5859430000000  0.5490420000000 1.0
C      1  0.4470180000000  0.4509060000000  0.5840380000000 1.0
C      1  0.5098500000000  0.4322530000000  0.5233840000000 1.0
C      1  0.5926970000000  0.4714710000000  0.5662080000000 1.0
C      1  0.4763540000000  0.4323750000000  0.5293390000000 1.0
C      1  0.4636400000000  0.4791250000000  0.5748490000000 1.0
C      1  0.5455700000000  0.5071020000000  0.6200460000000 1.0
C      1  0.4474670000000  0.4152470000000  0.5239400000000 1.0
C      1  0.5067830000000  0.3935230000000  0.4861590000000 1.0
C      1  0.5899720000000  0.4129340000000  0.5140670000000 1.0
C      1  0.4872260000000  0.4867800000000  0.5312510000000 1.0
C      1  0.5179140000000  0.4246770000000  0.4794270000000 1.0
C      1  0.4810620000000  0.4761110000000  0.3841170000000 1.0
C      1  0.5158480000000  0.5278990000000  0.4071930000000 1.0
C      1  0.5058810000000  0.4618170000000  0.6110700000000 1.0
C      1  0.5757380000000  0.5425910000000  0.5561690000000 1.0
C      1  0.5689210000000  0.5692110000000  0.4598870000000 1.0
C      1  0.4256750000000  0.5088110000000  0.4808720000000 1.0
C      1  0.5573430000000  0.4954360000000  0.3975760000000 1.0
C      1  0.4615200000000  0.5083760000000  0.4304870000000 1.0
C      1  0.4976960000000  0.5993530000000  0.5140420000000 1.0
C      1  0.4349760000000  0.4767300000000  0.5472260000000 1.0
C      1  0.3908620000000  0.5158110000000  0.5062890000000 1.0
C      1  0.4329390000000  0.4421340000000  0.4381750000000 1.0
C      1  0.5729760000000  0.5639890000000  0.5390290000000 1.0
C      1  0.5115200000000  0.5768160000000  0.5606170000000 1.0
C      1  0.4024680000000  0.5097360000000  0.4571910000000 1.0
C      1  0.5055260000000  0.4736540000000  0.5072030000000 1.0
C      1  0.6132200000000  0.5083030000000  0.5229440000000 1.0
C      1  0.4637650000000  0.4265300000000  0.5761860000000 1.0
C      1  0.5326650000000  0.4975780000000  0.4376950000000 1.0
C      1  0.4821580000000  0.5048420000000  0.6160420000000 1.0
C      1  0.5680430000000  0.5066250000000  0.5032480000000 1.0
C      1  0.5734460000000  0.4438680000000  0.4950530000000 1.0
C      1  0.4699190000000  0.5460350000000  0.5471300000000 1.0
C      1  0.5645300000000  0.5391620000000  0.4177760000000 1.0
C      1  0.4384190000000  0.4221360000000  0.4825520000000 1.0
C      1  0.4569270000000  0.3895870000000  0.5076360000000 1.0
C      1  0.5556650000000  0.4664450000000  0.5132350000000 1.0
C      1  0.5153760000000  0.4979730000000  0.5776950000000 1.0
C      1  0.4900670000000  0.5009910000000  0.4941600000000 1.0
C      1  0.5455830000000  0.4211030000000  0.4604060000000 1.0
C      1  0.5291220000000  0.4472520000000  0.5451400000000 1.0
C      1  0.4630580000000  0.4575810000000  0.5485010000000 1.0
C      1  0.5946560000000  0.5168330000000  0.5485070000000 1.0
C      1  0.5017730000000  0.5514030000000  0.3927580000000 1.0
END
