TITL C-2847955-7945-93 -0.00103607032203372 125000 -457.61949599127 0 0 84 (C1) n - 1
REM
REM in /home/bkarasulu/work/CARBON/AIRSS/Generating-Clusters/AIREBO/with-SteepDescent/Only-C1/SD-CG-opt/Try1-1.4A-POS3A/HFTN-CG
REM
REM
REM
REM
REM
REM ./C.cell (11c1c37f851c82e70ff6c80c92926a4b)
REM
REM compiler GCC version 9.2.1 20190827 (Red Hat 9.2.1-1)
REM options -cpp -mtune=generic -march=x86-64 -g -O0 -fpre-include=/usr/include/finclude/math-vector-fortran.h
REM seed -109136709 1483558781 137958596 326618506 -1079206902 339216810 -1245178541 -38045957 -1258206960 -82469002 1128879416 2020801870 -336039407 1159065366 1127709920 1113704648 208178735 2118962460 -155677956 -881981744 -500950131 1637942381 -1385549139 -1721485504 -1652403856 651115045 197626167 -1546016866 1648561850 -1904224278 1856569386 1749641884 -1185386067
REM
CELL 1.54180   50.00000   50.00000   50.00000   90.00000   90.00000   90.00000
LATT -1
SFAC C  
C      1  0.4475780000000  0.4753050000000  0.4529180000000 1.0
C      1  0.4796010000000  0.5789610000000  0.5299400000000 1.0
C      1  0.4599350000000  0.4622390000000  0.5619720000000 1.0
C      1  0.5011290000000  0.5375670000000  0.5013470000000 1.0
C      1  0.5143280000000  0.4637530000000  0.5519770000000 1.0
C      1  0.5760530000000  0.5511370000000  0.4726760000000 1.0
C      1  0.4901920000000  0.5658390000000  0.5771530000000 1.0
C      1  0.5111720000000  0.4368350000000  0.5528740000000 1.0
C      1  0.5060140000000  0.5966070000000  0.5320550000000 1.0
C      1  0.4355450000000  0.4647500000000  0.5381650000000 1.0
C      1  0.5297060000000  0.4438920000000  0.4350690000000 1.0
C      1  0.5199000000000  0.5436260000000  0.5358740000000 1.0
C      1  0.5284970000000  0.5531270000000  0.4912530000000 1.0
C      1  0.4713790000000  0.4232090000000  0.5128630000000 1.0
C      1  0.5215370000000  0.4939590000000  0.4822730000000 1.0
C      1  0.4866890000000  0.5469930000000  0.5294010000000 1.0
C      1  0.5483850000000  0.5244750000000  0.5675490000000 1.0
C      1  0.5153840000000  0.5191950000000  0.4264190000000 1.0
C      1  0.4804360000000  0.4216210000000  0.4597980000000 1.0
C      1  0.5014620000000  0.4197270000000  0.5287690000000 1.0
C      1  0.4439560000000  0.5430960000000  0.4753030000000 1.0
C      1  0.5713090000000  0.5160480000000  0.5186590000000 1.0
C      1  0.4877910000000  0.5429200000000  0.4428910000000 1.0
C      1  0.4789240000000  0.4343520000000  0.4351100000000 1.0
C      1  0.5632430000000  0.4588000000000  0.4740290000000 1.0
C      1  0.5586980000000  0.5628930000000  0.4867140000000 1.0
C      1  0.4695990000000  0.5706160000000  0.5585000000000 1.0
C      1  0.4755120000000  0.5505890000000  0.4831700000000 1.0
C      1  0.4385620000000  0.4537950000000  0.4777970000000 1.0
C      1  0.4788160000000  0.5223240000000  0.4645620000000 1.0
C      1  0.5087120000000  0.5198310000000  0.5693620000000 1.0
C      1  0.4629220000000  0.4819040000000  0.5275560000000 1.0
C      1  0.5827930000000  0.5169620000000  0.4918740000000 1.0
C      1  0.5164000000000  0.4639370000000  0.4790700000000 1.0
C      1  0.4559990000000  0.4514830000000  0.4322200000000 1.0
C      1  0.5246510000000  0.4971560000000  0.4507270000000 1.0
C      1  0.4438120000000  0.5154840000000  0.5151910000000 1.0
C      1  0.4605980000000  0.5280380000000  0.5380820000000 1.0
C      1  0.4323590000000  0.4670160000000  0.5041520000000 1.0
C      1  0.5668870000000  0.5119450000000  0.5488570000000 1.0
C      1  0.5326830000000  0.5152070000000  0.5288920000000 1.0
C      1  0.5292450000000  0.5020500000000  0.5826380000000 1.0
C      1  0.5451390000000  0.4661880000000  0.5157300000000 1.0
C      1  0.5295270000000  0.5525170000000  0.4604160000000 1.0
C      1  0.4651570000000  0.4358830000000  0.4834960000000 1.0
C      1  0.5453030000000  0.4707630000000  0.4477390000000 1.0
C      1  0.4815620000000  0.5158170000000  0.4253050000000 1.0
C      1  0.4740430000000  0.4888280000000  0.4681120000000 1.0
C      1  0.4930600000000  0.5789660000000  0.4765470000000 1.0
C      1  0.4781020000000  0.4831380000000  0.5741080000000 1.0
C      1  0.5063980000000  0.4168180000000  0.4695130000000 1.0
C      1  0.5043540000000  0.5624520000000  0.4521780000000 1.0
C      1  0.4150230000000  0.4365410000000  0.4681670000000 1.0
C      1  0.5107600000000  0.5471250000000  0.5745600000000 1.0
C      1  0.4505630000000  0.5510770000000  0.5566610000000 1.0
C      1  0.5013370000000  0.5088340000000  0.5404550000000 1.0
C      1  0.5110630000000  0.5760610000000  0.5054390000000 1.0
C      1  0.5071430000000  0.4801950000000  0.5741830000000 1.0
C      1  0.5384310000000  0.5564960000000  0.5611390000000 1.0
C      1  0.5462300000000  0.5031850000000  0.5000570000000 1.0
C      1  0.5297760000000  0.4389670000000  0.4662440000000 1.0
C      1  0.4689090000000  0.4977590000000  0.5005140000000 1.0
C      1  0.5406140000000  0.5270890000000  0.4483120000000 1.0
C      1  0.4403560000000  0.5278250000000  0.4517740000000 1.0
C      1  0.5147230000000  0.4763230000000  0.5216130000000 1.0
C      1  0.5598010000000  0.4915440000000  0.4713840000000 1.0
C      1  0.5079310000000  0.4280840000000  0.4977270000000 1.0
C      1  0.5689510000000  0.5215980000000  0.4610690000000 1.0
C      1  0.4522760000000  0.5062940000000  0.4395170000000 1.0
C      1  0.4949340000000  0.4552170000000  0.5115210000000 1.0
C      1  0.4723250000000  0.5020920000000  0.5501480000000 1.0
C      1  0.4250030000000  0.4928080000000  0.5221150000000 1.0
C      1  0.4933310000000  0.4892520000000  0.4401140000000 1.0
C      1  0.4856760000000  0.4609140000000  0.4804010000000 1.0
C      1  0.4689790000000  0.5787380000000  0.5011040000000 1.0
C      1  0.5504130000000  0.4870820000000  0.5360570000000 1.0
C      1  0.5329120000000  0.4162060000000  0.5151820000000 1.0
C      1  0.5455750000000  0.4414770000000  0.4962830000000 1.0
C      1  0.5035590000000  0.4447730000000  0.4236240000000 1.0
C      1  0.4302260000000  0.5362340000000  0.4974510000000 1.0
C      1  0.4971380000000  0.4709450000000  0.4152960000000 1.0
C      1  0.4719330000000  0.4495570000000  0.5329280000000 1.0
C      1  0.5015550000000  0.5039760000000  0.5067990000000 1.0
C      1  0.5315160000000  0.5751030000000  0.5333200000000 1.0
END
