TITL C-2847945-6269-228 0.0119868080698981 125000 -128.35318375978 0 0 25 (C1) n - 1
REM
REM in /home/bkarasulu/work/CARBON/AIRSS/Generating-Clusters/AIREBO/with-SteepDescent/Only-C1/SD-CG-opt/Try1-1.4A-POS3A/HFTN-CG
REM
REM
REM
REM
REM
REM ./C.cell (11c1c37f851c82e70ff6c80c92926a4b)
REM
REM compiler GCC version 9.2.1 20190827 (Red Hat 9.2.1-1)
REM options -cpp -mtune=generic -march=x86-64 -g -O0 -fpre-include=/usr/include/finclude/math-vector-fortran.h
REM seed -915781886 -707335380 262854425 459020592 778742756 556925306 1845150391 176703018 1520226773 -1278619181 1536250362 683066169 63545922 39162001 -1623068950 -451649310 932061428 1715840053 399482239 -20052710 -1776764715 -1466352638 -1931244940 -1538309934 -1718751853 1690090205 -1289900222 1675114876 -197762330 -423058013 1440219350 1218205573 1762297546
REM
CELL 1.54180   50.00000   50.00000   50.00000   90.00000   90.00000   90.00000
LATT -1
SFAC C  
C      1  0.5195590000000  0.5741780000000  0.5328670000000 1.0
C      1  0.4794550000000  0.5259450000000  0.4670680000000 1.0
C      1  0.4933170000000  0.4901660000000  0.5515480000000 1.0
C      1  0.5135230000000  0.4581220000000  0.4782690000000 1.0
C      1  0.5102070000000  0.5162020000000  0.5379020000000 1.0
C      1  0.4929740000000  0.5466680000000  0.4778740000000 1.0
C      1  0.5405160000000  0.5177080000000  0.5123180000000 1.0
C      1  0.4983790000000  0.4810510000000  0.4941610000000 1.0
C      1  0.4741420000000  0.4771010000000  0.5393280000000 1.0
C      1  0.5075920000000  0.5596970000000  0.5045210000000 1.0
C      1  0.4575140000000  0.4638720000000  0.4581430000000 1.0
C      1  0.5251920000000  0.5415900000000  0.5253330000000 1.0
C      1  0.5504050000000  0.4876810000000  0.5139200000000 1.0
C      1  0.4877180000000  0.4998340000000  0.4696670000000 1.0
C      1  0.5278290000000  0.4377950000000  0.4893640000000 1.0
C      1  0.5168890000000  0.4934000000000  0.5135350000000 1.0
C      1  0.4571070000000  0.5309690000000  0.4525720000000 1.0
C      1  0.4567470000000  0.4540110000000  0.4840140000000 1.0
C      1  0.5705750000000  0.4706320000000  0.5169300000000 1.0
C      1  0.5018170000000  0.5770960000000  0.4762850000000 1.0
C      1  0.4715120000000  0.4700010000000  0.5065780000000 1.0
C      1  0.5047050000000  0.4604530000000  0.4511180000000 1.0
C      1  0.4467740000000  0.4833770000000  0.5259690000000 1.0
C      1  0.5140550000000  0.5048910000000  0.5698180000000 1.0
C      1  0.4814950000000  0.4775630000000  0.4509010000000 1.0
END
