TITL C-2848502-4955-634 -0.000521285089349741 125000 -718.60709300267 0 0 138 (C1) n - 1
REM
REM in /home/bkarasulu/work/CARBON/AIRSS/Generating-Clusters/AIREBO/with-SteepDescent/Only-C1/SD-CG-opt/Try1-1.4A-POS3A/HFTN-CG
REM
REM
REM
REM
REM
REM ./C.cell (11c1c37f851c82e70ff6c80c92926a4b)
REM
REM compiler GCC version 9.2.1 20190827 (Red Hat 9.2.1-1)
REM options -cpp -mtune=generic -march=x86-64 -g -O0 -fpre-include=/usr/include/finclude/math-vector-fortran.h
REM seed 40993002 -1445755173 -1410914707 1849946981 -465654032 567959728 2022576485 1148495008 -1944973869 24314372 454430761 1783083235 -63027519 -503204298 -1028406808 1143386230 1149188427 720066297 -393885037 1151798215 -591127865 859665924 2073886539 971575559 1136418433 -2050389316 407010495 -1967171250 -406393175 1909320744 70359098 2099995412 1817142936
REM
CELL 1.54180   50.00000   50.00000   50.00000   90.00000   90.00000   90.00000
LATT -1
SFAC C  
C      1  0.4533250000000  0.4084290000000  0.5080000000000 1.0
C      1  0.5301490000000  0.5669970000000  0.5585350000000 1.0
C      1  0.5410250000000  0.4420170000000  0.4358300000000 1.0
C      1  0.5538690000000  0.4412470000000  0.5494050000000 1.0
C      1  0.4451330000000  0.4080530000000  0.5340760000000 1.0
C      1  0.4910280000000  0.4896900000000  0.3999750000000 1.0
C      1  0.5634740000000  0.4563380000000  0.4481820000000 1.0
C      1  0.4802120000000  0.4813390000000  0.5349570000000 1.0
C      1  0.4827750000000  0.4949080000000  0.4808830000000 1.0
C      1  0.4654620000000  0.6024570000000  0.4623740000000 1.0
C      1  0.4886120000000  0.4582360000000  0.4051820000000 1.0
C      1  0.4263990000000  0.4372040000000  0.5141700000000 1.0
C      1  0.5923690000000  0.5004010000000  0.5261320000000 1.0
C      1  0.4854330000000  0.5088000000000  0.6003580000000 1.0
C      1  0.4457720000000  0.4972010000000  0.5233940000000 1.0
C      1  0.5324090000000  0.5376590000000  0.5703350000000 1.0
C      1  0.4630450000000  0.4277560000000  0.5559300000000 1.0
C      1  0.4901410000000  0.5768650000000  0.4914460000000 1.0
C      1  0.5610700000000  0.4678290000000  0.5529630000000 1.0
C      1  0.4807760000000  0.6036890000000  0.5098490000000 1.0
C      1  0.4953530000000  0.5078760000000  0.5496710000000 1.0
C      1  0.5315970000000  0.5182100000000  0.4339050000000 1.0
C      1  0.4644710000000  0.4484590000000  0.4271080000000 1.0
C      1  0.5837580000000  0.4862650000000  0.5531650000000 1.0
C      1  0.5344600000000  0.4873410000000  0.5562350000000 1.0
C      1  0.4954060000000  0.4196100000000  0.5267410000000 1.0
C      1  0.4301210000000  0.4549110000000  0.4642100000000 1.0
C      1  0.4475490000000  0.5128450000000  0.4770890000000 1.0
C      1  0.4370580000000  0.4568770000000  0.5644610000000 1.0
C      1  0.5045330000000  0.5765620000000  0.5470770000000 1.0
C      1  0.5645710000000  0.5770700000000  0.4518180000000 1.0
C      1  0.4170780000000  0.4923560000000  0.5055950000000 1.0
C      1  0.4321840000000  0.5542090000000  0.5047620000000 1.0
C      1  0.4719020000000  0.4191120000000  0.4630880000000 1.0
C      1  0.4467690000000  0.4478990000000  0.5354090000000 1.0
C      1  0.5118310000000  0.5057840000000  0.4715750000000 1.0
C      1  0.4551230000000  0.5896540000000  0.5058660000000 1.0
C      1  0.4457820000000  0.5257910000000  0.5624570000000 1.0
C      1  0.4360710000000  0.5630300000000  0.4590270000000 1.0
C      1  0.5515040000000  0.5129950000000  0.5706380000000 1.0
C      1  0.5080110000000  0.4666160000000  0.5216310000000 1.0
C      1  0.4953990000000  0.4491150000000  0.5880200000000 1.0
C      1  0.4421820000000  0.4025120000000  0.5650730000000 1.0
C      1  0.4728080000000  0.5136860000000  0.4543350000000 1.0
C      1  0.4686800000000  0.5564900000000  0.4648480000000 1.0
C      1  0.5028640000000  0.4416110000000  0.5065270000000 1.0
C      1  0.4941510000000  0.4410110000000  0.4742600000000 1.0
C      1  0.5807170000000  0.5966180000000  0.4451820000000 1.0
C      1  0.5495330000000  0.5651040000000  0.5100780000000 1.0
C      1  0.5230750000000  0.4043390000000  0.4803930000000 1.0
C      1  0.5148780000000  0.4497460000000  0.4202840000000 1.0
C      1  0.5727310000000  0.4871320000000  0.4424300000000 1.0
C      1  0.4467900000000  0.5884880000000  0.4788510000000 1.0
C      1  0.4957290000000  0.4336420000000  0.5577320000000 1.0
C      1  0.4914160000000  0.5430350000000  0.5299310000000 1.0
C      1  0.4163210000000  0.5062750000000  0.4681720000000 1.0
C      1  0.5208110000000  0.4551190000000  0.5964330000000 1.0
C      1  0.4519450000000  0.4343620000000  0.4481220000000 1.0
C      1  0.4653710000000  0.5287250000000  0.6013860000000 1.0
C      1  0.5034050000000  0.5297930000000  0.4490070000000 1.0
C      1  0.4634920000000  0.4636790000000  0.5115680000000 1.0
C      1  0.5108410000000  0.4630940000000  0.5529450000000 1.0
C      1  0.5545750000000  0.4028090000000  0.4828050000000 1.0
C      1  0.4118410000000  0.4738820000000  0.4775130000000 1.0
C      1  0.5145590000000  0.4814600000000  0.4479650000000 1.0
C      1  0.5297960000000  0.5761350000000  0.4868670000000 1.0
C      1  0.5577640000000  0.4285420000000  0.5181730000000 1.0
C      1  0.5456380000000  0.5256980000000  0.5046690000000 1.0
C      1  0.5527940000000  0.5721400000000  0.5425390000000 1.0
C      1  0.4252680000000  0.5309650000000  0.5265040000000 1.0
C      1  0.5523050000000  0.5012220000000  0.4043320000000 1.0
C      1  0.5069650000000  0.5212660000000  0.5854200000000 1.0
C      1  0.5947540000000  0.5003610000000  0.4922970000000 1.0
C      1  0.4515100000000  0.5652800000000  0.4298540000000 1.0
C      1  0.4509490000000  0.5671930000000  0.5299830000000 1.0
C      1  0.5524400000000  0.4748010000000  0.4745160000000 1.0
C      1  0.4701850000000  0.5080170000000  0.3967500000000 1.0
C      1  0.4672370000000  0.5482440000000  0.5744390000000 1.0
C      1  0.4427810000000  0.4328110000000  0.4867660000000 1.0
C      1  0.4125500000000  0.5296780000000  0.5564050000000 1.0
C      1  0.5357670000000  0.4776860000000  0.5888210000000 1.0
C      1  0.5775260000000  0.4266920000000  0.4905600000000 1.0
C      1  0.5750630000000  0.5538320000000  0.5272640000000 1.0
C      1  0.5867390000000  0.4524820000000  0.5107190000000 1.0
C      1  0.4974070000000  0.4850480000000  0.5707000000000 1.0
C      1  0.5278400000000  0.4225050000000  0.5590460000000 1.0
C      1  0.5496690000000  0.5289240000000  0.4061030000000 1.0
C      1  0.4003310000000  0.5529890000000  0.4992660000000 1.0
C      1  0.4919970000000  0.5455610000000  0.4210440000000 1.0
C      1  0.4763120000000  0.4768960000000  0.5928350000000 1.0
C      1  0.5972150000000  0.4761420000000  0.4796080000000 1.0
C      1  0.4362420000000  0.4962590000000  0.4424920000000 1.0
C      1  0.4761490000000  0.5724260000000  0.5522470000000 1.0
C      1  0.4790750000000  0.5690040000000  0.4283680000000 1.0
C      1  0.4736610000000  0.5103620000000  0.5089660000000 1.0
C      1  0.5211360000000  0.5034300000000  0.5293570000000 1.0
C      1  0.5062440000000  0.5183800000000  0.5026690000000 1.0
C      1  0.5835400000000  0.5294480000000  0.5167140000000 1.0
C      1  0.4528350000000  0.5401890000000  0.4871380000000 1.0
C      1  0.4462820000000  0.5283370000000  0.4373520000000 1.0
C      1  0.5169000000000  0.5587580000000  0.4612480000000 1.0
C      1  0.5421670000000  0.5034780000000  0.4787100000000 1.0
C      1  0.5278230000000  0.4306200000000  0.4925420000000 1.0
C      1  0.5231590000000  0.6077000000000  0.4956190000000 1.0
C      1  0.5129630000000  0.4492830000000  0.4538920000000 1.0
C      1  0.5392590000000  0.4786830000000  0.5146680000000 1.0
C      1  0.5777090000000  0.5061140000000  0.5729010000000 1.0
C      1  0.4939410000000  0.5376780000000  0.5601870000000 1.0
C      1  0.4826580000000  0.5337890000000  0.3972020000000 1.0
C      1  0.4812680000000  0.4030300000000  0.5069860000000 1.0
C      1  0.5131570000000  0.5804520000000  0.5162170000000 1.0
C      1  0.4173790000000  0.5369310000000  0.4530620000000 1.0
C      1  0.5389280000000  0.5312130000000  0.5375770000000 1.0
C      1  0.4913520000000  0.5809180000000  0.4577040000000 1.0
C      1  0.4668290000000  0.4554770000000  0.4787280000000 1.0
C      1  0.5416940000000  0.4857730000000  0.4323960000000 1.0
C      1  0.5127910000000  0.5024400000000  0.4103550000000 1.0
C      1  0.4519270000000  0.4773860000000  0.5746350000000 1.0
C      1  0.5563120000000  0.4863810000000  0.6049350000000 1.0
C      1  0.5207430000000  0.5472740000000  0.5132200000000 1.0
C      1  0.4327130000000  0.5566160000000  0.5560920000000 1.0
C      1  0.4568070000000  0.4981980000000  0.5531280000000 1.0
C      1  0.4632240000000  0.4811180000000  0.4565890000000 1.0
C      1  0.4594940000000  0.5345100000000  0.5260390000000 1.0
C      1  0.5479910000000  0.4527560000000  0.4963840000000 1.0
C      1  0.4932250000000  0.4015560000000  0.4801650000000 1.0
C      1  0.4466100000000  0.5065790000000  0.4116930000000 1.0
C      1  0.5737980000000  0.5262920000000  0.4855460000000 1.0
C      1  0.4863200000000  0.4728340000000  0.4358050000000 1.0
C      1  0.5551780000000  0.5262680000000  0.4570780000000 1.0
C      1  0.5479000000000  0.5572120000000  0.4559430000000 1.0
C      1  0.4865530000000  0.5433750000000  0.4906300000000 1.0
C      1  0.5405040000000  0.4064700000000  0.5367010000000 1.0
C      1  0.5813130000000  0.5141270000000  0.4390320000000 1.0
C      1  0.4088550000000  0.5225170000000  0.4978900000000 1.0
C      1  0.5732060000000  0.4765330000000  0.5159310000000 1.0
C      1  0.5853880000000  0.4525160000000  0.4711260000000 1.0
C      1  0.4462770000000  0.4858880000000  0.4932970000000 1.0
END
