TITL C-2848508-1660-407 -0.000756554951501619 125000 -638.116111494876 0 0 127 (C1) n - 1
REM
REM in /home/bkarasulu/work/CARBON/AIRSS/Generating-Clusters/AIREBO/with-SteepDescent/Only-C1/SD-CG-opt/Try1-1.4A-POS3A/HFTN-CG
REM
REM
REM
REM
REM
REM ./C.cell (11c1c37f851c82e70ff6c80c92926a4b)
REM
REM compiler GCC version 9.2.1 20190827 (Red Hat 9.2.1-1)
REM options -cpp -mtune=generic -march=x86-64 -g -O0 -fpre-include=/usr/include/finclude/math-vector-fortran.h
REM seed 2146665305 534086301 -1479162514 172961151 -35982073 87935612 -1688138208 -1352985567 -1470949701 -938468977 -1291430990 -114022802 -1828913269 1846663080 1859259724 1466793490 270803554 1182123164 -125988000 897570817 836133492 -682848738 -1137457879 1705381175 -473632537 -1316032878 1763468890 1275345047 -1809051610 1383528541 1955912528 218955803 -27384132
REM
CELL 1.54180   50.00000   50.00000   50.00000   90.00000   90.00000   90.00000
LATT -1
SFAC C  
C      1  0.4943510000000  0.4461570000000  0.4240870000000 1.0
C      1  0.4958610000000  0.5119900000000  0.5987120000000 1.0
C      1  0.5840220000000  0.4980670000000  0.4472670000000 1.0
C      1  0.5298510000000  0.4780310000000  0.5120900000000 1.0
C      1  0.5140230000000  0.4955090000000  0.4460880000000 1.0
C      1  0.5220720000000  0.5796890000000  0.4577710000000 1.0
C      1  0.4770450000000  0.4227190000000  0.4417920000000 1.0
C      1  0.5283920000000  0.5366170000000  0.4777780000000 1.0
C      1  0.4928130000000  0.4506230000000  0.5488460000000 1.0
C      1  0.4137270000000  0.5100890000000  0.5489860000000 1.0
C      1  0.4518110000000  0.4250010000000  0.4925820000000 1.0
C      1  0.4654830000000  0.4523760000000  0.4777480000000 1.0
C      1  0.5935750000000  0.4792830000000  0.4949780000000 1.0
C      1  0.4159630000000  0.5673460000000  0.4688840000000 1.0
C      1  0.4348600000000  0.4630100000000  0.5523740000000 1.0
C      1  0.4764170000000  0.5309330000000  0.5229480000000 1.0
C      1  0.4540090000000  0.4992260000000  0.5446450000000 1.0
C      1  0.4767060000000  0.4841290000000  0.4549020000000 1.0
C      1  0.5684210000000  0.4431990000000  0.5181590000000 1.0
C      1  0.5137650000000  0.4658590000000  0.4067990000000 1.0
C      1  0.5598290000000  0.5055150000000  0.5027150000000 1.0
C      1  0.4907370000000  0.5890780000000  0.4575330000000 1.0
C      1  0.4192750000000  0.5084810000000  0.4674060000000 1.0
C      1  0.4957010000000  0.4582300000000  0.5176610000000 1.0
C      1  0.5161520000000  0.5400850000000  0.4170890000000 1.0
C      1  0.4667700000000  0.4637850000000  0.5578610000000 1.0
C      1  0.4164980000000  0.4874670000000  0.4953540000000 1.0
C      1  0.4317470000000  0.5232760000000  0.5673120000000 1.0
C      1  0.5762600000000  0.4432440000000  0.4549160000000 1.0
C      1  0.4482890000000  0.4364820000000  0.5358230000000 1.0
C      1  0.4374340000000  0.5772530000000  0.4547330000000 1.0
C      1  0.4516880000000  0.5630230000000  0.5320740000000 1.0
C      1  0.4442360000000  0.4789930000000  0.4775560000000 1.0
C      1  0.4892420000000  0.5411170000000  0.5887270000000 1.0
C      1  0.5413000000000  0.4818750000000  0.4741270000000 1.0
C      1  0.5318120000000  0.4211930000000  0.5559780000000 1.0
C      1  0.5837260000000  0.5325350000000  0.4637680000000 1.0
C      1  0.4807270000000  0.5044150000000  0.4126650000000 1.0
C      1  0.5482720000000  0.5539700000000  0.5533960000000 1.0
C      1  0.5560130000000  0.4659910000000  0.4982350000000 1.0
C      1  0.4445530000000  0.5240210000000  0.5281610000000 1.0
C      1  0.5458270000000  0.4273510000000  0.4982940000000 1.0
C      1  0.4572140000000  0.4892150000000  0.5137100000000 1.0
C      1  0.5217540000000  0.5449990000000  0.5658740000000 1.0
C      1  0.5345050000000  0.4855230000000  0.4252180000000 1.0
C      1  0.5201990000000  0.5720420000000  0.5133680000000 1.0
C      1  0.5851120000000  0.5047640000000  0.4799890000000 1.0
C      1  0.5092130000000  0.5576230000000  0.3929270000000 1.0
C      1  0.5750150000000  0.4896910000000  0.5653480000000 1.0
C      1  0.5014760000000  0.4906280000000  0.4773150000000 1.0
C      1  0.4595730000000  0.5902850000000  0.4710860000000 1.0
C      1  0.4249430000000  0.5430900000000  0.4886620000000 1.0
C      1  0.5344870000000  0.4827990000000  0.5419420000000 1.0
C      1  0.4111990000000  0.5280260000000  0.5228970000000 1.0
C      1  0.5996660000000  0.5460200000000  0.4909490000000 1.0
C      1  0.4772650000000  0.4847240000000  0.5901700000000 1.0
C      1  0.4975370000000  0.5207400000000  0.4618240000000 1.0
C      1  0.4836190000000  0.5639940000000  0.5262870000000 1.0
C      1  0.4360140000000  0.4921810000000  0.4279140000000 1.0
C      1  0.5035130000000  0.5119310000000  0.5521320000000 1.0
C      1  0.4274620000000  0.4440570000000  0.4869730000000 1.0
C      1  0.5233860000000  0.5208800000000  0.5854900000000 1.0
C      1  0.4541790000000  0.5041550000000  0.5769140000000 1.0
C      1  0.5305090000000  0.4689520000000  0.5720020000000 1.0
C      1  0.5474940000000  0.5623230000000  0.5237030000000 1.0
C      1  0.4846210000000  0.4785700000000  0.4249770000000 1.0
C      1  0.4897460000000  0.5268700000000  0.4293000000000 1.0
C      1  0.5373380000000  0.5128290000000  0.5487010000000 1.0
C      1  0.5577130000000  0.5088250000000  0.4338900000000 1.0
C      1  0.4838040000000  0.4894780000000  0.5509970000000 1.0
C      1  0.5007270000000  0.4659290000000  0.5781610000000 1.0
C      1  0.4551850000000  0.4402800000000  0.4290570000000 1.0
C      1  0.5637930000000  0.5390410000000  0.5068280000000 1.0
C      1  0.5271470000000  0.4155900000000  0.5241720000000 1.0
C      1  0.5331640000000  0.5556570000000  0.4380320000000 1.0
C      1  0.5897660000000  0.5117830000000  0.5442420000000 1.0
C      1  0.5071220000000  0.5632490000000  0.4832130000000 1.0
C      1  0.4396270000000  0.4601110000000  0.5129380000000 1.0
C      1  0.5042140000000  0.5859610000000  0.5399640000000 1.0
C      1  0.4479520000000  0.4686270000000  0.5838620000000 1.0
C      1  0.4610530000000  0.5079250000000  0.4715220000000 1.0
C      1  0.5792960000000  0.4856540000000  0.5251710000000 1.0
C      1  0.4619140000000  0.5325020000000  0.4480140000000 1.0
C      1  0.5470540000000  0.4423420000000  0.5666640000000 1.0
C      1  0.4207980000000  0.4834960000000  0.5289020000000 1.0
C      1  0.5124100000000  0.5453550000000  0.5326450000000 1.0
C      1  0.4970220000000  0.5649180000000  0.5638540000000 1.0
C      1  0.4224360000000  0.4504960000000  0.4603910000000 1.0
C      1  0.5252390000000  0.4476090000000  0.5256980000000 1.0
C      1  0.5453490000000  0.4551410000000  0.4359800000000 1.0
C      1  0.5061700000000  0.5151040000000  0.5183820000000 1.0
C      1  0.4460370000000  0.5597550000000  0.4353150000000 1.0
C      1  0.4022600000000  0.5183170000000  0.4940020000000 1.0
C      1  0.4332730000000  0.5146800000000  0.4436360000000 1.0
C      1  0.5156700000000  0.4236760000000  0.4868860000000 1.0
C      1  0.5643150000000  0.4750740000000  0.4543000000000 1.0
C      1  0.4572190000000  0.5536610000000  0.4869370000000 1.0
C      1  0.5008060000000  0.4208300000000  0.5538120000000 1.0
C      1  0.4772070000000  0.4146000000000  0.4727210000000 1.0
C      1  0.4728190000000  0.4013040000000  0.5037130000000 1.0
C      1  0.5830690000000  0.4543860000000  0.4828610000000 1.0
C      1  0.5541250000000  0.5733490000000  0.4587500000000 1.0
C      1  0.4560350000000  0.5823730000000  0.5044400000000 1.0
C      1  0.5346400000000  0.5156070000000  0.4093520000000 1.0
C      1  0.4801290000000  0.5363920000000  0.5563080000000 1.0
C      1  0.4802630000000  0.5288430000000  0.4899690000000 1.0
C      1  0.5617200000000  0.4646090000000  0.5453010000000 1.0
C      1  0.5011150000000  0.4017410000000  0.5195440000000 1.0
C      1  0.5448450000000  0.4425740000000  0.4679070000000 1.0
C      1  0.4234040000000  0.5582920000000  0.5193170000000 1.0
C      1  0.5952720000000  0.5302020000000  0.5161850000000 1.0
C      1  0.5965920000000  0.4564700000000  0.5276760000000 1.0
C      1  0.4742240000000  0.4192540000000  0.5325570000000 1.0
C      1  0.4884400000000  0.4867260000000  0.5084820000000 1.0
C      1  0.4801330000000  0.5571870000000  0.4626990000000 1.0
C      1  0.5448430000000  0.4975530000000  0.5776000000000 1.0
C      1  0.4434880000000  0.5161740000000  0.4980330000000 1.0
C      1  0.5165850000000  0.4615200000000  0.4678300000000 1.0
C      1  0.5511640000000  0.5338920000000  0.4540730000000 1.0
C      1  0.4480530000000  0.5468750000000  0.5605210000000 1.0
C      1  0.4866380000000  0.5890760000000  0.4916390000000 1.0
C      1  0.4898170000000  0.4364510000000  0.4955310000000 1.0
C      1  0.4477300000000  0.4677980000000  0.4456320000000 1.0
C      1  0.5271940000000  0.5062780000000  0.4931500000000 1.0
C      1  0.4926950000000  0.4479670000000  0.4576050000000 1.0
C      1  0.5626820000000  0.5289130000000  0.5394510000000 1.0
C      1  0.5702490000000  0.5583850000000  0.4791940000000 1.0
END
