TITL C-2848497-6229-189 -0.0013433882422139 125000 -208.473502199825 0 0 39 (C1) n - 1
REM
REM in /home/bkarasulu/work/CARBON/AIRSS/Generating-Clusters/AIREBO/with-SteepDescent/Only-C1/SD-CG-opt/Try1-1.4A-POS3A/HFTN-CG
REM
REM
REM
REM
REM
REM ./C.cell (11c1c37f851c82e70ff6c80c92926a4b)
REM
REM compiler GCC version 9.2.1 20190827 (Red Hat 9.2.1-1)
REM options -cpp -mtune=generic -march=x86-64 -g -O0 -fpre-include=/usr/include/finclude/math-vector-fortran.h
REM seed -895304215 1198249531 -766874259 -504572226 1491963718 890662668 -1243591451 -767555543 -2116320429 1185485286 1294829251 -334318542 1307298700 -1053850519 -1295328193 -816800788 954070204 1917293412 300028685 627535585 1331242557 1278101919 840056998 -529097404 -101621125 1450617648 -1063376647 1888562772 -814957237 -724526274 548166413 -1204347634 441564646
REM
CELL 1.54180   50.00000   50.00000   50.00000   90.00000   90.00000   90.00000
LATT -1
SFAC C  
C      1  0.4725870000000  0.5080550000000  0.4475850000000 1.0
C      1  0.4898200000000  0.4880070000000  0.4328580000000 1.0
C      1  0.4497800000000  0.5272720000000  0.5141940000000 1.0
C      1  0.4408280000000  0.4697240000000  0.5115960000000 1.0
C      1  0.5497830000000  0.4743800000000  0.5351120000000 1.0
C      1  0.4807610000000  0.5402870000000  0.5576980000000 1.0
C      1  0.5435790000000  0.5001310000000  0.5421280000000 1.0
C      1  0.5129540000000  0.4446910000000  0.5334470000000 1.0
C      1  0.4998840000000  0.5261260000000  0.4998080000000 1.0
C      1  0.4860180000000  0.4590700000000  0.4448460000000 1.0
C      1  0.4414950000000  0.4784240000000  0.4805480000000 1.0
C      1  0.5316930000000  0.4621050000000  0.4919040000000 1.0
C      1  0.4661090000000  0.4787600000000  0.4635990000000 1.0
C      1  0.5367190000000  0.4594940000000  0.4583760000000 1.0
C      1  0.4987210000000  0.5397630000000  0.4752670000000 1.0
C      1  0.5231570000000  0.5396370000000  0.4614460000000 1.0
C      1  0.4741940000000  0.5091330000000  0.5046240000000 1.0
C      1  0.5345160000000  0.5143620000000  0.4620160000000 1.0
C      1  0.4738660000000  0.4954860000000  0.5311480000000 1.0
C      1  0.4621750000000  0.4678180000000  0.5301930000000 1.0
C      1  0.5177560000000  0.4832960000000  0.4431930000000 1.0
C      1  0.5348190000000  0.4558330000000  0.5201330000000 1.0
C      1  0.4874810000000  0.4931090000000  0.4815530000000 1.0
C      1  0.4556370000000  0.5355680000000  0.5462360000000 1.0
C      1  0.4901020000000  0.5612680000000  0.5184940000000 1.0
C      1  0.5673250000000  0.5370210000000  0.5186710000000 1.0
C      1  0.5057670000000  0.5000980000000  0.5727990000000 1.0
C      1  0.5021180000000  0.4951990000000  0.5453270000000 1.0
C      1  0.4925930000000  0.4623500000000  0.5394070000000 1.0
C      1  0.4627480000000  0.5575870000000  0.5135610000000 1.0
C      1  0.5191200000000  0.5179880000000  0.5266480000000 1.0
C      1  0.4350720000000  0.5010110000000  0.5030720000000 1.0
C      1  0.5169830000000  0.4888780000000  0.4761840000000 1.0
C      1  0.5021520000000  0.5447620000000  0.5389830000000 1.0
C      1  0.5567190000000  0.4783670000000  0.4788890000000 1.0
C      1  0.5087630000000  0.4446210000000  0.4478200000000 1.0
C      1  0.5475580000000  0.5209150000000  0.5082190000000 1.0
C      1  0.5522200000000  0.5060530000000  0.4839730000000 1.0
C      1  0.4764270000000  0.5333520000000  0.4584450000000 1.0
END
