TITL C-2847947-6848-415 -3.80683130145967 125000 -1012.60144124501 0 0 189 (C1) n - 1
REM
REM in /home/bkarasulu/work/CARBON/AIRSS/Generating-Clusters/AIREBO/with-SteepDescent/Only-C1/SD-CG-opt/Try1-1.4A-POS3A/HFTN-CG
REM
REM
REM
REM
REM
REM ./C.cell (11c1c37f851c82e70ff6c80c92926a4b)
REM
REM compiler GCC version 9.2.1 20190827 (Red Hat 9.2.1-1)
REM options -cpp -mtune=generic -march=x86-64 -g -O0 -fpre-include=/usr/include/finclude/math-vector-fortran.h
REM seed 1141599799 1080692094 -1724953760 -896824227 84851421 -360343545 1292616446 1148952656 1717284180 1037032691 -585654753 -1418706163 -860482046 1084335960 1506949738 1342022584 -1708162977 -973808157 1594278685 528797345 86993981 -960616303 -397522960 896682256 -1299083678 715828237 -1095314289 2062428832 1878572024 -558405424 1909532665 -1030265360 1460975283
REM
CELL 1.54180   50.00000   50.00000   50.00000   90.00000   90.00000   90.00000
LATT -1
SFAC C  
C      1  0.4891190000000  0.4623900000000  0.4804570000000 1.0
C      1  0.5355740000000  0.4510160000000  0.4108740000000 1.0
C      1  0.4711660000000  0.6183540000000  0.4939310000000 1.0
C      1  0.4836530000000  0.5745080000000  0.5584010000000 1.0
C      1  0.4449930000000  0.5361230000000  0.4421570000000 1.0
C      1  0.4847540000000  0.4623040000000  0.3950370000000 1.0
C      1  0.4016070000000  0.4654840000000  0.5173030000000 1.0
C      1  0.4231940000000  0.5854640000000  0.4976660000000 1.0
C      1  0.4659850000000  0.5863010000000  0.5040430000000 1.0
C      1  0.5404220000000  0.5552570000000  0.5037980000000 1.0
C      1  0.5379160000000  0.5482620000000  0.5345360000000 1.0
C      1  0.5792870000000  0.4255990000000  0.5513300000000 1.0
C      1  0.5369390000000  0.4472040000000  0.5409010000000 1.0
C      1  0.5083170000000  0.5074550000000  0.6065840000000 1.0
C      1  0.4522310000000  0.5382820000000  0.4959580000000 1.0
C      1  0.5424220000000  0.5955180000000  0.4714430000000 1.0
C      1  0.4980340000000  0.4481930000000  0.5318960000000 1.0
C      1  0.5224200000000  0.5771210000000  0.4218350000000 1.0
C      1  0.4311770000000  0.4537240000000  0.4340290000000 1.0
C      1  0.4728170000000  0.5313400000000  0.5221220000000 1.0
C      1  0.5473270000000  0.5197560000000  0.5204400000000 1.0
C      1  0.5310870000000  0.3921790000000  0.5446840000000 1.0
C      1  0.4788260000000  0.5277950000000  0.5684800000000 1.0
C      1  0.4603620000000  0.4803360000000  0.4062370000000 1.0
C      1  0.4958860000000  0.4457980000000  0.5717570000000 1.0
C      1  0.5801160000000  0.4256270000000  0.4784390000000 1.0
C      1  0.5736740000000  0.4904300000000  0.4190850000000 1.0
C      1  0.5225330000000  0.5705770000000  0.5776420000000 1.0
C      1  0.5278000000000  0.4885700000000  0.4779650000000 1.0
C      1  0.4395710000000  0.4572450000000  0.5829890000000 1.0
C      1  0.5390150000000  0.4066370000000  0.5694220000000 1.0
C      1  0.6028650000000  0.4508590000000  0.5030010000000 1.0
C      1  0.4274420000000  0.5298640000000  0.4072320000000 1.0
C      1  0.4524660000000  0.4484300000000  0.4582620000000 1.0
C      1  0.6058220000000  0.5006720000000  0.5386370000000 1.0
C      1  0.5124130000000  0.4486600000000  0.5010840000000 1.0
C      1  0.5129140000000  0.5693270000000  0.5115370000000 1.0
C      1  0.4636140000000  0.3879400000000  0.5332610000000 1.0
C      1  0.5106320000000  0.4866660000000  0.4314740000000 1.0
C      1  0.4168980000000  0.4366880000000  0.4870090000000 1.0
C      1  0.5970610000000  0.5388360000000  0.5078040000000 1.0
C      1  0.5077630000000  0.4253250000000  0.4767640000000 1.0
C      1  0.5814340000000  0.4557600000000  0.5525720000000 1.0
C      1  0.4706520000000  0.4362500000000  0.5411980000000 1.0
C      1  0.5733270000000  0.4677630000000  0.5231960000000 1.0
C      1  0.5916070000000  0.4874100000000  0.5599770000000 1.0
C      1  0.5240220000000  0.4328320000000  0.5694130000000 1.0
C      1  0.4413620000000  0.4862920000000  0.5394060000000 1.0
C      1  0.4747430000000  0.5605830000000  0.4835850000000 1.0
C      1  0.4175720000000  0.4785190000000  0.4357070000000 1.0
C      1  0.4718980000000  0.4566830000000  0.5940540000000 1.0
C      1  0.4853180000000  0.4110380000000  0.5237080000000 1.0
C      1  0.4924370000000  0.5558370000000  0.5834870000000 1.0
C      1  0.4338900000000  0.5164840000000  0.5145460000000 1.0
C      1  0.4655970000000  0.4954060000000  0.5962990000000 1.0
C      1  0.4729930000000  0.5830690000000  0.4256030000000 1.0
C      1  0.4857120000000  0.5088330000000  0.4291590000000 1.0
C      1  0.5594280000000  0.4819820000000  0.4885730000000 1.0
C      1  0.5205690000000  0.5584260000000  0.4501780000000 1.0
C      1  0.5454980000000  0.4075820000000  0.5175660000000 1.0
C      1  0.5174610000000  0.5270060000000  0.4576990000000 1.0
C      1  0.5350260000000  0.5588290000000  0.3989650000000 1.0
C      1  0.5548300000000  0.4652410000000  0.4595580000000 1.0
C      1  0.5683780000000  0.4288620000000  0.4509760000000 1.0
C      1  0.4531180000000  0.5224760000000  0.6018560000000 1.0
C      1  0.4362080000000  0.4906420000000  0.4688640000000 1.0
C      1  0.4791060000000  0.4277700000000  0.4585670000000 1.0
C      1  0.5778100000000  0.5396770000000  0.5597090000000 1.0
C      1  0.4451760000000  0.6000940000000  0.4809450000000 1.0
C      1  0.4542760000000  0.5476860000000  0.5559220000000 1.0
C      1  0.4881150000000  0.4880380000000  0.5027600000000 1.0
C      1  0.5136300000000  0.4084230000000  0.4475090000000 1.0
C      1  0.5044980000000  0.5367020000000  0.5161240000000 1.0
C      1  0.5957780000000  0.4698690000000  0.4542390000000 1.0
C      1  0.5711630000000  0.5796070000000  0.5197040000000 1.0
C      1  0.4939200000000  0.5656350000000  0.4068440000000 1.0
C      1  0.5289220000000  0.4509930000000  0.5943530000000 1.0
C      1  0.5350170000000  0.5187890000000  0.6047790000000 1.0
C      1  0.4494540000000  0.4605030000000  0.5509450000000 1.0
C      1  0.4819770000000  0.5093490000000  0.4629520000000 1.0
C      1  0.4657230000000  0.4794560000000  0.4626030000000 1.0
C      1  0.4367640000000  0.4015640000000  0.4623000000000 1.0
C      1  0.5109520000000  0.4544210000000  0.6141490000000 1.0
C      1  0.4364140000000  0.5333840000000  0.5820360000000 1.0
C      1  0.4958010000000  0.3895490000000  0.4640190000000 1.0
C      1  0.5597320000000  0.5068740000000  0.4022860000000 1.0
C      1  0.5670730000000  0.4106210000000  0.5720340000000 1.0
C      1  0.4476780000000  0.4860330000000  0.5068980000000 1.0
C      1  0.3988350000000  0.5379150000000  0.4996770000000 1.0
C      1  0.4055050000000  0.4796550000000  0.4675240000000 1.0
C      1  0.5306120000000  0.5001980000000  0.3923810000000 1.0
C      1  0.6012430000000  0.5021090000000  0.4927190000000 1.0
C      1  0.5586530000000  0.4642040000000  0.4257770000000 1.0
C      1  0.5923180000000  0.4232660000000  0.5047990000000 1.0
C      1  0.4669610000000  0.4295960000000  0.5743380000000 1.0
C      1  0.5976240000000  0.5281230000000  0.5344320000000 1.0
C      1  0.6003490000000  0.5318220000000  0.4541870000000 1.0
C      1  0.5375060000000  0.5176700000000  0.4909910000000 1.0
C      1  0.5256210000000  0.5378790000000  0.5709320000000 1.0
C      1  0.4251860000000  0.5541320000000  0.4846070000000 1.0
C      1  0.5043340000000  0.5720050000000  0.4743810000000 1.0
C      1  0.4887910000000  0.5557070000000  0.4383910000000 1.0
C      1  0.4736120000000  0.4201080000000  0.4258860000000 1.0
C      1  0.4111150000000  0.5316950000000  0.4434790000000 1.0
C      1  0.5148710000000  0.4666110000000  0.4586000000000 1.0
C      1  0.4010810000000  0.5113130000000  0.4571770000000 1.0
C      1  0.4851350000000  0.5297040000000  0.6018470000000 1.0
C      1  0.5540050000000  0.5290640000000  0.5825350000000 1.0
C      1  0.4656250000000  0.4008080000000  0.4733970000000 1.0
C      1  0.4319290000000  0.4969830000000  0.4146650000000 1.0
C      1  0.4363860000000  0.4308310000000  0.5611040000000 1.0
C      1  0.4263270000000  0.5330920000000  0.5434190000000 1.0
C      1  0.5719820000000  0.5558130000000  0.4954310000000 1.0
C      1  0.4279260000000  0.4276220000000  0.4634810000000 1.0
C      1  0.4266020000000  0.4205590000000  0.5337460000000 1.0
C      1  0.4201930000000  0.5120920000000  0.5694680000000 1.0
C      1  0.4606940000000  0.5912160000000  0.4534390000000 1.0
C      1  0.5885260000000  0.4660440000000  0.4810950000000 1.0
C      1  0.4649950000000  0.5606540000000  0.5263640000000 1.0
C      1  0.5529410000000  0.4717730000000  0.5571700000000 1.0
C      1  0.5373550000000  0.6086680000000  0.5473950000000 1.0
C      1  0.5486380000000  0.4686360000000  0.5880010000000 1.0
C      1  0.4332950000000  0.5712540000000  0.4562950000000 1.0
C      1  0.5591560000000  0.5328330000000  0.4738970000000 1.0
C      1  0.5536370000000  0.4428200000000  0.4851280000000 1.0
C      1  0.4799930000000  0.4836860000000  0.5315600000000 1.0
C      1  0.5756890000000  0.5071380000000  0.4734690000000 1.0
C      1  0.5842470000000  0.4498190000000  0.4372800000000 1.0
C      1  0.5197930000000  0.4876280000000  0.5104070000000 1.0
C      1  0.4380590000000  0.4347430000000  0.5082120000000 1.0
C      1  0.5422570000000  0.5849720000000  0.5625920000000 1.0
C      1  0.5421920000000  0.4620450000000  0.5107390000000 1.0
C      1  0.5141350000000  0.4731710000000  0.4033950000000 1.0
C      1  0.3877200000000  0.5152380000000  0.5161020000000 1.0
C      1  0.4074650000000  0.4480380000000  0.5396740000000 1.0
C      1  0.5268720000000  0.4232590000000  0.4249720000000 1.0
C      1  0.4659700000000  0.5095460000000  0.5428120000000 1.0
C      1  0.4958060000000  0.5893350000000  0.5304210000000 1.0
C      1  0.4641140000000  0.5998370000000  0.5351850000000 1.0
C      1  0.4236570000000  0.5575910000000  0.4266670000000 1.0
C      1  0.5199450000000  0.5980950000000  0.4458730000000 1.0
C      1  0.5175990000000  0.4206840000000  0.5319490000000 1.0
C      1  0.4912860000000  0.4525420000000  0.4411590000000 1.0
C      1  0.5751310000000  0.4153020000000  0.5254220000000 1.0
C      1  0.4056280000000  0.4914200000000  0.5587620000000 1.0
C      1  0.4956020000000  0.4727420000000  0.5553180000000 1.0
C      1  0.5042180000000  0.5219160000000  0.4854120000000 1.0
C      1  0.4119240000000  0.4634250000000  0.5640520000000 1.0
C      1  0.4937760000000  0.4977890000000  0.5774050000000 1.0
C      1  0.4920210000000  0.6046660000000  0.4538740000000 1.0
C      1  0.4175200000000  0.5132400000000  0.4855920000000 1.0
C      1  0.5612500000000  0.5654190000000  0.5473850000000 1.0
C      1  0.4988160000000  0.3982240000000  0.4952530000000 1.0
C      1  0.4013210000000  0.4592240000000  0.4901200000000 1.0
C      1  0.5901500000000  0.5009630000000  0.4437990000000 1.0
C      1  0.5247200000000  0.5127090000000  0.4365240000000 1.0
C      1  0.4789040000000  0.4350290000000  0.4031110000000 1.0
C      1  0.5180660000000  0.5099340000000  0.5593780000000 1.0
C      1  0.4952070000000  0.6176800000000  0.4797160000000 1.0
C      1  0.4673480000000  0.4234480000000  0.4976450000000 1.0
C      1  0.5179600000000  0.5300590000000  0.3928410000000 1.0
C      1  0.4361330000000  0.5678320000000  0.5225340000000 1.0
C      1  0.5163250000000  0.5977180000000  0.4931360000000 1.0
C      1  0.5421740000000  0.5297230000000  0.4167420000000 1.0
C      1  0.5518770000000  0.5462640000000  0.4448520000000 1.0
C      1  0.4110380000000  0.4940680000000  0.5260890000000 1.0
C      1  0.4047960000000  0.5634160000000  0.5176120000000 1.0
C      1  0.4703160000000  0.5408570000000  0.4577140000000 1.0
C      1  0.4905210000000  0.4786090000000  0.6121990000000 1.0
C      1  0.6015810000000  0.4827610000000  0.5147010000000 1.0
C      1  0.5215040000000  0.6083390000000  0.5253380000000 1.0
C      1  0.5617190000000  0.5988390000000  0.4993430000000 1.0
C      1  0.5459390000000  0.5003850000000  0.5458890000000 1.0
C      1  0.4648850000000  0.5077940000000  0.4908140000000 1.0
C      1  0.5062750000000  0.5516980000000  0.5466090000000 1.0
C      1  0.5382790000000  0.4161090000000  0.4886040000000 1.0
C      1  0.4576230000000  0.5182300000000  0.4185500000000 1.0
C      1  0.5105060000000  0.5089780000000  0.5298640000000 1.0
C      1  0.5699410000000  0.5757790000000  0.4679850000000 1.0
C      1  0.4628090000000  0.4570470000000  0.5013610000000 1.0
C      1  0.4194500000000  0.5658680000000  0.5494620000000 1.0
C      1  0.6104850000000  0.5289750000000  0.4813020000000 1.0
C      1  0.4715220000000  0.4716070000000  0.4313760000000 1.0
C      1  0.5830230000000  0.5535280000000  0.4493980000000 1.0
C      1  0.4501380000000  0.5808080000000  0.5576460000000 1.0
C      1  0.4384840000000  0.3916620000000  0.5328430000000 1.0
C      1  0.5699230000000  0.5070680000000  0.5652760000000 1.0
C      1  0.4904770000000  0.5328040000000  0.4056580000000 1.0
C      1  0.5361650000000  0.4412400000000  0.4495470000000 1.0
END
