TITL C-2848506-1665-473 0.000262013262613336 125000 -375.285475278492 0 0 69 (C1) n - 1
REM
REM in /home/bkarasulu/work/CARBON/AIRSS/Generating-Clusters/AIREBO/with-SteepDescent/Only-C1/SD-CG-opt/Try1-1.4A-POS3A/HFTN-CG
REM
REM
REM
REM
REM
REM ./C.cell (11c1c37f851c82e70ff6c80c92926a4b)
REM
REM compiler GCC version 9.2.1 20190827 (Red Hat 9.2.1-1)
REM options -cpp -mtune=generic -march=x86-64 -g -O0 -fpre-include=/usr/include/finclude/math-vector-fortran.h
REM seed 760625105 -2093093950 -601145688 1676146662 1283308019 -938718287 2075773534 -2044976212 -1286330077 -703111640 -1917398992 -1221241057 2127448944 196578578 -1408986961 417438840 1618852055 -1974913898 -1868007874 -394046161 -384098087 -1427594323 2026150686 -477079131 -1784973500 1643284655 -266656330 918098011 66694374 -2044753516 -87643454 -1649826222 -1592383692
REM
CELL 1.54180   50.00000   50.00000   50.00000   90.00000   90.00000   90.00000
LATT -1
SFAC C  
C      1  0.4472760000000  0.5118900000000  0.5415610000000 1.0
C      1  0.4762210000000  0.4866040000000  0.4853230000000 1.0
C      1  0.5200050000000  0.5730490000000  0.5145720000000 1.0
C      1  0.4111470000000  0.5977680000000  0.5265310000000 1.0
C      1  0.3901130000000  0.6125970000000  0.5315050000000 1.0
C      1  0.5719110000000  0.4799450000000  0.5345900000000 1.0
C      1  0.4710710000000  0.4519940000000  0.5416240000000 1.0
C      1  0.5095890000000  0.5247750000000  0.4768160000000 1.0
C      1  0.5560860000000  0.4685410000000  0.5066320000000 1.0
C      1  0.4586810000000  0.4659390000000  0.4219930000000 1.0
C      1  0.5549760000000  0.5492420000000  0.5392850000000 1.0
C      1  0.5013630000000  0.5014600000000  0.4058770000000 1.0
C      1  0.4931000000000  0.4866080000000  0.5799820000000 1.0
C      1  0.4936030000000  0.5661130000000  0.5195700000000 1.0
C      1  0.4502320000000  0.5340850000000  0.5268930000000 1.0
C      1  0.5303460000000  0.5199160000000  0.4539710000000 1.0
C      1  0.5639020000000  0.4770890000000  0.4548930000000 1.0
C      1  0.5085600000000  0.4680210000000  0.4263860000000 1.0
C      1  0.5090630000000  0.4595450000000  0.5321730000000 1.0
C      1  0.5048150000000  0.4932440000000  0.4692730000000 1.0
C      1  0.4474560000000  0.5847710000000  0.4965990000000 1.0
C      1  0.4749600000000  0.4914960000000  0.4070340000000 1.0
C      1  0.4644000000000  0.5327480000000  0.5725810000000 1.0
C      1  0.4317000000000  0.5804340000000  0.5198940000000 1.0
C      1  0.5325440000000  0.4779280000000  0.4565910000000 1.0
C      1  0.5203650000000  0.4992180000000  0.4330210000000 1.0
C      1  0.4372950000000  0.5991190000000  0.4760720000000 1.0
C      1  0.5774380000000  0.4538310000000  0.4502110000000 1.0
C      1  0.4866120000000  0.4720800000000  0.5108300000000 1.0
C      1  0.4148340000000  0.4487720000000  0.5450590000000 1.0
C      1  0.4954090000000  0.4581760000000  0.5620480000000 1.0
C      1  0.5247520000000  0.4335510000000  0.5237970000000 1.0
C      1  0.4839390000000  0.5711770000000  0.5492430000000 1.0
C      1  0.4799860000000  0.4403950000000  0.5125630000000 1.0
C      1  0.5165330000000  0.4876520000000  0.5143620000000 1.0
C      1  0.4894730000000  0.5467750000000  0.4848390000000 1.0
C      1  0.5490170000000  0.4677730000000  0.5552110000000 1.0
C      1  0.5673030000000  0.5515150000000  0.4580240000000 1.0
C      1  0.5763400000000  0.5755750000000  0.4631530000000 1.0
C      1  0.5227860000000  0.4781540000000  0.5647740000000 1.0
C      1  0.4758740000000  0.5377490000000  0.5133200000000 1.0
C      1  0.5450360000000  0.4982020000000  0.5114360000000 1.0
C      1  0.5124150000000  0.4415580000000  0.4742320000000 1.0
C      1  0.4559730000000  0.4746310000000  0.4700520000000 1.0
C      1  0.4860160000000  0.5038610000000  0.5359580000000 1.0
C      1  0.5338910000000  0.5258350000000  0.5499060000000 1.0
C      1  0.4866770000000  0.4280860000000  0.4883260000000 1.0
C      1  0.4389550000000  0.5593000000000  0.5371400000000 1.0
C      1  0.4594610000000  0.4830540000000  0.5402100000000 1.0
C      1  0.4578980000000  0.4971140000000  0.4342750000000 1.0
C      1  0.5967790000000  0.4897490000000  0.5388500000000 1.0
C      1  0.5500220000000  0.5213040000000  0.5238440000000 1.0
C      1  0.5744840000000  0.5031420000000  0.4545960000000 1.0
C      1  0.5476710000000  0.4492130000000  0.5312020000000 1.0
C      1  0.5144790000000  0.5068210000000  0.5531390000000 1.0
C      1  0.4779940000000  0.5084950000000  0.5684930000000 1.0
C      1  0.4675330000000  0.4249290000000  0.4684230000000 1.0
C      1  0.5478650000000  0.4237950000000  0.4775400000000 1.0
C      1  0.4721670000000  0.5726300000000  0.4946600000000 1.0
C      1  0.5420270000000  0.4570360000000  0.4816840000000 1.0
C      1  0.4384710000000  0.4574550000000  0.5426600000000 1.0
C      1  0.5251520000000  0.4230970000000  0.4987430000000 1.0
C      1  0.4938790000000  0.5106030000000  0.5035680000000 1.0
C      1  0.4967340000000  0.4491830000000  0.4495660000000 1.0
C      1  0.4638940000000  0.4513830000000  0.4497060000000 1.0
C      1  0.4608470000000  0.5569980000000  0.5579020000000 1.0
C      1  0.5576020000000  0.5258150000000  0.4553170000000 1.0
C      1  0.4854360000000  0.4846830000000  0.4449530000000 1.0
C      1  0.5195640000000  0.4547120000000  0.4049430000000 1.0
END
