TITL C-2848501-3133-552 -0.00215598151262419 125000 -791.721647716811 0 0 145 (C1) n - 1
REM
REM in /home/bkarasulu/work/CARBON/AIRSS/Generating-Clusters/AIREBO/with-SteepDescent/Only-C1/SD-CG-opt/Try1-1.4A-POS3A/HFTN-CG
REM
REM
REM
REM
REM
REM ./C.cell (11c1c37f851c82e70ff6c80c92926a4b)
REM
REM compiler GCC version 9.2.1 20190827 (Red Hat 9.2.1-1)
REM options -cpp -mtune=generic -march=x86-64 -g -O0 -fpre-include=/usr/include/finclude/math-vector-fortran.h
REM seed -666801341 1167496059 -2051328623 -886650800 634020103 1939257661 -1635079686 -1544651959 1661663557 1995995817 -1724075579 1918432048 -507676549 -1133132566 -946366329 -347639110 -767387021 -589611221 162986025 990730851 1581874841 1375634422 -1673866825 512283580 1073929831 1255441109 891573331 1832112510 225500918 1002608466 608882864 -526632002 1308412534
REM
CELL 1.54180   50.00000   50.00000   50.00000   90.00000   90.00000   90.00000
LATT -1
SFAC C  
C      1  0.5424950000000  0.4201920000000  0.5464580000000 1.0
C      1  0.4917870000000  0.4323730000000  0.5386300000000 1.0
C      1  0.5454390000000  0.5320750000000  0.5825940000000 1.0
C      1  0.5258060000000  0.4324920000000  0.5725060000000 1.0
C      1  0.4438000000000  0.4519980000000  0.4507420000000 1.0
C      1  0.5056260000000  0.5225040000000  0.5589160000000 1.0
C      1  0.5502470000000  0.5005390000000  0.5886280000000 1.0
C      1  0.6005440000000  0.4966920000000  0.4874540000000 1.0
C      1  0.4691400000000  0.4337770000000  0.4545490000000 1.0
C      1  0.5120510000000  0.5681840000000  0.5402080000000 1.0
C      1  0.4099500000000  0.5635870000000  0.4962270000000 1.0
C      1  0.6056850000000  0.4680900000000  0.5293500000000 1.0
C      1  0.4450960000000  0.5189620000000  0.5648780000000 1.0
C      1  0.5329880000000  0.4882280000000  0.4814440000000 1.0
C      1  0.4797140000000  0.5486430000000  0.4356990000000 1.0
C      1  0.4246820000000  0.4939920000000  0.4342360000000 1.0
C      1  0.5007030000000  0.5317680000000  0.4847840000000 1.0
C      1  0.4076520000000  0.4386440000000  0.5145540000000 1.0
C      1  0.4010110000000  0.4825220000000  0.4402100000000 1.0
C      1  0.5042940000000  0.4482650000000  0.4790950000000 1.0
C      1  0.4624720000000  0.4643930000000  0.5139220000000 1.0
C      1  0.4896030000000  0.4443410000000  0.4329780000000 1.0
C      1  0.5889240000000  0.4632890000000  0.4425820000000 1.0
C      1  0.5373760000000  0.4778730000000  0.5667960000000 1.0
C      1  0.5381850000000  0.5791690000000  0.4862230000000 1.0
C      1  0.4507880000000  0.4763690000000  0.4341370000000 1.0
C      1  0.5633420000000  0.4425470000000  0.4465670000000 1.0
C      1  0.4721010000000  0.4819020000000  0.5598730000000 1.0
C      1  0.4734910000000  0.5634840000000  0.5492170000000 1.0
C      1  0.5204690000000  0.4782730000000  0.4097600000000 1.0
C      1  0.4391570000000  0.4819460000000  0.6011210000000 1.0
C      1  0.5084240000000  0.5865830000000  0.5118410000000 1.0
C      1  0.5415370000000  0.5849650000000  0.5194840000000 1.0
C      1  0.6026740000000  0.4932700000000  0.5147350000000 1.0
C      1  0.5592120000000  0.4498770000000  0.5454760000000 1.0
C      1  0.4671270000000  0.5271180000000  0.4816780000000 1.0
C      1  0.5578450000000  0.4920410000000  0.5295110000000 1.0
C      1  0.4844030000000  0.4104470000000  0.4736490000000 1.0
C      1  0.4779810000000  0.4919730000000  0.4473300000000 1.0
C      1  0.4556790000000  0.5178950000000  0.5263930000000 1.0
C      1  0.5388030000000  0.4377570000000  0.4300630000000 1.0
C      1  0.4707330000000  0.4513450000000  0.4836180000000 1.0
C      1  0.5697730000000  0.4216410000000  0.4655510000000 1.0
C      1  0.4631130000000  0.5203000000000  0.3938540000000 1.0
C      1  0.4343430000000  0.5238060000000  0.4392980000000 1.0
C      1  0.5833670000000  0.5140410000000  0.5318110000000 1.0
C      1  0.4351040000000  0.5207760000000  0.4072700000000 1.0
C      1  0.4748290000000  0.4842720000000  0.4793360000000 1.0
C      1  0.5614130000000  0.5512170000000  0.4681280000000 1.0
C      1  0.5130410000000  0.5591700000000  0.4750680000000 1.0
C      1  0.4919670000000  0.4672330000000  0.4167230000000 1.0
C      1  0.5050530000000  0.4731910000000  0.4559620000000 1.0
C      1  0.5063650000000  0.4931610000000  0.5234750000000 1.0
C      1  0.5821720000000  0.5481720000000  0.4953310000000 1.0
C      1  0.4894430000000  0.5011580000000  0.4169940000000 1.0
C      1  0.5243440000000  0.4040980000000  0.5226320000000 1.0
C      1  0.4864550000000  0.5338290000000  0.4088050000000 1.0
C      1  0.5567630000000  0.5336700000000  0.5398100000000 1.0
C      1  0.5919550000000  0.4937960000000  0.4555060000000 1.0
C      1  0.4532170000000  0.6002570000000  0.5161630000000 1.0
C      1  0.5679970000000  0.4742920000000  0.5816870000000 1.0
C      1  0.5142730000000  0.4835140000000  0.5888840000000 1.0
C      1  0.4125120000000  0.4679250000000  0.5260310000000 1.0
C      1  0.4831300000000  0.5808790000000  0.5767980000000 1.0
C      1  0.5540940000000  0.5291390000000  0.4929730000000 1.0
C      1  0.5631380000000  0.4740940000000  0.4883970000000 1.0
C      1  0.3952370000000  0.4906630000000  0.5149200000000 1.0
C      1  0.4482260000000  0.4498700000000  0.5582200000000 1.0
C      1  0.5151530000000  0.4352540000000  0.4495780000000 1.0
C      1  0.5802840000000  0.4769100000000  0.5500930000000 1.0
C      1  0.4239690000000  0.4332620000000  0.4933750000000 1.0
C      1  0.4635070000000  0.5909530000000  0.4858700000000 1.0
C      1  0.4810620000000  0.5915110000000  0.5314500000000 1.0
C      1  0.5250200000000  0.5260210000000  0.5362010000000 1.0
C      1  0.5078720000000  0.5457270000000  0.5150020000000 1.0
C      1  0.5082470000000  0.5682710000000  0.5681900000000 1.0
C      1  0.5202110000000  0.5054330000000  0.4305090000000 1.0
C      1  0.5339440000000  0.5298340000000  0.4143950000000 1.0
C      1  0.4235450000000  0.5599080000000  0.5399060000000 1.0
C      1  0.5613270000000  0.4477230000000  0.5056970000000 1.0
C      1  0.4505650000000  0.4270450000000  0.4962320000000 1.0
C      1  0.4157420000000  0.5351150000000  0.4595720000000 1.0
C      1  0.4434150000000  0.4872550000000  0.5713960000000 1.0
C      1  0.3988370000000  0.4727290000000  0.4665900000000 1.0
C      1  0.5759390000000  0.4156890000000  0.5422800000000 1.0
C      1  0.4447740000000  0.5754170000000  0.4648490000000 1.0
C      1  0.4763960000000  0.5389000000000  0.5259060000000 1.0
C      1  0.5387920000000  0.4697740000000  0.4534830000000 1.0
C      1  0.4605370000000  0.5752040000000  0.4397850000000 1.0
C      1  0.4952860000000  0.4098180000000  0.5058610000000 1.0
C      1  0.5860650000000  0.4592170000000  0.4746140000000 1.0
C      1  0.4749860000000  0.5351640000000  0.5656180000000 1.0
C      1  0.3950430000000  0.4930030000000  0.4861380000000 1.0
C      1  0.5147480000000  0.5415580000000  0.3984460000000 1.0
C      1  0.4348920000000  0.5745070000000  0.5128340000000 1.0
C      1  0.5864280000000  0.4438660000000  0.5264020000000 1.0
C      1  0.5220340000000  0.5148240000000  0.6011160000000 1.0
C      1  0.4518210000000  0.4984840000000  0.4918700000000 1.0
C      1  0.5345290000000  0.4507950000000  0.5221050000000 1.0
C      1  0.5347550000000  0.5068170000000  0.5098760000000 1.0
C      1  0.4818070000000  0.4518580000000  0.5646480000000 1.0
C      1  0.5932290000000  0.5068030000000  0.5617980000000 1.0
C      1  0.3995230000000  0.5146480000000  0.5282970000000 1.0
C      1  0.4050730000000  0.5399620000000  0.5108040000000 1.0
C      1  0.5144370000000  0.5422760000000  0.5823980000000 1.0
C      1  0.4616500000000  0.4401410000000  0.5323020000000 1.0
C      1  0.5227260000000  0.5531820000000  0.4464860000000 1.0
C      1  0.4648780000000  0.5232700000000  0.4502870000000 1.0
C      1  0.4923500000000  0.5784360000000  0.4470720000000 1.0
C      1  0.5152390000000  0.4107210000000  0.4712800000000 1.0
C      1  0.5081510000000  0.4526390000000  0.5800420000000 1.0
C      1  0.4910450000000  0.5002390000000  0.5763640000000 1.0
C      1  0.5558300000000  0.5665690000000  0.5409020000000 1.0
C      1  0.5329360000000  0.4101480000000  0.4925660000000 1.0
C      1  0.5308440000000  0.4776300000000  0.5369110000000 1.0
C      1  0.4520230000000  0.4923890000000  0.4053590000000 1.0
C      1  0.5987440000000  0.5387250000000  0.5146620000000 1.0
C      1  0.4339390000000  0.4713460000000  0.5004130000000 1.0
C      1  0.5013160000000  0.4883070000000  0.4927130000000 1.0
C      1  0.4244670000000  0.4688560000000  0.5534220000000 1.0
C      1  0.4501930000000  0.5537980000000  0.4905400000000 1.0
C      1  0.5917510000000  0.5303420000000  0.5767640000000 1.0
C      1  0.4270640000000  0.5280040000000  0.5419340000000 1.0
C      1  0.5468490000000  0.5307650000000  0.4458420000000 1.0
C      1  0.5206820000000  0.5142580000000  0.4633560000000 1.0
C      1  0.4997040000000  0.4045300000000  0.5452320000000 1.0
C      1  0.4662790000000  0.4116890000000  0.5159350000000 1.0
C      1  0.5492160000000  0.5809210000000  0.4567540000000 1.0
C      1  0.5244940000000  0.5835550000000  0.4372070000000 1.0
C      1  0.5621820000000  0.4799680000000  0.4329040000000 1.0
C      1  0.5689380000000  0.5050770000000  0.4778210000000 1.0
C      1  0.4172560000000  0.5609870000000  0.4691420000000 1.0
C      1  0.4950460000000  0.5862370000000  0.4805720000000 1.0
C      1  0.5376670000000  0.5532510000000  0.5057050000000 1.0
C      1  0.4733580000000  0.4890130000000  0.5294710000000 1.0
C      1  0.4738420000000  0.5669450000000  0.5095580000000 1.0
C      1  0.5694950000000  0.5106520000000  0.4382530000000 1.0
C      1  0.5572540000000  0.4225820000000  0.4894830000000 1.0
C      1  0.5666830000000  0.5493780000000  0.5682920000000 1.0
C      1  0.4097860000000  0.5163870000000  0.4791130000000 1.0
C      1  0.5427680000000  0.4628420000000  0.4144590000000 1.0
C      1  0.4232480000000  0.4560940000000  0.4730220000000 1.0
C      1  0.5099400000000  0.4396990000000  0.5115570000000 1.0
C      1  0.4655030000000  0.5154900000000  0.5918540000000 1.0
C      1  0.4305120000000  0.5188560000000  0.5035170000000 1.0
END
