TITL C-2847956-8218-486 0.00406189258261635 125000 -678.965833225753 0 0 124 (C1) n - 1
REM
REM in /home/bkarasulu/work/CARBON/AIRSS/Generating-Clusters/AIREBO/with-SteepDescent/Only-C1/SD-CG-opt/Try1-1.4A-POS3A/HFTN-CG
REM
REM
REM
REM
REM
REM ./C.cell (11c1c37f851c82e70ff6c80c92926a4b)
REM
REM compiler GCC version 9.2.1 20190827 (Red Hat 9.2.1-1)
REM options -cpp -mtune=generic -march=x86-64 -g -O0 -fpre-include=/usr/include/finclude/math-vector-fortran.h
REM seed 188547116 136754319 -586018001 1922055586 -1021076519 1832602514 1028613281 1063898172 2131950285 639961224 284655079 932094491 -163367091 -690890071 -152863709 959749100 262609366 -1030811618 -1557868768 -560889318 859431800 242736142 -519818820 1508751904 -941415358 1890425023 181826611 -1169034258 695602595 -713543599 1317364595 1805209186 -140611982
REM
CELL 1.54180   50.00000   50.00000   50.00000   90.00000   90.00000   90.00000
LATT -1
SFAC C  
C      1  0.4770780000000  0.4498190000000  0.4779170000000 1.0
C      1  0.5101970000000  0.5534070000000  0.5865090000000 1.0
C      1  0.5060740000000  0.5673080000000  0.4997930000000 1.0
C      1  0.5567560000000  0.4162070000000  0.5031340000000 1.0
C      1  0.4087000000000  0.5203740000000  0.4681740000000 1.0
C      1  0.5556310000000  0.4684120000000  0.4634500000000 1.0
C      1  0.4703050000000  0.4979170000000  0.5387020000000 1.0
C      1  0.4567350000000  0.4557990000000  0.4442930000000 1.0
C      1  0.3683670000000  0.4890980000000  0.4643620000000 1.0
C      1  0.5726020000000  0.5446110000000  0.5405880000000 1.0
C      1  0.4990470000000  0.4738940000000  0.5645280000000 1.0
C      1  0.4985230000000  0.5022570000000  0.5535010000000 1.0
C      1  0.4502890000000  0.5396140000000  0.5880690000000 1.0
C      1  0.5541160000000  0.4435590000000  0.4322470000000 1.0
C      1  0.4487840000000  0.5794340000000  0.5543930000000 1.0
C      1  0.5520570000000  0.5164690000000  0.4179320000000 1.0
C      1  0.4377360000000  0.4896680000000  0.4299200000000 1.0
C      1  0.4760470000000  0.5958070000000  0.5223730000000 1.0
C      1  0.5594770000000  0.4964610000000  0.4444180000000 1.0
C      1  0.4587690000000  0.4234670000000  0.4865770000000 1.0
C      1  0.4300250000000  0.4631310000000  0.4869660000000 1.0
C      1  0.4156370000000  0.5296220000000  0.4965060000000 1.0
C      1  0.4287070000000  0.4646380000000  0.4408110000000 1.0
C      1  0.4647090000000  0.4279200000000  0.4549270000000 1.0
C      1  0.4639640000000  0.4662620000000  0.5162390000000 1.0
C      1  0.5617430000000  0.5049990000000  0.5665870000000 1.0
C      1  0.4803070000000  0.4783920000000  0.4501810000000 1.0
C      1  0.5275190000000  0.4518130000000  0.4407070000000 1.0
C      1  0.4903130000000  0.4147970000000  0.5235650000000 1.0
C      1  0.5258480000000  0.5293170000000  0.5914790000000 1.0
C      1  0.5110610000000  0.4743190000000  0.4380470000000 1.0
C      1  0.4655940000000  0.4253620000000  0.5318570000000 1.0
C      1  0.5239140000000  0.5101220000000  0.5429550000000 1.0
C      1  0.6008320000000  0.5089720000000  0.5045340000000 1.0
C      1  0.5532860000000  0.5661030000000  0.5080820000000 1.0
C      1  0.4721870000000  0.5306300000000  0.3976640000000 1.0
C      1  0.5096470000000  0.5619220000000  0.4458000000000 1.0
C      1  0.4913100000000  0.5137000000000  0.5054340000000 1.0
C      1  0.3956300000000  0.4914250000000  0.4657680000000 1.0
C      1  0.5249140000000  0.4744050000000  0.5844850000000 1.0
C      1  0.4689590000000  0.4076760000000  0.4371680000000 1.0
C      1  0.4628260000000  0.5751170000000  0.5746740000000 1.0
C      1  0.5152420000000  0.4150870000000  0.5368710000000 1.0
C      1  0.5564000000000  0.5078030000000  0.5331270000000 1.0
C      1  0.4882760000000  0.5469280000000  0.4398330000000 1.0
C      1  0.5787530000000  0.5231740000000  0.4218630000000 1.0
C      1  0.4743130000000  0.5726890000000  0.5019730000000 1.0
C      1  0.5725550000000  0.5576540000000  0.4828650000000 1.0
C      1  0.4647600000000  0.4880230000000  0.4221370000000 1.0
C      1  0.4457970000000  0.4262020000000  0.5117490000000 1.0
C      1  0.4920380000000  0.4831890000000  0.5189620000000 1.0
C      1  0.4953490000000  0.5920270000000  0.5385300000000 1.0
C      1  0.5319930000000  0.4451950000000  0.4712450000000 1.0
C      1  0.4277130000000  0.4481160000000  0.5110780000000 1.0
C      1  0.4907740000000  0.4348420000000  0.5664630000000 1.0
C      1  0.5206260000000  0.4530730000000  0.5473390000000 1.0
C      1  0.4605310000000  0.5440610000000  0.5140950000000 1.0
C      1  0.4893010000000  0.5365320000000  0.5306570000000 1.0
C      1  0.4396700000000  0.5179890000000  0.5076360000000 1.0
C      1  0.5379800000000  0.4993690000000  0.5865680000000 1.0
C      1  0.5102080000000  0.5037270000000  0.4551110000000 1.0
C      1  0.4566430000000  0.4844210000000  0.5986100000000 1.0
C      1  0.5684760000000  0.4489950000000  0.5260300000000 1.0
C      1  0.6027220000000  0.4945800000000  0.4736140000000 1.0
C      1  0.4138260000000  0.4690850000000  0.4648490000000 1.0
C      1  0.5383260000000  0.4160210000000  0.4795050000000 1.0
C      1  0.5390580000000  0.5000740000000  0.4923280000000 1.0
C      1  0.5641750000000  0.5696010000000  0.4526980000000 1.0
C      1  0.4947750000000  0.4183820000000  0.4948780000000 1.0
C      1  0.4493740000000  0.5133860000000  0.5583210000000 1.0
C      1  0.4343530000000  0.5095860000000  0.4511560000000 1.0
C      1  0.5400150000000  0.4354490000000  0.5256200000000 1.0
C      1  0.4570190000000  0.5094320000000  0.4706640000000 1.0
C      1  0.5077210000000  0.4485320000000  0.4901860000000 1.0
C      1  0.4113790000000  0.5521710000000  0.5124080000000 1.0
C      1  0.5376290000000  0.5123190000000  0.4627100000000 1.0
C      1  0.4499180000000  0.5089300000000  0.5911080000000 1.0
C      1  0.5806610000000  0.4568490000000  0.5006750000000 1.0
C      1  0.5337190000000  0.6080760000000  0.4475970000000 1.0
C      1  0.4342470000000  0.5428010000000  0.5607020000000 1.0
C      1  0.5511170000000  0.4695850000000  0.4964720000000 1.0
C      1  0.5884790000000  0.5129440000000  0.4522700000000 1.0
C      1  0.4403560000000  0.5525180000000  0.4277130000000 1.0
C      1  0.5757050000000  0.4417750000000  0.4568480000000 1.0
C      1  0.5449240000000  0.5378990000000  0.4812740000000 1.0
C      1  0.5680050000000  0.4704050000000  0.5462200000000 1.0
C      1  0.4851820000000  0.5234210000000  0.4577160000000 1.0
C      1  0.5736980000000  0.4822420000000  0.4169890000000 1.0
C      1  0.5420610000000  0.4788600000000  0.5259280000000 1.0
C      1  0.4915540000000  0.4909370000000  0.4799000000000 1.0
C      1  0.5242280000000  0.5190290000000  0.5123800000000 1.0
C      1  0.5726430000000  0.5014690000000  0.4870320000000 1.0
C      1  0.5402300000000  0.5304820000000  0.5617770000000 1.0
C      1  0.4231690000000  0.5381620000000  0.4426770000000 1.0
C      1  0.4361020000000  0.5582410000000  0.5330940000000 1.0
C      1  0.4436980000000  0.4929420000000  0.5227130000000 1.0
C      1  0.5856620000000  0.5443890000000  0.4548220000000 1.0
C      1  0.4624250000000  0.5415610000000  0.4802320000000 1.0
C      1  0.5197350000000  0.5682440000000  0.5654940000000 1.0
C      1  0.4677010000000  0.5478910000000  0.4196590000000 1.0
C      1  0.5651110000000  0.4570910000000  0.4103590000000 1.0
C      1  0.4810080000000  0.5495050000000  0.5835010000000 1.0
C      1  0.5113020000000  0.5625020000000  0.5330520000000 1.0
C      1  0.4437710000000  0.4181120000000  0.5897160000000 1.0
C      1  0.5148730000000  0.4013480000000  0.4815040000000 1.0
C      1  0.4735800000000  0.5033370000000  0.4007390000000 1.0
C      1  0.4286250000000  0.5814580000000  0.4822400000000 1.0
C      1  0.4555980000000  0.5749220000000  0.4765600000000 1.0
C      1  0.4264970000000  0.4672570000000  0.5319950000000 1.0
C      1  0.5141060000000  0.4642780000000  0.5159070000000 1.0
C      1  0.5777870000000  0.4211730000000  0.4829230000000 1.0
C      1  0.4704500000000  0.4668110000000  0.5780500000000 1.0
C      1  0.5934940000000  0.4638130000000  0.4754620000000 1.0
C      1  0.5400110000000  0.5445970000000  0.5308360000000 1.0
C      1  0.4602430000000  0.4785780000000  0.4847410000000 1.0
C      1  0.5237530000000  0.5611350000000  0.4767340000000 1.0
C      1  0.4658510000000  0.5930210000000  0.4576060000000 1.0
C      1  0.4637000000000  0.4343080000000  0.5822040000000 1.0
C      1  0.5361220000000  0.5809500000000  0.4523400000000 1.0
C      1  0.4796180000000  0.5291800000000  0.5606320000000 1.0
C      1  0.5935290000000  0.5336210000000  0.5222520000000 1.0
C      1  0.4688200000000  0.4527460000000  0.5471380000000 1.0
C      1  0.5177490000000  0.4422400000000  0.5791570000000 1.0
C      1  0.5651890000000  0.5264210000000  0.5060650000000 1.0
END
