TITL C-2848504-8560-247 -4.42017684426769e-07 125000 -105.515606793277 0 0 19 (C1) n - 1
REM
REM in /home/bkarasulu/work/CARBON/AIRSS/Generating-Clusters/AIREBO/with-SteepDescent/Only-C1/SD-CG-opt/Try1-1.4A-POS3A/HFTN-CG
REM
REM
REM
REM
REM
REM ./C.cell (11c1c37f851c82e70ff6c80c92926a4b)
REM
REM compiler GCC version 9.2.1 20190827 (Red Hat 9.2.1-1)
REM options -cpp -mtune=generic -march=x86-64 -g -O0 -fpre-include=/usr/include/finclude/math-vector-fortran.h
REM seed -637688132 170327243 -1008470776 -1051552863 -1243370356 -1977773337 2106098779 -1737423498 1251271573 1837490353 2037262282 433458890 1389726168 -1127323491 -1156507847 482582577 458882482 1862879952 1779762700 -1575897472 -433103088 -1852591044 -344474436 -2053769708 -2008626162 1015482489 392192577 287761285 1264957164 704694726 -1290975660 559140670 -759628675
REM
CELL 1.54180   50.00000   50.00000   50.00000   90.00000   90.00000   90.00000
LATT -1
SFAC C  
C      1  0.5209970000000  0.5228640000000  0.5580960000000 1.0
C      1  0.4898440000000  0.4821580000000  0.4068600000000 1.0
C      1  0.4719510000000  0.5267140000000  0.5454800000000 1.0
C      1  0.4959800000000  0.5115570000000  0.5520510000000 1.0
C      1  0.4798660000000  0.4888590000000  0.4627530000000 1.0
C      1  0.5151080000000  0.4670450000000  0.5327880000000 1.0
C      1  0.4518910000000  0.4939890000000  0.4474240000000 1.0
C      1  0.5426830000000  0.5300010000000  0.5429910000000 1.0
C      1  0.5334110000000  0.4694920000000  0.5113030000000 1.0
C      1  0.4937680000000  0.4911220000000  0.4858080000000 1.0
C      1  0.4788990000000  0.4886410000000  0.4305000000000 1.0
C      1  0.5217560000000  0.4877630000000  0.4871340000000 1.0
C      1  0.4809430000000  0.4948950000000  0.5109460000000 1.0
C      1  0.5557400000000  0.5184560000000  0.5217740000000 1.0
C      1  0.5462880000000  0.4982970000000  0.5056370000000 1.0
C      1  0.4602030000000  0.5457590000000  0.5601200000000 1.0
C      1  0.5011670000000  0.4783270000000  0.3835330000000 1.0
C      1  0.4963910000000  0.4880010000000  0.5349960000000 1.0
C      1  0.4631130000000  0.5160590000000  0.5198040000000 1.0
END
