TITL C-2847958-8115-82 0.000559808787581232 125000 -1040.7785941983 0 0 197 (C1) n - 1
REM
REM in /home/bkarasulu/work/CARBON/AIRSS/Generating-Clusters/AIREBO/with-SteepDescent/Only-C1/SD-CG-opt/Try1-1.4A-POS3A/HFTN-CG
REM
REM
REM
REM
REM
REM ./C.cell (11c1c37f851c82e70ff6c80c92926a4b)
REM
REM compiler GCC version 9.2.1 20190827 (Red Hat 9.2.1-1)
REM options -cpp -mtune=generic -march=x86-64 -g -O0 -fpre-include=/usr/include/finclude/math-vector-fortran.h
REM seed 18423930 82943868 -517715961 786392884 -620168015 1161408528 -69703436 -1219504902 7150020 494454308 -1413825463 220607709 -474325278 1146251565 200199161 881160014 2088004825 1598924417 -1723574889 -1976675189 495134615 -566394080 1492373727 -1091921962 -52482054 1364563982 -1410364987 1530233084 -138395694 2041856540 -1948030584 -2001005812 -1607287018
REM
CELL 1.54180   50.00000   50.00000   50.00000   90.00000   90.00000   90.00000
LATT -1
SFAC C  
C      1  0.5493460000000  0.5235860000000  0.5372870000000 1.0
C      1  0.5003130000000  0.4902520000000  0.5543330000000 1.0
C      1  0.4860160000000  0.4051270000000  0.4535510000000 1.0
C      1  0.5435730000000  0.4678980000000  0.4371300000000 1.0
C      1  0.4414850000000  0.4361430000000  0.5030140000000 1.0
C      1  0.4637940000000  0.4039430000000  0.5315930000000 1.0
C      1  0.4774600000000  0.4581120000000  0.5916680000000 1.0
C      1  0.5142290000000  0.6023900000000  0.5699870000000 1.0
C      1  0.4997090000000  0.5719910000000  0.4432150000000 1.0
C      1  0.4593630000000  0.5201400000000  0.5569870000000 1.0
C      1  0.4716920000000  0.6133430000000  0.5026790000000 1.0
C      1  0.4397940000000  0.5500590000000  0.4517860000000 1.0
C      1  0.5666640000000  0.5252920000000  0.4201010000000 1.0
C      1  0.5297400000000  0.5872050000000  0.4480100000000 1.0
C      1  0.3922330000000  0.5400310000000  0.4460300000000 1.0
C      1  0.3929260000000  0.4732670000000  0.4645390000000 1.0
C      1  0.5069430000000  0.5707710000000  0.4764510000000 1.0
C      1  0.5479690000000  0.4233120000000  0.5477110000000 1.0
C      1  0.5075500000000  0.4260780000000  0.5187560000000 1.0
C      1  0.4942380000000  0.6067780000000  0.5465820000000 1.0
C      1  0.5787370000000  0.4118680000000  0.4874080000000 1.0
C      1  0.4212100000000  0.5274180000000  0.4966860000000 1.0
C      1  0.5527300000000  0.3998320000000  0.4432830000000 1.0
C      1  0.4725310000000  0.5408110000000  0.4059230000000 1.0
C      1  0.5291990000000  0.3849600000000  0.5239830000000 1.0
C      1  0.4920540000000  0.4806300000000  0.4608090000000 1.0
C      1  0.4959850000000  0.4448680000000  0.5446540000000 1.0
C      1  0.6245990000000  0.4812030000000  0.5043540000000 1.0
C      1  0.5048940000000  0.4996470000000  0.6037470000000 1.0
C      1  0.4693320000000  0.5030060000000  0.4747050000000 1.0
C      1  0.5330300000000  0.5053450000000  0.4568450000000 1.0
C      1  0.5141150000000  0.4872060000000  0.3780140000000 1.0
C      1  0.4998450000000  0.5996090000000  0.5138130000000 1.0
C      1  0.4293810000000  0.5106210000000  0.5905820000000 1.0
C      1  0.4932590000000  0.5206100000000  0.4873500000000 1.0
C      1  0.4577850000000  0.4821900000000  0.5903170000000 1.0
C      1  0.5222830000000  0.5676320000000  0.4181360000000 1.0
C      1  0.4785030000000  0.4323790000000  0.4346490000000 1.0
C      1  0.3797990000000  0.4996160000000  0.5099650000000 1.0
C      1  0.5830710000000  0.5781880000000  0.4601590000000 1.0
C      1  0.5412470000000  0.4305820000000  0.5151840000000 1.0
C      1  0.5307090000000  0.3855770000000  0.4907310000000 1.0
C      1  0.4784700000000  0.5069120000000  0.5134150000000 1.0
C      1  0.5879020000000  0.4390850000000  0.5323270000000 1.0
C      1  0.5133930000000  0.5385620000000  0.6096840000000 1.0
C      1  0.4543770000000  0.5291880000000  0.4893720000000 1.0
C      1  0.4839590000000  0.5228970000000  0.6030220000000 1.0
C      1  0.5684630000000  0.5607230000000  0.5391500000000 1.0
C      1  0.5140200000000  0.5130420000000  0.4297240000000 1.0
C      1  0.5159720000000  0.4328520000000  0.5694080000000 1.0
C      1  0.4893110000000  0.4191750000000  0.4908480000000 1.0
C      1  0.5824390000000  0.5176330000000  0.5692250000000 1.0
C      1  0.4624380000000  0.6118110000000  0.4485230000000 1.0
C      1  0.6016640000000  0.4655950000000  0.5240370000000 1.0
C      1  0.5284010000000  0.5007230000000  0.5262440000000 1.0
C      1  0.4223890000000  0.4853350000000  0.5720070000000 1.0
C      1  0.3984200000000  0.5496490000000  0.5542170000000 1.0
C      1  0.5208880000000  0.4052380000000  0.5501110000000 1.0
C      1  0.5387800000000  0.5362330000000  0.4321330000000 1.0
C      1  0.4542530000000  0.4460230000000  0.3969390000000 1.0
C      1  0.4549200000000  0.5823610000000  0.5597940000000 1.0
C      1  0.4108880000000  0.4403300000000  0.4991560000000 1.0
C      1  0.4293860000000  0.4630410000000  0.5322340000000 1.0
C      1  0.5296580000000  0.6068040000000  0.4700130000000 1.0
C      1  0.5012710000000  0.5468250000000  0.5249010000000 1.0
C      1  0.5363390000000  0.4674130000000  0.6128620000000 1.0
C      1  0.5655370000000  0.4958250000000  0.4159420000000 1.0
C      1  0.5403410000000  0.5706580000000  0.4828420000000 1.0
C      1  0.5171560000000  0.5435330000000  0.4650680000000 1.0
C      1  0.5727890000000  0.4222910000000  0.4394750000000 1.0
C      1  0.4970990000000  0.4809870000000  0.5841330000000 1.0
C      1  0.5199440000000  0.4862220000000  0.4794720000000 1.0
C      1  0.4460350000000  0.4703080000000  0.4161560000000 1.0
C      1  0.5444020000000  0.4627260000000  0.5223070000000 1.0
C      1  0.4789430000000  0.5666010000000  0.4151640000000 1.0
C      1  0.4722630000000  0.4544300000000  0.4567880000000 1.0
C      1  0.5806850000000  0.5132010000000  0.5377690000000 1.0
C      1  0.4940390000000  0.5263360000000  0.4538260000000 1.0
C      1  0.4930150000000  0.3991900000000  0.5315810000000 1.0
C      1  0.5322780000000  0.4557580000000  0.5827730000000 1.0
C      1  0.5634030000000  0.4919350000000  0.5764800000000 1.0
C      1  0.5715240000000  0.5939040000000  0.5332160000000 1.0
C      1  0.5498340000000  0.5356690000000  0.4642950000000 1.0
C      1  0.4561380000000  0.4334240000000  0.5304650000000 1.0
C      1  0.5607060000000  0.4428400000000  0.4218110000000 1.0
C      1  0.4869980000000  0.5696800000000  0.5040330000000 1.0
C      1  0.4580770000000  0.4157310000000  0.4849250000000 1.0
C      1  0.5568230000000  0.4978250000000  0.5078070000000 1.0
C      1  0.3991720000000  0.4783900000000  0.4963250000000 1.0
C      1  0.5910670000000  0.4828920000000  0.5491630000000 1.0
C      1  0.4197630000000  0.5393970000000  0.5787540000000 1.0
C      1  0.4923160000000  0.4281480000000  0.5925820000000 1.0
C      1  0.5428220000000  0.5769020000000  0.5237270000000 1.0
C      1  0.5346670000000  0.4284480000000  0.4496500000000 1.0
C      1  0.5285270000000  0.5972240000000  0.5004710000000 1.0
C      1  0.3979900000000  0.4585710000000  0.5239560000000 1.0
C      1  0.6119350000000  0.4837900000000  0.5713090000000 1.0
C      1  0.4968390000000  0.4453400000000  0.4784580000000 1.0
C      1  0.4195380000000  0.5228320000000  0.4488130000000 1.0
C      1  0.4442290000000  0.4624940000000  0.4474390000000 1.0
C      1  0.5390950000000  0.5411270000000  0.5872360000000 1.0
C      1  0.4625830000000  0.5009140000000  0.4430150000000 1.0
C      1  0.4450830000000  0.5049260000000  0.5195320000000 1.0
C      1  0.4890600000000  0.5200850000000  0.5424930000000 1.0
C      1  0.4746580000000  0.4771660000000  0.5108150000000 1.0
C      1  0.4893960000000  0.4911940000000  0.4313660000000 1.0
C      1  0.5141650000000  0.4621970000000  0.4010650000000 1.0
C      1  0.5663840000000  0.5477800000000  0.5680430000000 1.0
C      1  0.4687390000000  0.4642000000000  0.5382440000000 1.0
C      1  0.3987740000000  0.4657020000000  0.5573440000000 1.0
C      1  0.5816220000000  0.4304780000000  0.4646570000000 1.0
C      1  0.5745320000000  0.4243080000000  0.5120940000000 1.0
C      1  0.5756140000000  0.5442510000000  0.5130880000000 1.0
C      1  0.5861260000000  0.4898330000000  0.5059510000000 1.0
C      1  0.5312480000000  0.5127760000000  0.3886600000000 1.0
C      1  0.5463760000000  0.4719570000000  0.4913110000000 1.0
C      1  0.5543860000000  0.5670650000000  0.4519790000000 1.0
C      1  0.4577570000000  0.5793520000000  0.5184390000000 1.0
C      1  0.4414710000000  0.5039490000000  0.4181190000000 1.0
C      1  0.4506260000000  0.5500230000000  0.5707880000000 1.0
C      1  0.5281260000000  0.4368420000000  0.4173270000000 1.0
C      1  0.5723630000000  0.5599900000000  0.4865190000000 1.0
C      1  0.5005960000000  0.4669550000000  0.4997350000000 1.0
C      1  0.4531380000000  0.5362450000000  0.5211210000000 1.0
C      1  0.4996260000000  0.3751740000000  0.5104100000000 1.0
C      1  0.4856350000000  0.4443610000000  0.4067130000000 1.0
C      1  0.5305350000000  0.4956210000000  0.6133890000000 1.0
C      1  0.4197780000000  0.4947570000000  0.5398460000000 1.0
C      1  0.4404860000000  0.5748770000000  0.4750700000000 1.0
C      1  0.4286710000000  0.4945790000000  0.4915950000000 1.0
C      1  0.5239950000000  0.5802620000000  0.5475130000000 1.0
C      1  0.5502270000000  0.5119080000000  0.6006360000000 1.0
C      1  0.5322410000000  0.4894240000000  0.4133680000000 1.0
C      1  0.4773390000000  0.4762480000000  0.4076840000000 1.0
C      1  0.5266430000000  0.5717330000000  0.5791670000000 1.0
C      1  0.6081220000000  0.4781300000000  0.4455660000000 1.0
C      1  0.4997180000000  0.3908860000000  0.4802540000000 1.0
C      1  0.5581320000000  0.4805790000000  0.5438350000000 1.0
C      1  0.4716070000000  0.4370000000000  0.5670410000000 1.0
C      1  0.5304240000000  0.5188060000000  0.5632870000000 1.0
C      1  0.5880740000000  0.5376720000000  0.4324180000000 1.0
C      1  0.3880840000000  0.5018960000000  0.5357740000000 1.0
C      1  0.6021650000000  0.5214160000000  0.4791580000000 1.0
C      1  0.4266540000000  0.5682000000000  0.5119360000000 1.0
C      1  0.4345730000000  0.6001080000000  0.5055100000000 1.0
C      1  0.5315140000000  0.5466960000000  0.5198370000000 1.0
C      1  0.5947600000000  0.5433860000000  0.5840980000000 1.0
C      1  0.5113440000000  0.4107170000000  0.4323700000000 1.0
C      1  0.4970140000000  0.5611100000000  0.5540080000000 1.0
C      1  0.4538020000000  0.4179310000000  0.4530120000000 1.0
C      1  0.4567250000000  0.5092540000000  0.6034560000000 1.0
C      1  0.4405360000000  0.4427840000000  0.5567940000000 1.0
C      1  0.4056500000000  0.4460250000000  0.4719180000000 1.0
C      1  0.4189940000000  0.4275760000000  0.5715900000000 1.0
C      1  0.5687160000000  0.4563220000000  0.4755590000000 1.0
C      1  0.4330010000000  0.4929010000000  0.4577400000000 1.0
C      1  0.4135800000000  0.5580950000000  0.4833560000000 1.0
C      1  0.4762220000000  0.5947010000000  0.4337790000000 1.0
C      1  0.5009510000000  0.5265920000000  0.5736810000000 1.0
C      1  0.5820110000000  0.4849160000000  0.4743400000000 1.0
C      1  0.5503710000000  0.4006330000000  0.4753370000000 1.0
C      1  0.4136250000000  0.4881090000000  0.4302060000000 1.0
C      1  0.3907360000000  0.5166190000000  0.4884900000000 1.0
C      1  0.4454120000000  0.4679970000000  0.5046460000000 1.0
C      1  0.5320750000000  0.4849030000000  0.5652550000000 1.0
C      1  0.5645370000000  0.4576120000000  0.5758900000000 1.0
C      1  0.3950870000000  0.5040460000000  0.4631780000000 1.0
C      1  0.4653560000000  0.5562740000000  0.4815510000000 1.0
C      1  0.4454110000000  0.5319260000000  0.4075290000000 1.0
C      1  0.4268400000000  0.4382890000000  0.4551960000000 1.0
C      1  0.4511460000000  0.3936860000000  0.5078720000000 1.0
C      1  0.5454680000000  0.4331930000000  0.4815390000000 1.0
C      1  0.4887230000000  0.4973090000000  0.3894440000000 1.0
C      1  0.4921290000000  0.5209320000000  0.4049010000000 1.0
C      1  0.4655360000000  0.6067110000000  0.5510280000000 1.0
C      1  0.5131410000000  0.4706440000000  0.5305710000000 1.0
C      1  0.4283490000000  0.5245010000000  0.5500340000000 1.0
C      1  0.4141090000000  0.5422060000000  0.5264770000000 1.0
C      1  0.4741290000000  0.5512800000000  0.4517800000000 1.0
C      1  0.6106120000000  0.5056480000000  0.5234610000000 1.0
C      1  0.6150810000000  0.4920920000000  0.4756360000000 1.0
C      1  0.5160310000000  0.4567220000000  0.4528010000000 1.0
C      1  0.5491760000000  0.5293800000000  0.4977100000000 1.0
C      1  0.5276550000000  0.5382310000000  0.4018630000000 1.0
C      1  0.5993950000000  0.5275570000000  0.5054940000000 1.0
C      1  0.4978030000000  0.5566430000000  0.5861730000000 1.0
C      1  0.4532090000000  0.6179290000000  0.5276710000000 1.0
C      1  0.4659540000000  0.5562130000000  0.5410640000000 1.0
C      1  0.5763210000000  0.4768020000000  0.4418060000000 1.0
C      1  0.4299300000000  0.5498670000000  0.4213640000000 1.0
C      1  0.5708580000000  0.4384920000000  0.5558430000000 1.0
C      1  0.5837100000000  0.5383580000000  0.4628390000000 1.0
C      1  0.4538060000000  0.4865860000000  0.5590330000000 1.0
C      1  0.5196810000000  0.5119650000000  0.4981410000000 1.0
C      1  0.3899970000000  0.5573730000000  0.4644860000000 1.0
C      1  0.4518570000000  0.6047940000000  0.4764190000000 1.0
C      1  0.5730570000000  0.4660510000000  0.4035930000000 1.0
END
