TITL C-2847956-8218-187 -0.000228712785134622 125000 -299.809846145869 0 0 56 (C1) n - 1
REM
REM in /home/bkarasulu/work/CARBON/AIRSS/Generating-Clusters/AIREBO/with-SteepDescent/Only-C1/SD-CG-opt/Try1-1.4A-POS3A/HFTN-CG
REM
REM
REM
REM
REM
REM ./C.cell (11c1c37f851c82e70ff6c80c92926a4b)
REM
REM compiler GCC version 9.2.1 20190827 (Red Hat 9.2.1-1)
REM options -cpp -mtune=generic -march=x86-64 -g -O0 -fpre-include=/usr/include/finclude/math-vector-fortran.h
REM seed -1708192809 -123568367 1604588204 2004600874 25867622 -1657572160 1038349814 -359806852 430377351 -468388637 -507330766 -1328358535 -1154280077 -1354551265 -130531270 -2025508742 757394733 -963765435 1837437766 1510000080 -558019257 186049548 -1251160407 -710007062 2071839456 987580973 -1885132604 -1355357924 -1608133937 295539703 -1855147647 257048467 1259214448
REM
CELL 1.54180   50.00000   50.00000   50.00000   90.00000   90.00000   90.00000
LATT -1
SFAC C  
C      1  0.4599240000000  0.4793520000000  0.5614680000000 1.0
C      1  0.5101810000000  0.5297870000000  0.5516850000000 1.0
C      1  0.5509590000000  0.4483010000000  0.5056830000000 1.0
C      1  0.4968960000000  0.5721340000000  0.5186280000000 1.0
C      1  0.4398290000000  0.5222270000000  0.5061950000000 1.0
C      1  0.4824340000000  0.5121690000000  0.5290530000000 1.0
C      1  0.4758080000000  0.5362660000000  0.4643160000000 1.0
C      1  0.5675290000000  0.4713790000000  0.4972650000000 1.0
C      1  0.4866740000000  0.5270610000000  0.5658040000000 1.0
C      1  0.5260320000000  0.5722710000000  0.5056200000000 1.0
C      1  0.4270730000000  0.5235260000000  0.4755700000000 1.0
C      1  0.5454890000000  0.4829900000000  0.4763730000000 1.0
C      1  0.4989370000000  0.4720700000000  0.5484610000000 1.0
C      1  0.4716480000000  0.5299850000000  0.5035380000000 1.0
C      1  0.4816250000000  0.5055610000000  0.4290990000000 1.0
C      1  0.5406690000000  0.4534340000000  0.5326380000000 1.0
C      1  0.5029420000000  0.4561920000000  0.4201470000000 1.0
C      1  0.5427840000000  0.5665910000000  0.4840360000000 1.0
C      1  0.5255090000000  0.5010050000000  0.5424030000000 1.0
C      1  0.4880630000000  0.4844930000000  0.4623890000000 1.0
C      1  0.5491790000000  0.5239820000000  0.5503520000000 1.0
C      1  0.4729640000000  0.5619430000000  0.5117220000000 1.0
C      1  0.5322740000000  0.4593090000000  0.4601910000000 1.0
C      1  0.5125760000000  0.4471470000000  0.5371570000000 1.0
C      1  0.4368440000000  0.5213780000000  0.5387790000000 1.0
C      1  0.4503960000000  0.4540500000000  0.4794500000000 1.0
C      1  0.4074730000000  0.5407590000000  0.4672970000000 1.0
C      1  0.5498990000000  0.5408960000000  0.4738150000000 1.0
C      1  0.5499710000000  0.4810710000000  0.5387040000000 1.0
C      1  0.4376960000000  0.4734370000000  0.4642390000000 1.0
C      1  0.5064380000000  0.4605600000000  0.4993000000000 1.0
C      1  0.5055460000000  0.5097650000000  0.4474310000000 1.0
C      1  0.5732810000000  0.5180810000000  0.5104970000000 1.0
C      1  0.5711340000000  0.4996610000000  0.4668720000000 1.0
C      1  0.5005620000000  0.5344520000000  0.4862140000000 1.0
C      1  0.5280220000000  0.5324560000000  0.5061650000000 1.0
C      1  0.5250970000000  0.5231590000000  0.4675450000000 1.0
C      1  0.4581060000000  0.4901060000000  0.4481370000000 1.0
C      1  0.4655230000000  0.4324430000000  0.4979580000000 1.0
C      1  0.4622470000000  0.5091060000000  0.5536720000000 1.0
C      1  0.4615090000000  0.4580370000000  0.5487770000000 1.0
C      1  0.4538940000000  0.5205410000000  0.4587120000000 1.0
C      1  0.5544120000000  0.5336520000000  0.5247350000000 1.0
C      1  0.5095280000000  0.4643730000000  0.4453470000000 1.0
C      1  0.5043750000000  0.4882050000000  0.5190120000000 1.0
C      1  0.5231590000000  0.5016800000000  0.4940370000000 1.0
C      1  0.4728440000000  0.4765120000000  0.5138320000000 1.0
C      1  0.5288810000000  0.4485240000000  0.4878820000000 1.0
C      1  0.5194950000000  0.5516980000000  0.5320070000000 1.0
C      1  0.5718340000000  0.5238990000000  0.4819250000000 1.0
C      1  0.4804250000000  0.4454680000000  0.5254450000000 1.0
C      1  0.5704080000000  0.4900460000000  0.5187710000000 1.0
C      1  0.4826670000000  0.4563630000000  0.4807130000000 1.0
C      1  0.4436650000000  0.4889580000000  0.5091260000000 1.0
C      1  0.4275310000000  0.4919280000000  0.4834810000000 1.0
C      1  0.4791400000000  0.4995590000000  0.4903300000000 1.0
END
