TITL C-2847945-6269-178 -0.000647015348794822 125000 -243.758864073286 0 0 43 (C1) n - 1
REM
REM in /home/bkarasulu/work/CARBON/AIRSS/Generating-Clusters/AIREBO/with-SteepDescent/Only-C1/SD-CG-opt/Try1-1.4A-POS3A/HFTN-CG
REM
REM
REM
REM
REM
REM ./C.cell (11c1c37f851c82e70ff6c80c92926a4b)
REM
REM compiler GCC version 9.2.1 20190827 (Red Hat 9.2.1-1)
REM options -cpp -mtune=generic -march=x86-64 -g -O0 -fpre-include=/usr/include/finclude/math-vector-fortran.h
REM seed -786368420 1645518391 517659829 1281888874 406515526 -640971320 1071181999 -324803846 1285638329 -415857956 -1217786831 1217813074 -1454792957 1805738220 -975598136 -1353392803 1602698225 109907195 125867136 -1139457231 -439218201 786094759 1411975600 1586176504 -1270133813 507967229 -902410013 -1289217976 -140776589 532486851 1702125426 1814627039 -234630159
REM
CELL 1.54180   50.00000   50.00000   50.00000   90.00000   90.00000   90.00000
LATT -1
SFAC C  
C      1  0.4929530000000  0.5467760000000  0.4289160000000 1.0
C      1  0.4928200000000  0.4501970000000  0.4656340000000 1.0
C      1  0.5344090000000  0.5144040000000  0.4810070000000 1.0
C      1  0.4787500000000  0.4645600000000  0.4430340000000 1.0
C      1  0.4993430000000  0.5498850000000  0.4780580000000 1.0
C      1  0.5676620000000  0.5164510000000  0.4742230000000 1.0
C      1  0.5872920000000  0.5164440000000  0.4931510000000 1.0
C      1  0.5364890000000  0.5067850000000  0.5483270000000 1.0
C      1  0.4858000000000  0.4639660000000  0.5351100000000 1.0
C      1  0.5544670000000  0.4790380000000  0.5043160000000 1.0
C      1  0.5131660000000  0.4229570000000  0.5200860000000 1.0
C      1  0.5129790000000  0.4507090000000  0.5238870000000 1.0
C      1  0.4368270000000  0.4791260000000  0.4937100000000 1.0
C      1  0.5401800000000  0.4634200000000  0.4566640000000 1.0
C      1  0.4631540000000  0.4698450000000  0.5112750000000 1.0
C      1  0.5224950000000  0.5406450000000  0.4908180000000 1.0
C      1  0.4446760000000  0.5261080000000  0.4744520000000 1.0
C      1  0.5113360000000  0.4969220000000  0.4946080000000 1.0
C      1  0.4803120000000  0.5631490000000  0.4943080000000 1.0
C      1  0.4597690000000  0.4845790000000  0.4498020000000 1.0
C      1  0.4405140000000  0.5356660000000  0.5050420000000 1.0
C      1  0.5197770000000  0.4863170000000  0.5583070000000 1.0
C      1  0.5224150000000  0.5307410000000  0.5419720000000 1.0
C      1  0.4756750000000  0.4683690000000  0.4827150000000 1.0
C      1  0.5199580000000  0.4531370000000  0.4725490000000 1.0
C      1  0.4907770000000  0.5257050000000  0.5463120000000 1.0
C      1  0.5819640000000  0.4973410000000  0.5134540000000 1.0
C      1  0.5526680000000  0.4871690000000  0.4713380000000 1.0
C      1  0.4998240000000  0.5069200000000  0.5196850000000 1.0
C      1  0.5279360000000  0.5453280000000  0.5182690000000 1.0
C      1  0.5565160000000  0.4986410000000  0.5315890000000 1.0
C      1  0.4681920000000  0.4980430000000  0.5283910000000 1.0
C      1  0.4874170000000  0.4939320000000  0.4769460000000 1.0
C      1  0.4426000000000  0.5129340000000  0.5287190000000 1.0
C      1  0.4704310000000  0.5143950000000  0.4603210000000 1.0
C      1  0.4628830000000  0.5538620000000  0.5141580000000 1.0
C      1  0.4273530000000  0.5038500000000  0.5027970000000 1.0
C      1  0.5254090000000  0.4604640000000  0.5518860000000 1.0
C      1  0.4380660000000  0.4753410000000  0.4657850000000 1.0
C      1  0.4894520000000  0.4922300000000  0.5542280000000 1.0
C      1  0.4892210000000  0.5373950000000  0.4543090000000 1.0
C      1  0.5239820000000  0.4671830000000  0.5003450000000 1.0
C      1  0.4720970000000  0.5490730000000  0.5394950000000 1.0
END
