TITL C-2847956-8218-451 0.00040195562801435 125000 -452.518194115911 0 0 83 (C1) n - 1
REM
REM in /home/bkarasulu/work/CARBON/AIRSS/Generating-Clusters/AIREBO/with-SteepDescent/Only-C1/SD-CG-opt/Try1-1.4A-POS3A/HFTN-CG
REM
REM
REM
REM
REM
REM ./C.cell (11c1c37f851c82e70ff6c80c92926a4b)
REM
REM compiler GCC version 9.2.1 20190827 (Red Hat 9.2.1-1)
REM options -cpp -mtune=generic -march=x86-64 -g -O0 -fpre-include=/usr/include/finclude/math-vector-fortran.h
REM seed 31434135 -2014460753 1558477416 -915007106 1702714417 -2064329723 -885218389 1883996396 -1504305488 -1632764338 2066910752 -1764623031 1362263778 -252368433 341423858 240433576 1212868566 -1650083983 -1086653563 900188005 -656538283 490768013 966667090 1526723773 1259905809 -1087929792 -1175693220 -670562765 1506630193 -905419130 1426495482 1260305375 2111243464
REM
CELL 1.54180   50.00000   50.00000   50.00000   90.00000   90.00000   90.00000
LATT -1
SFAC C  
C      1  0.5351170000000  0.5377410000000  0.5509610000000 1.0
C      1  0.5463140000000  0.4846090000000  0.4710930000000 1.0
C      1  0.4811970000000  0.4660050000000  0.4177490000000 1.0
C      1  0.4574890000000  0.5292020000000  0.5548270000000 1.0
C      1  0.4386060000000  0.4524290000000  0.5456860000000 1.0
C      1  0.4891430000000  0.5528860000000  0.4404470000000 1.0
C      1  0.5489220000000  0.4494890000000  0.5507040000000 1.0
C      1  0.4183320000000  0.5039020000000  0.5345380000000 1.0
C      1  0.6054090000000  0.5175350000000  0.5211130000000 1.0
C      1  0.5124070000000  0.4212830000000  0.5178210000000 1.0
C      1  0.4332390000000  0.5137970000000  0.4675010000000 1.0
C      1  0.5731410000000  0.5619160000000  0.5309760000000 1.0
C      1  0.5423090000000  0.5591210000000  0.5283700000000 1.0
C      1  0.4654940000000  0.4871650000000  0.5087530000000 1.0
C      1  0.4883070000000  0.5151340000000  0.5336500000000 1.0
C      1  0.4918160000000  0.5761560000000  0.5326620000000 1.0
C      1  0.5475830000000  0.4358830000000  0.4884380000000 1.0
C      1  0.5341360000000  0.4483130000000  0.4597840000000 1.0
C      1  0.5646230000000  0.4641910000000  0.4841500000000 1.0
C      1  0.5145140000000  0.4302200000000  0.4790390000000 1.0
C      1  0.5061040000000  0.5671760000000  0.4582580000000 1.0
C      1  0.5030300000000  0.5040190000000  0.5101470000000 1.0
C      1  0.4949440000000  0.4642590000000  0.4865170000000 1.0
C      1  0.4590620000000  0.4992350000000  0.4584930000000 1.0
C      1  0.5263280000000  0.4693110000000  0.4939770000000 1.0
C      1  0.4813850000000  0.4849930000000  0.5738000000000 1.0
C      1  0.4752190000000  0.5168300000000  0.4133310000000 1.0
C      1  0.5559050000000  0.4524940000000  0.4354580000000 1.0
C      1  0.4756840000000  0.5359100000000  0.4889410000000 1.0
C      1  0.4436820000000  0.5480580000000  0.5301080000000 1.0
C      1  0.5253760000000  0.4465610000000  0.5194250000000 1.0
C      1  0.5756760000000  0.4762130000000  0.5116930000000 1.0
C      1  0.4213520000000  0.4878380000000  0.4825050000000 1.0
C      1  0.5611930000000  0.5416130000000  0.4766380000000 1.0
C      1  0.5047840000000  0.4502060000000  0.4328060000000 1.0
C      1  0.5586740000000  0.4473100000000  0.5185690000000 1.0
C      1  0.5489290000000  0.4804690000000  0.4413170000000 1.0
C      1  0.5548630000000  0.5149280000000  0.5532850000000 1.0
C      1  0.4595720000000  0.4704000000000  0.4407010000000 1.0
C      1  0.4455020000000  0.4447270000000  0.5191680000000 1.0
C      1  0.4874980000000  0.4608500000000  0.5472020000000 1.0
C      1  0.5148290000000  0.5714670000000  0.5132060000000 1.0
C      1  0.5105980000000  0.4727790000000  0.4575600000000 1.0
C      1  0.4721990000000  0.4598150000000  0.5840820000000 1.0
C      1  0.4394530000000  0.5436710000000  0.4740060000000 1.0
C      1  0.4569400000000  0.4432370000000  0.4554080000000 1.0
C      1  0.5088260000000  0.5053910000000  0.4471010000000 1.0
C      1  0.5543000000000  0.4968210000000  0.5282770000000 1.0
C      1  0.4827270000000  0.4379210000000  0.4691110000000 1.0
C      1  0.4885250000000  0.4269250000000  0.5007240000000 1.0
C      1  0.4775830000000  0.4559410000000  0.5146820000000 1.0
C      1  0.4339720000000  0.4590750000000  0.4691660000000 1.0
C      1  0.4248300000000  0.5082320000000  0.5072190000000 1.0
C      1  0.5441580000000  0.5132060000000  0.4813730000000 1.0
C      1  0.5129130000000  0.4726570000000  0.4113570000000 1.0
C      1  0.5042170000000  0.5543850000000  0.4866420000000 1.0
C      1  0.5370410000000  0.5526810000000  0.4953500000000 1.0
C      1  0.5266390000000  0.4861470000000  0.5226440000000 1.0
C      1  0.4611190000000  0.4449020000000  0.5615970000000 1.0
C      1  0.4580860000000  0.5005290000000  0.5361390000000 1.0
C      1  0.5851370000000  0.5389130000000  0.5233900000000 1.0
C      1  0.5183880000000  0.4636940000000  0.5458050000000 1.0
C      1  0.5834800000000  0.5160990000000  0.4795540000000 1.0
C      1  0.4817970000000  0.5029250000000  0.4835790000000 1.0
C      1  0.5964240000000  0.4982640000000  0.5016330000000 1.0
C      1  0.4458380000000  0.5763220000000  0.4777870000000 1.0
C      1  0.4592870000000  0.4986770000000  0.4243610000000 1.0
C      1  0.5071900000000  0.5244590000000  0.5605290000000 1.0
C      1  0.5689130000000  0.5097930000000  0.5746690000000 1.0
C      1  0.4238980000000  0.5278640000000  0.5496840000000 1.0
C      1  0.4587280000000  0.5752640000000  0.5245630000000 1.0
C      1  0.4449330000000  0.5316610000000  0.5032360000000 1.0
C      1  0.4820860000000  0.5469570000000  0.5399300000000 1.0
C      1  0.4495700000000  0.5879180000000  0.5019590000000 1.0
C      1  0.4327810000000  0.4800830000000  0.5460350000000 1.0
C      1  0.5633640000000  0.5193600000000  0.5087460000000 1.0
C      1  0.5140520000000  0.5125740000000  0.4787540000000 1.0
C      1  0.5281230000000  0.4912800000000  0.4268500000000 1.0
C      1  0.4939370000000  0.5275410000000  0.4312540000000 1.0
C      1  0.5084470000000  0.5583010000000  0.5574540000000 1.0
C      1  0.4428670000000  0.4679570000000  0.4988730000000 1.0
C      1  0.4680520000000  0.5557050000000  0.4623790000000 1.0
C      1  0.4808940000000  0.5122290000000  0.5727310000000 1.0
END
