TITL C-2848509-3138-123 0.00159410013969692 125000 -889.541152716594 0 0 158 (C1) n - 1
REM
REM in /home/bkarasulu/work/CARBON/AIRSS/Generating-Clusters/AIREBO/with-SteepDescent/Only-C1/SD-CG-opt/Try1-1.4A-POS3A/HFTN-CG
REM
REM
REM
REM
REM
REM ./C.cell (11c1c37f851c82e70ff6c80c92926a4b)
REM
REM compiler GCC version 9.2.1 20190827 (Red Hat 9.2.1-1)
REM options -cpp -mtune=generic -march=x86-64 -g -O0 -fpre-include=/usr/include/finclude/math-vector-fortran.h
REM seed 388484276 -771288311 -82228579 68642603 -1274768188 1606960687 -162841116 1213245233 -1787562781 -1137127950 -882177430 -1938579157 -1105290855 1503722958 -1737511557 -61730183 -1596533126 -234454126 -1343963550 -1340556422 2096683334 -1055232908 -897056502 -1528250739 277340081 -1251051032 -1803940920 991017159 -930578561 -599907290 1651395249 -1074102490 544644558
REM
CELL 1.54180   50.00000   50.00000   50.00000   90.00000   90.00000   90.00000
LATT -1
SFAC C  
C      1  0.4308060000000  0.4654330000000  0.4345780000000 1.0
C      1  0.4844380000000  0.4221740000000  0.5661460000000 1.0
C      1  0.5547170000000  0.4579070000000  0.5354920000000 1.0
C      1  0.5079440000000  0.5195330000000  0.6019610000000 1.0
C      1  0.4703440000000  0.6050650000000  0.4873940000000 1.0
C      1  0.5163880000000  0.4897490000000  0.5097440000000 1.0
C      1  0.4433950000000  0.5647190000000  0.5725640000000 1.0
C      1  0.4856270000000  0.4993600000000  0.4408170000000 1.0
C      1  0.5590020000000  0.4145420000000  0.5551430000000 1.0
C      1  0.5287270000000  0.4573870000000  0.4200390000000 1.0
C      1  0.5464490000000  0.4977070000000  0.5433390000000 1.0
C      1  0.5377590000000  0.4957210000000  0.4853170000000 1.0
C      1  0.4468090000000  0.5148350000000  0.5584180000000 1.0
C      1  0.5549970000000  0.5967900000000  0.5530210000000 1.0
C      1  0.5835650000000  0.4813540000000  0.4567650000000 1.0
C      1  0.6006310000000  0.5243290000000  0.4817020000000 1.0
C      1  0.4144260000000  0.4401000000000  0.4738130000000 1.0
C      1  0.5083520000000  0.5823000000000  0.4583910000000 1.0
C      1  0.3988000000000  0.4431180000000  0.5005240000000 1.0
C      1  0.5159600000000  0.5327850000000  0.5467140000000 1.0
C      1  0.5717180000000  0.5199640000000  0.5217750000000 1.0
C      1  0.5214780000000  0.4873280000000  0.5613810000000 1.0
C      1  0.5830460000000  0.5286790000000  0.4329430000000 1.0
C      1  0.5934090000000  0.4363090000000  0.4665200000000 1.0
C      1  0.5947730000000  0.4873620000000  0.5204600000000 1.0
C      1  0.4682220000000  0.5713450000000  0.4835400000000 1.0
C      1  0.5280190000000  0.4779600000000  0.4609580000000 1.0
C      1  0.5305060000000  0.4810330000000  0.5899510000000 1.0
C      1  0.5713090000000  0.4362010000000  0.5171580000000 1.0
C      1  0.5161100000000  0.4693240000000  0.5359200000000 1.0
C      1  0.4186380000000  0.5209860000000  0.4318100000000 1.0
C      1  0.5186710000000  0.5017110000000  0.3610710000000 1.0
C      1  0.4393630000000  0.4359350000000  0.5525020000000 1.0
C      1  0.4555460000000  0.4902590000000  0.4538080000000 1.0
C      1  0.4437140000000  0.5775890000000  0.5265520000000 1.0
C      1  0.5233470000000  0.5637080000000  0.5375920000000 1.0
C      1  0.4718090000000  0.5330950000000  0.5556350000000 1.0
C      1  0.4961350000000  0.5637640000000  0.5824970000000 1.0
C      1  0.5537070000000  0.5216520000000  0.5973590000000 1.0
C      1  0.5728430000000  0.5594750000000  0.4655270000000 1.0
C      1  0.4779640000000  0.4599710000000  0.4896170000000 1.0
C      1  0.4739130000000  0.4091930000000  0.4299910000000 1.0
C      1  0.4585150000000  0.4586180000000  0.4417100000000 1.0
C      1  0.4580780000000  0.5483870000000  0.5037400000000 1.0
C      1  0.4864570000000  0.4184510000000  0.4594920000000 1.0
C      1  0.5019410000000  0.4566300000000  0.4657130000000 1.0
C      1  0.4737530000000  0.4912140000000  0.5784440000000 1.0
C      1  0.5548140000000  0.4698560000000  0.4474810000000 1.0
C      1  0.5773350000000  0.4659370000000  0.5036890000000 1.0
C      1  0.4030480000000  0.4876350000000  0.4642600000000 1.0
C      1  0.4625210000000  0.4631900000000  0.5347100000000 1.0
C      1  0.5298920000000  0.4389660000000  0.4691080000000 1.0
C      1  0.4110290000000  0.4599740000000  0.4543620000000 1.0
C      1  0.4055470000000  0.5196020000000  0.4880580000000 1.0
C      1  0.5309020000000  0.4100650000000  0.4322170000000 1.0
C      1  0.4373080000000  0.5788940000000  0.4715570000000 1.0
C      1  0.4991380000000  0.5707070000000  0.4970500000000 1.0
C      1  0.4635160000000  0.4608870000000  0.5869740000000 1.0
C      1  0.5018610000000  0.5268500000000  0.3986030000000 1.0
C      1  0.4536070000000  0.5698950000000  0.4262460000000 1.0
C      1  0.4510710000000  0.4827530000000  0.5560580000000 1.0
C      1  0.4841950000000  0.4461830000000  0.4410760000000 1.0
C      1  0.5824830000000  0.5118970000000  0.4609750000000 1.0
C      1  0.5430480000000  0.5236130000000  0.5651250000000 1.0
C      1  0.5422650000000  0.5131510000000  0.4347160000000 1.0
C      1  0.5104480000000  0.4019820000000  0.4445060000000 1.0
C      1  0.5091470000000  0.3743450000000  0.5155520000000 1.0
C      1  0.5748990000000  0.4805310000000  0.5442820000000 1.0
C      1  0.5021350000000  0.5267040000000  0.4524720000000 1.0
C      1  0.5507610000000  0.5181500000000  0.4672940000000 1.0
C      1  0.4479200000000  0.4228580000000  0.5233890000000 1.0
C      1  0.4998050000000  0.5377630000000  0.4917870000000 1.0
C      1  0.5189960000000  0.5515830000000  0.4683910000000 1.0
C      1  0.5873460000000  0.4845170000000  0.5708940000000 1.0
C      1  0.5721990000000  0.5364520000000  0.6103320000000 1.0
C      1  0.5486360000000  0.4617020000000  0.5959580000000 1.0
C      1  0.5699980000000  0.4932930000000  0.4279640000000 1.0
C      1  0.4114450000000  0.4902390000000  0.5030530000000 1.0
C      1  0.4240560000000  0.5011550000000  0.5790410000000 1.0
C      1  0.4402420000000  0.5267990000000  0.4061890000000 1.0
C      1  0.5719760000000  0.5525570000000  0.5311470000000 1.0
C      1  0.4518120000000  0.5994630000000  0.5104220000000 1.0
C      1  0.5074300000000  0.4801340000000  0.4339840000000 1.0
C      1  0.5300740000000  0.5854000000000  0.5575830000000 1.0
C      1  0.4736080000000  0.5315460000000  0.4001280000000 1.0
C      1  0.4866910000000  0.4276240000000  0.4885650000000 1.0
C      1  0.4485200000000  0.4687650000000  0.5042320000000 1.0
C      1  0.4814060000000  0.4216280000000  0.4092460000000 1.0
C      1  0.4625960000000  0.5924310000000  0.4400730000000 1.0
C      1  0.5739250000000  0.5295220000000  0.5543320000000 1.0
C      1  0.5595450000000  0.3869700000000  0.5164080000000 1.0
C      1  0.5143450000000  0.5394910000000  0.5800190000000 1.0
C      1  0.4539160000000  0.5196880000000  0.4707810000000 1.0
C      1  0.5695450000000  0.5532850000000  0.4377620000000 1.0
C      1  0.4980630000000  0.5619380000000  0.4334850000000 1.0
C      1  0.5357400000000  0.5988880000000  0.4698500000000 1.0
C      1  0.5795210000000  0.4648460000000  0.5885380000000 1.0
C      1  0.4085520000000  0.5242720000000  0.5651810000000 1.0
C      1  0.5090250000000  0.5020910000000  0.3862530000000 1.0
C      1  0.4327950000000  0.4949720000000  0.4286030000000 1.0
C      1  0.5169490000000  0.4343630000000  0.4952930000000 1.0
C      1  0.4265430000000  0.5594480000000  0.4589830000000 1.0
C      1  0.5443660000000  0.5610620000000  0.4278980000000 1.0
C      1  0.5410640000000  0.4863420000000  0.4138290000000 1.0
C      1  0.4364650000000  0.5260480000000  0.4956220000000 1.0
C      1  0.4167920000000  0.4739560000000  0.5766040000000 1.0
C      1  0.4050030000000  0.5477860000000  0.5070690000000 1.0
C      1  0.4011340000000  0.5035610000000  0.5464300000000 1.0
C      1  0.4834230000000  0.5076150000000  0.6033950000000 1.0
C      1  0.5359100000000  0.3743990000000  0.5116330000000 1.0
C      1  0.4847990000000  0.3851680000000  0.5107650000000 1.0
C      1  0.4186450000000  0.5621330000000  0.5256240000000 1.0
C      1  0.5107970000000  0.5872930000000  0.5778800000000 1.0
C      1  0.5462800000000  0.4376930000000  0.4414990000000 1.0
C      1  0.5072970000000  0.5206390000000  0.5167120000000 1.0
C      1  0.4593160000000  0.4369330000000  0.5726480000000 1.0
C      1  0.5200130000000  0.5372230000000  0.4255140000000 1.0
C      1  0.4701930000000  0.5577360000000  0.5742590000000 1.0
C      1  0.4534340000000  0.4988120000000  0.5194090000000 1.0
C      1  0.4819740000000  0.6000780000000  0.4595170000000 1.0
C      1  0.4681720000000  0.5565360000000  0.5335280000000 1.0
C      1  0.4760560000000  0.4363830000000  0.5363940000000 1.0
C      1  0.5313770000000  0.5046210000000  0.6051360000000 1.0
C      1  0.5929150000000  0.5115630000000  0.5721560000000 1.0
C      1  0.5461150000000  0.5615740000000  0.5124300000000 1.0
C      1  0.4005160000000  0.5159410000000  0.4545690000000 1.0
C      1  0.5763640000000  0.4260620000000  0.4475930000000 1.0
C      1  0.5562620000000  0.4916790000000  0.5109510000000 1.0
C      1  0.4366360000000  0.5266700000000  0.5293140000000 1.0
C      1  0.5728060000000  0.5836270000000  0.5370640000000 1.0
C      1  0.5356610000000  0.5855230000000  0.4383820000000 1.0
C      1  0.5477400000000  0.5491010000000  0.4810860000000 1.0
C      1  0.4507040000000  0.5417260000000  0.4450870000000 1.0
C      1  0.4728810000000  0.4089350000000  0.5078840000000 1.0
C      1  0.4771210000000  0.5575610000000  0.4560560000000 1.0
C      1  0.4947600000000  0.5080860000000  0.5577060000000 1.0
C      1  0.5986390000000  0.5134590000000  0.5066810000000 1.0
C      1  0.4208620000000  0.4569480000000  0.5523490000000 1.0
C      1  0.5672850000000  0.4110040000000  0.5284660000000 1.0
C      1  0.4245430000000  0.5475420000000  0.5533650000000 1.0
C      1  0.5358440000000  0.4395370000000  0.5556590000000 1.0
C      1  0.4951680000000  0.5687700000000  0.5267870000000 1.0
C      1  0.5292910000000  0.4452800000000  0.5167650000000 1.0
C      1  0.5978300000000  0.5525280000000  0.4774410000000 1.0
C      1  0.4647760000000  0.5187730000000  0.4273950000000 1.0
C      1  0.5278710000000  0.5815360000000  0.4932950000000 1.0
C      1  0.5905520000000  0.4611890000000  0.4769290000000 1.0
C      1  0.4839780000000  0.5144480000000  0.4775520000000 1.0
C      1  0.4984110000000  0.4480390000000  0.4124630000000 1.0
C      1  0.3892370000000  0.4680420000000  0.5058350000000 1.0
C      1  0.4322130000000  0.4396440000000  0.5030450000000 1.0
C      1  0.4257930000000  0.4847420000000  0.5333760000000 1.0
C      1  0.5621670000000  0.4392370000000  0.5763290000000 1.0
C      1  0.4335550000000  0.4825570000000  0.4783870000000 1.0
C      1  0.4913580000000  0.4882680000000  0.4903090000000 1.0
C      1  0.5066220000000  0.4391920000000  0.5488930000000 1.0
C      1  0.4821180000000  0.5011640000000  0.5269110000000 1.0
C      1  0.5025840000000  0.4795300000000  0.4003350000000 1.0
END
