TITL C-2847956-8218-9 0.00085786515351724 125000 -666.252073087489 0 0 126 (C1) n - 1
REM
REM in /home/bkarasulu/work/CARBON/AIRSS/Generating-Clusters/AIREBO/with-SteepDescent/Only-C1/SD-CG-opt/Try1-1.4A-POS3A/HFTN-CG
REM
REM
REM
REM
REM
REM ./C.cell (11c1c37f851c82e70ff6c80c92926a4b)
REM
REM compiler GCC version 9.2.1 20190827 (Red Hat 9.2.1-1)
REM options -cpp -mtune=generic -march=x86-64 -g -O0 -fpre-include=/usr/include/finclude/math-vector-fortran.h
REM seed -1010304806 -1747765517 1949887318 1122985523 -1849399461 776767976 674403679 1469918177 -301543664 1911469279 988341897 2111623241 949403008 -244531443 -988613434 1017822904 -535221525 1979023670 910665023 618609499 -642252706 -120988459 -2054382999 -100597256 -2060841744 -603296211 1569234409 -1907402654 -576507481 1227304497 1393390449 2069267754 2002540925
REM
CELL 1.54180   50.00000   50.00000   50.00000   90.00000   90.00000   90.00000
LATT -1
SFAC C  
C      1  0.5255350000000  0.5225830000000  0.4540330000000 1.0
C      1  0.5298560000000  0.4910180000000  0.5357250000000 1.0
C      1  0.4398770000000  0.6096780000000  0.5186440000000 1.0
C      1  0.5170590000000  0.4954900000000  0.5669160000000 1.0
C      1  0.5273080000000  0.5350110000000  0.5037830000000 1.0
C      1  0.4781540000000  0.4325210000000  0.4021170000000 1.0
C      1  0.5600700000000  0.4444840000000  0.5310110000000 1.0
C      1  0.4564720000000  0.4486290000000  0.5626880000000 1.0
C      1  0.4396540000000  0.4707110000000  0.5202060000000 1.0
C      1  0.4745420000000  0.5400490000000  0.4971590000000 1.0
C      1  0.4582900000000  0.5488560000000  0.4423730000000 1.0
C      1  0.5788180000000  0.5006540000000  0.5500200000000 1.0
C      1  0.4472660000000  0.4772990000000  0.4731860000000 1.0
C      1  0.4946400000000  0.5272700000000  0.4454090000000 1.0
C      1  0.4980630000000  0.5075580000000  0.4213420000000 1.0
C      1  0.4376250000000  0.4450220000000  0.4744720000000 1.0
C      1  0.5039870000000  0.5086490000000  0.5224460000000 1.0
C      1  0.5229250000000  0.4586340000000  0.4095970000000 1.0
C      1  0.5378560000000  0.4528630000000  0.5061480000000 1.0
C      1  0.5061340000000  0.4686710000000  0.5789550000000 1.0
C      1  0.4668030000000  0.5076970000000  0.4899500000000 1.0
C      1  0.4596350000000  0.5677220000000  0.4932950000000 1.0
C      1  0.4529960000000  0.4270620000000  0.4500350000000 1.0
C      1  0.5257600000000  0.5654890000000  0.5480900000000 1.0
C      1  0.5298080000000  0.5478520000000  0.4279580000000 1.0
C      1  0.4060140000000  0.5161370000000  0.5167820000000 1.0
C      1  0.5365080000000  0.5108870000000  0.5867140000000 1.0
C      1  0.4615350000000  0.4757850000000  0.4334380000000 1.0
C      1  0.5446490000000  0.5176420000000  0.4197780000000 1.0
C      1  0.4252820000000  0.5635190000000  0.5374630000000 1.0
C      1  0.4415440000000  0.4997250000000  0.5090250000000 1.0
C      1  0.4561210000000  0.4358140000000  0.5376580000000 1.0
C      1  0.5518850000000  0.4832390000000  0.4999790000000 1.0
C      1  0.4637270000000  0.4964220000000  0.5715240000000 1.0
C      1  0.4105970000000  0.5330270000000  0.4331290000000 1.0
C      1  0.5264010000000  0.5376800000000  0.5490380000000 1.0
C      1  0.5078100000000  0.5579450000000  0.4518660000000 1.0
C      1  0.5963460000000  0.4956680000000  0.5236870000000 1.0
C      1  0.4800000000000  0.4408170000000  0.5147380000000 1.0
C      1  0.5339030000000  0.4465030000000  0.5610550000000 1.0
C      1  0.5180320000000  0.5888680000000  0.4599780000000 1.0
C      1  0.4920020000000  0.5143500000000  0.4724280000000 1.0
C      1  0.4764390000000  0.5625380000000  0.4641890000000 1.0
C      1  0.4984220000000  0.5782330000000  0.5523580000000 1.0
C      1  0.5453650000000  0.4584120000000  0.4284440000000 1.0
C      1  0.5153070000000  0.5091650000000  0.4902810000000 1.0
C      1  0.5206910000000  0.4445290000000  0.5343190000000 1.0
C      1  0.5793910000000  0.5575700000000  0.4841960000000 1.0
C      1  0.5710840000000  0.5104800000000  0.5067620000000 1.0
C      1  0.5611690000000  0.4784700000000  0.5312380000000 1.0
C      1  0.4583220000000  0.4276960000000  0.4951910000000 1.0
C      1  0.4810340000000  0.5569210000000  0.4222720000000 1.0
C      1  0.4219410000000  0.4504860000000  0.5041410000000 1.0
C      1  0.5555100000000  0.5697650000000  0.4775230000000 1.0
C      1  0.5593880000000  0.5372030000000  0.4386610000000 1.0
C      1  0.4710680000000  0.5679520000000  0.5253280000000 1.0
C      1  0.4900780000000  0.4639450000000  0.4490490000000 1.0
C      1  0.4104940000000  0.4519890000000  0.4544970000000 1.0
C      1  0.4827220000000  0.5401990000000  0.5782650000000 1.0
C      1  0.5621570000000  0.4527210000000  0.5617340000000 1.0
C      1  0.5893900000000  0.4667430000000  0.5159770000000 1.0
C      1  0.5868550000000  0.4986440000000  0.4790290000000 1.0
C      1  0.5354360000000  0.5916090000000  0.4830130000000 1.0
C      1  0.5888370000000  0.4410390000000  0.5037130000000 1.0
C      1  0.4228690000000  0.5379310000000  0.5259730000000 1.0
C      1  0.4114180000000  0.4861450000000  0.4584540000000 1.0
C      1  0.4786730000000  0.4789540000000  0.5926220000000 1.0
C      1  0.5487440000000  0.5754710000000  0.5321970000000 1.0
C      1  0.4999970000000  0.4348830000000  0.4643100000000 1.0
C      1  0.4238260000000  0.4795320000000  0.5449290000000 1.0
C      1  0.4777240000000  0.4491660000000  0.5811960000000 1.0
C      1  0.4778810000000  0.4778530000000  0.4775880000000 1.0
C      1  0.5319420000000  0.5487560000000  0.4747700000000 1.0
C      1  0.4667850000000  0.5939630000000  0.4732460000000 1.0
C      1  0.4366790000000  0.4884370000000  0.4356850000000 1.0
C      1  0.4592540000000  0.5241460000000  0.5811850000000 1.0
C      1  0.5529420000000  0.5289770000000  0.5808990000000 1.0
C      1  0.5635220000000  0.5266730000000  0.4640650000000 1.0
C      1  0.5687900000000  0.5540310000000  0.5330880000000 1.0
C      1  0.4764450000000  0.4988180000000  0.5399120000000 1.0
C      1  0.4021290000000  0.4960580000000  0.5371690000000 1.0
C      1  0.5459680000000  0.4903630000000  0.4400590000000 1.0
C      1  0.4148780000000  0.5030370000000  0.4877910000000 1.0
C      1  0.5456660000000  0.5199520000000  0.5273320000000 1.0
C      1  0.4421890000000  0.4737710000000  0.5651210000000 1.0
C      1  0.4754820000000  0.4153950000000  0.4608310000000 1.0
C      1  0.4442260000000  0.5840490000000  0.5263430000000 1.0
C      1  0.5261560000000  0.4128630000000  0.5251850000000 1.0
C      1  0.5223870000000  0.4112540000000  0.4742200000000 1.0
C      1  0.5381960000000  0.4119220000000  0.4985160000000 1.0
C      1  0.5138410000000  0.4355480000000  0.5804350000000 1.0
C      1  0.5136190000000  0.4124510000000  0.5567250000000 1.0
C      1  0.5659310000000  0.5286870000000  0.5532190000000 1.0
C      1  0.4472460000000  0.5662690000000  0.5618250000000 1.0
C      1  0.4414140000000  0.5104480000000  0.4683310000000 1.0
C      1  0.4773580000000  0.5386550000000  0.5386970000000 1.0
C      1  0.4675570000000  0.4013380000000  0.4857430000000 1.0
C      1  0.5762540000000  0.4860320000000  0.4549650000000 1.0
C      1  0.4979190000000  0.5841670000000  0.4325750000000 1.0
C      1  0.4803830000000  0.5291020000000  0.4082180000000 1.0
C      1  0.5076550000000  0.4400590000000  0.4970470000000 1.0
C      1  0.5034310000000  0.4710960000000  0.4911240000000 1.0
C      1  0.4040040000000  0.4645730000000  0.4836700000000 1.0
C      1  0.5273860000000  0.4705970000000  0.4718600000000 1.0
C      1  0.5780100000000  0.4745660000000  0.5689860000000 1.0
C      1  0.5021350000000  0.5783830000000  0.5185370000000 1.0
C      1  0.5607230000000  0.4442360000000  0.4473240000000 1.0
C      1  0.5429450000000  0.5008410000000  0.4722840000000 1.0
C      1  0.4376290000000  0.5224170000000  0.4367290000000 1.0
C      1  0.4742420000000  0.4480660000000  0.4234780000000 1.0
C      1  0.4997450000000  0.5483370000000  0.5059380000000 1.0
C      1  0.5786640000000  0.5431170000000  0.5096140000000 1.0
C      1  0.5657410000000  0.4264320000000  0.4954710000000 1.0
C      1  0.5468790000000  0.4432800000000  0.4747810000000 1.0
C      1  0.4720400000000  0.4704460000000  0.5253190000000 1.0
C      1  0.4317450000000  0.4307170000000  0.5265510000000 1.0
C      1  0.5927160000000  0.5297310000000  0.4748290000000 1.0
C      1  0.4768960000000  0.5667030000000  0.5671360000000 1.0
C      1  0.5062720000000  0.4694600000000  0.5240390000000 1.0
C      1  0.5851910000000  0.4590580000000  0.4497290000000 1.0
C      1  0.5134490000000  0.4822000000000  0.4322030000000 1.0
C      1  0.4403440000000  0.5363020000000  0.5636120000000 1.0
C      1  0.5008360000000  0.5242860000000  0.5587200000000 1.0
C      1  0.4495880000000  0.5192640000000  0.5356630000000 1.0
C      1  0.4529330000000  0.5204880000000  0.4064270000000 1.0
C      1  0.5299180000000  0.5884370000000  0.5114940000000 1.0
END
