TITL C-2848509-3138-58 0.000708676193738274 125000 -903.647022079842 0 0 171 (C1) n - 1
REM
REM in /home/bkarasulu/work/CARBON/AIRSS/Generating-Clusters/AIREBO/with-SteepDescent/Only-C1/SD-CG-opt/Try1-1.4A-POS3A/HFTN-CG
REM
REM
REM
REM
REM
REM ./C.cell (11c1c37f851c82e70ff6c80c92926a4b)
REM
REM compiler GCC version 9.2.1 20190827 (Red Hat 9.2.1-1)
REM options -cpp -mtune=generic -march=x86-64 -g -O0 -fpre-include=/usr/include/finclude/math-vector-fortran.h
REM seed -1989718979 -730985029 148686050 -1738039793 -543146820 433309882 876196934 -1773206257 -2035428803 -1304609960 -11161186 419866110 -291042490 -775246004 1612558978 474374015 -525408157 -18918915 -307796738 333868463 661603611 -2027268682 -261866041 -1556685627 271381700 1698043125 1915258583 -1832040044 -1664130049 1081392147 990031599 624945264 -628162779
REM
CELL 1.54180   50.00000   50.00000   50.00000   90.00000   90.00000   90.00000
LATT -1
SFAC C  
C      1  0.5659750000000  0.5355220000000  0.5823040000000 1.0
C      1  0.4217270000000  0.4937220000000  0.5279100000000 1.0
C      1  0.4219920000000  0.4399820000000  0.4489040000000 1.0
C      1  0.4156540000000  0.5398190000000  0.5666380000000 1.0
C      1  0.5438730000000  0.5334390000000  0.4091410000000 1.0
C      1  0.5292890000000  0.5821840000000  0.4675770000000 1.0
C      1  0.5054280000000  0.5421120000000  0.6122010000000 1.0
C      1  0.5235520000000  0.5102430000000  0.5549640000000 1.0
C      1  0.5364590000000  0.6158240000000  0.5057170000000 1.0
C      1  0.4631550000000  0.5805760000000  0.5406420000000 1.0
C      1  0.4607790000000  0.5104170000000  0.3934730000000 1.0
C      1  0.4423460000000  0.4141370000000  0.4919610000000 1.0
C      1  0.5344980000000  0.5774080000000  0.5487490000000 1.0
C      1  0.4898440000000  0.3954050000000  0.5073660000000 1.0
C      1  0.4719820000000  0.4656460000000  0.4485950000000 1.0
C      1  0.4555650000000  0.5626400000000  0.4386400000000 1.0
C      1  0.5400090000000  0.4880690000000  0.5723210000000 1.0
C      1  0.4893280000000  0.4320130000000  0.5229290000000 1.0
C      1  0.4931700000000  0.5410700000000  0.4624250000000 1.0
C      1  0.4779970000000  0.5214450000000  0.5446110000000 1.0
C      1  0.4844550000000  0.5775860000000  0.4328230000000 1.0
C      1  0.4206400000000  0.4206350000000  0.5380100000000 1.0
C      1  0.4548080000000  0.5261880000000  0.5860340000000 1.0
C      1  0.3984600000000  0.4856820000000  0.4584840000000 1.0
C      1  0.4150650000000  0.4600220000000  0.4994640000000 1.0
C      1  0.5128370000000  0.4885660000000  0.3935550000000 1.0
C      1  0.5406780000000  0.4021090000000  0.5136350000000 1.0
C      1  0.4553020000000  0.4563070000000  0.5231350000000 1.0
C      1  0.4738530000000  0.4218110000000  0.4431870000000 1.0
C      1  0.4875520000000  0.5085190000000  0.5722310000000 1.0
C      1  0.5264410000000  0.4941620000000  0.4304630000000 1.0
C      1  0.6009890000000  0.5437310000000  0.4688070000000 1.0
C      1  0.3886380000000  0.5059820000000  0.4795510000000 1.0
C      1  0.4855510000000  0.4715650000000  0.5261660000000 1.0
C      1  0.5323080000000  0.4101850000000  0.5455850000000 1.0
C      1  0.4281640000000  0.5290050000000  0.5104720000000 1.0
C      1  0.5823920000000  0.4132970000000  0.5300270000000 1.0
C      1  0.5186880000000  0.4161960000000  0.4678450000000 1.0
C      1  0.4616790000000  0.5561550000000  0.5814030000000 1.0
C      1  0.4777810000000  0.4463130000000  0.4292690000000 1.0
C      1  0.4762660000000  0.5051880000000  0.4459220000000 1.0
C      1  0.4857550000000  0.4796630000000  0.4931370000000 1.0
C      1  0.3906180000000  0.4739800000000  0.5185670000000 1.0
C      1  0.4222070000000  0.4147740000000  0.4653340000000 1.0
C      1  0.4375580000000  0.4501780000000  0.4756420000000 1.0
C      1  0.4343540000000  0.5756160000000  0.4989470000000 1.0
C      1  0.4098710000000  0.4703260000000  0.5463980000000 1.0
C      1  0.5241280000000  0.4943030000000  0.6081210000000 1.0
C      1  0.5956910000000  0.5179940000000  0.4804590000000 1.0
C      1  0.4648810000000  0.4841190000000  0.5500890000000 1.0
C      1  0.3985580000000  0.5408030000000  0.5211500000000 1.0
C      1  0.4195760000000  0.5270220000000  0.4326210000000 1.0
C      1  0.4620400000000  0.5090660000000  0.5173930000000 1.0
C      1  0.5551160000000  0.5207640000000  0.4386250000000 1.0
C      1  0.4512100000000  0.4713060000000  0.5783900000000 1.0
C      1  0.6002800000000  0.4549380000000  0.4724860000000 1.0
C      1  0.5869740000000  0.4542770000000  0.4987520000000 1.0
C      1  0.4643500000000  0.5889450000000  0.4899440000000 1.0
C      1  0.5029750000000  0.5793480000000  0.5406770000000 1.0
C      1  0.5290810000000  0.5703760000000  0.4369180000000 1.0
C      1  0.5869390000000  0.4770990000000  0.4541180000000 1.0
C      1  0.4876680000000  0.4335870000000  0.5673700000000 1.0
C      1  0.5852360000000  0.4550160000000  0.5477970000000 1.0
C      1  0.5292100000000  0.5082370000000  0.4884780000000 1.0
C      1  0.4229260000000  0.5550140000000  0.4328530000000 1.0
C      1  0.4659940000000  0.5314930000000  0.4269600000000 1.0
C      1  0.4602030000000  0.4712290000000  0.4795410000000 1.0
C      1  0.5655830000000  0.5644380000000  0.5020570000000 1.0
C      1  0.3945270000000  0.5076410000000  0.5129960000000 1.0
C      1  0.5869820000000  0.5656150000000  0.4756580000000 1.0
C      1  0.5774900000000  0.4287590000000  0.5521390000000 1.0
C      1  0.5347550000000  0.4599670000000  0.5538910000000 1.0
C      1  0.5299060000000  0.5391800000000  0.5380030000000 1.0
C      1  0.5471800000000  0.4732200000000  0.4134920000000 1.0
C      1  0.4320280000000  0.5615660000000  0.5696750000000 1.0
C      1  0.4626780000000  0.5488190000000  0.4753610000000 1.0
C      1  0.4253450000000  0.5147620000000  0.4614560000000 1.0
C      1  0.4491680000000  0.4847300000000  0.4436250000000 1.0
C      1  0.5878880000000  0.5232850000000  0.5641950000000 1.0
C      1  0.5088110000000  0.4749970000000  0.4706850000000 1.0
C      1  0.4501910000000  0.5117770000000  0.5581170000000 1.0
C      1  0.5398820000000  0.4351370000000  0.5132160000000 1.0
C      1  0.4823450000000  0.5525660000000  0.5388430000000 1.0
C      1  0.4870670000000  0.4577680000000  0.4044580000000 1.0
C      1  0.5148050000000  0.4541780000000  0.5269500000000 1.0
C      1  0.5756610000000  0.4127440000000  0.4749410000000 1.0
C      1  0.5206030000000  0.4578760000000  0.3986400000000 1.0
C      1  0.6094410000000  0.5089700000000  0.5038760000000 1.0
C      1  0.5071100000000  0.4557420000000  0.5719230000000 1.0
C      1  0.4962170000000  0.5748610000000  0.4646390000000 1.0
C      1  0.5719830000000  0.4278560000000  0.5044640000000 1.0
C      1  0.4921180000000  0.5070100000000  0.5090400000000 1.0
C      1  0.5593600000000  0.5031760000000  0.4097540000000 1.0
C      1  0.5022350000000  0.5082350000000  0.4677270000000 1.0
C      1  0.5371330000000  0.4650920000000  0.5965470000000 1.0
C      1  0.5122910000000  0.6093470000000  0.5029930000000 1.0
C      1  0.4657380000000  0.4952890000000  0.5940430000000 1.0
C      1  0.5985840000000  0.4669550000000  0.5244510000000 1.0
C      1  0.5631270000000  0.5103910000000  0.4866670000000 1.0
C      1  0.5405080000000  0.5130970000000  0.5190550000000 1.0
C      1  0.4229610000000  0.4711820000000  0.4449220000000 1.0
C      1  0.5225790000000  0.4812460000000  0.5078910000000 1.0
C      1  0.4819720000000  0.5801890000000  0.5674940000000 1.0
C      1  0.5360840000000  0.5579170000000  0.4892600000000 1.0
C      1  0.4598190000000  0.4263630000000  0.5491710000000 1.0
C      1  0.4201350000000  0.4736080000000  0.5762870000000 1.0
C      1  0.5145160000000  0.5256240000000  0.5839130000000 1.0
C      1  0.4093030000000  0.5309480000000  0.4841210000000 1.0
C      1  0.5113940000000  0.5469450000000  0.4343170000000 1.0
C      1  0.4880740000000  0.5383410000000  0.5098960000000 1.0
C      1  0.5241400000000  0.5212920000000  0.4463510000000 1.0
C      1  0.4896520000000  0.5695610000000  0.4050960000000 1.0
C      1  0.6014010000000  0.5478320000000  0.5084190000000 1.0
C      1  0.4083700000000  0.5598670000000  0.4731250000000 1.0
C      1  0.5195380000000  0.5542410000000  0.5666730000000 1.0
C      1  0.5463500000000  0.4403160000000  0.5912820000000 1.0
C      1  0.4562380000000  0.5384140000000  0.5038860000000 1.0
C      1  0.4583550000000  0.4420000000000  0.5793280000000 1.0
C      1  0.4623000000000  0.4273060000000  0.4706290000000 1.0
C      1  0.4455850000000  0.4846990000000  0.5071490000000 1.0
C      1  0.4546860000000  0.5216660000000  0.4640890000000 1.0
C      1  0.5920000000000  0.4469940000000  0.4425650000000 1.0
C      1  0.4313670000000  0.4344620000000  0.5117200000000 1.0
C      1  0.5139530000000  0.5589070000000  0.5152530000000 1.0
C      1  0.5132650000000  0.3885550000000  0.5268640000000 1.0
C      1  0.4676580000000  0.5928130000000  0.4581640000000 1.0
C      1  0.4968150000000  0.5825290000000  0.4977630000000 1.0
C      1  0.4945530000000  0.5597340000000  0.5893080000000 1.0
C      1  0.5620410000000  0.4877210000000  0.4613470000000 1.0
C      1  0.5222780000000  0.4205900000000  0.4360610000000 1.0
C      1  0.4910670000000  0.4913070000000  0.6163830000000 1.0
C      1  0.5605730000000  0.4524350000000  0.4369980000000 1.0
C      1  0.5456450000000  0.5157210000000  0.5926780000000 1.0
C      1  0.4235880000000  0.4872190000000  0.4813410000000 1.0
C      1  0.4952210000000  0.4923040000000  0.4223970000000 1.0
C      1  0.5580320000000  0.5631780000000  0.4485140000000 1.0
C      1  0.5606250000000  0.5776060000000  0.5330180000000 1.0
C      1  0.5534450000000  0.4372930000000  0.4666250000000 1.0
C      1  0.5103400000000  0.5354790000000  0.4046400000000 1.0
C      1  0.4734790000000  0.4858000000000  0.3984690000000 1.0
C      1  0.5216780000000  0.4473340000000  0.4293910000000 1.0
C      1  0.5270580000000  0.5127800000000  0.3874530000000 1.0
C      1  0.5540370000000  0.5374860000000  0.4682280000000 1.0
C      1  0.4688390000000  0.6013640000000  0.5192430000000 1.0
C      1  0.4208190000000  0.5665530000000  0.5216260000000 1.0
C      1  0.5349890000000  0.4697320000000  0.4512510000000 1.0
C      1  0.4803740000000  0.5379880000000  0.3976230000000 1.0
C      1  0.4866180000000  0.4249710000000  0.4908780000000 1.0
C      1  0.5959430000000  0.4945240000000  0.5238330000000 1.0
C      1  0.5438980000000  0.4091170000000  0.4831090000000 1.0
C      1  0.4390970000000  0.5187180000000  0.4135790000000 1.0
C      1  0.4623050000000  0.4104210000000  0.5192350000000 1.0
C      1  0.5599870000000  0.4709070000000  0.5338670000000 1.0
C      1  0.4997140000000  0.4129500000000  0.5466590000000 1.0
C      1  0.5078510000000  0.4964670000000  0.5344920000000 1.0
C      1  0.4344350000000  0.5746710000000  0.5453090000000 1.0
C      1  0.5668730000000  0.5021980000000  0.5339890000000 1.0
C      1  0.5485030000000  0.4296650000000  0.5609830000000 1.0
C      1  0.4251290000000  0.5210960000000  0.5434200000000 1.0
C      1  0.5108960000000  0.4438780000000  0.4812470000000 1.0
C      1  0.5640680000000  0.5350040000000  0.5424820000000 1.0
C      1  0.5644850000000  0.4796690000000  0.5012470000000 1.0
C      1  0.5020270000000  0.4809700000000  0.5861630000000 1.0
C      1  0.4964460000000  0.4058630000000  0.4449190000000 1.0
C      1  0.4340280000000  0.4485240000000  0.5484920000000 1.0
C      1  0.5629740000000  0.5886700000000  0.4704700000000 1.0
C      1  0.4383240000000  0.5699500000000  0.4664470000000 1.0
C      1  0.5690280000000  0.5625100000000  0.5618460000000 1.0
C      1  0.5593290000000  0.5982660000000  0.5025010000000 1.0
C      1  0.5403020000000  0.4589280000000  0.4893420000000 1.0
C      1  0.5732450000000  0.5332290000000  0.5097870000000 1.0
END
