TITL C-2847950-6905-159 0.00116198162675686 125000 -488.920754283216 0 0 92 (C1) n - 1
REM
REM in /home/bkarasulu/work/CARBON/AIRSS/Generating-Clusters/AIREBO/with-SteepDescent/Only-C1/SD-CG-opt/Try1-1.4A-POS3A/HFTN-CG
REM
REM
REM
REM
REM
REM ./C.cell (11c1c37f851c82e70ff6c80c92926a4b)
REM
REM compiler GCC version 9.2.1 20190827 (Red Hat 9.2.1-1)
REM options -cpp -mtune=generic -march=x86-64 -g -O0 -fpre-include=/usr/include/finclude/math-vector-fortran.h
REM seed 296071008 -36817623 1095639890 -1889474544 1821544910 -1206857575 -1460529269 -103509612 893108041 804128298 515661511 1161079584 967358195 -1486172676 -69689274 1954373135 1828227958 -1329441278 -439053135 -345359846 893204115 -1029309158 -992298577 274487572 -1524093475 2108175696 1215585419 -1950057488 233891226 -828663081 1710631381 -1997994765 2087622658
REM
CELL 1.54180   50.00000   50.00000   50.00000   90.00000   90.00000   90.00000
LATT -1
SFAC C  
C      1  0.4664220000000  0.4899560000000  0.5624680000000 1.0
C      1  0.5815700000000  0.5080870000000  0.4972360000000 1.0
C      1  0.5735820000000  0.4568250000000  0.5024210000000 1.0
C      1  0.5130740000000  0.5122270000000  0.5734750000000 1.0
C      1  0.4384860000000  0.5449630000000  0.4811060000000 1.0
C      1  0.4718390000000  0.4702260000000  0.4940090000000 1.0
C      1  0.5196510000000  0.5533910000000  0.4520850000000 1.0
C      1  0.5405420000000  0.5578010000000  0.5280300000000 1.0
C      1  0.4581140000000  0.5863060000000  0.4730430000000 1.0
C      1  0.4775220000000  0.4436550000000  0.4286560000000 1.0
C      1  0.4720560000000  0.4966760000000  0.4231000000000 1.0
C      1  0.4466330000000  0.4674490000000  0.4713560000000 1.0
C      1  0.5272130000000  0.4794310000000  0.5211150000000 1.0
C      1  0.4480050000000  0.5009820000000  0.4718420000000 1.0
C      1  0.4315680000000  0.5437870000000  0.5268740000000 1.0
C      1  0.4776170000000  0.5338530000000  0.5348970000000 1.0
C      1  0.5135040000000  0.5754660000000  0.4757980000000 1.0
C      1  0.4518380000000  0.5638130000000  0.5289100000000 1.0
C      1  0.4331640000000  0.4448760000000  0.4927560000000 1.0
C      1  0.5531810000000  0.5226080000000  0.4356750000000 1.0
C      1  0.4326840000000  0.4864690000000  0.5236530000000 1.0
C      1  0.5256980000000  0.4560410000000  0.4969450000000 1.0
C      1  0.4828870000000  0.5723520000000  0.5422930000000 1.0
C      1  0.5377530000000  0.5180610000000  0.5269150000000 1.0
C      1  0.4807910000000  0.5063720000000  0.4645580000000 1.0
C      1  0.4181300000000  0.4877170000000  0.5533080000000 1.0
C      1  0.5122120000000  0.5551640000000  0.5409700000000 1.0
C      1  0.5757230000000  0.5063470000000  0.5297080000000 1.0
C      1  0.4975400000000  0.4246320000000  0.5639540000000 1.0
C      1  0.5626060000000  0.4952100000000  0.4522990000000 1.0
C      1  0.5589830000000  0.5258950000000  0.5739680000000 1.0
C      1  0.5493690000000  0.4518600000000  0.4801490000000 1.0
C      1  0.5079580000000  0.5214830000000  0.5429360000000 1.0
C      1  0.5515180000000  0.5143370000000  0.4989220000000 1.0
C      1  0.5375390000000  0.4974720000000  0.4747710000000 1.0
C      1  0.4159560000000  0.4266790000000  0.4858340000000 1.0
C      1  0.4910090000000  0.4767540000000  0.4596980000000 1.0
C      1  0.4858020000000  0.4554550000000  0.5574390000000 1.0
C      1  0.4252630000000  0.5324000000000  0.5018430000000 1.0
C      1  0.4790510000000  0.4641620000000  0.5252700000000 1.0
C      1  0.4520170000000  0.4540150000000  0.5527940000000 1.0
C      1  0.5224840000000  0.4405020000000  0.5490050000000 1.0
C      1  0.5235750000000  0.4716040000000  0.5540170000000 1.0
C      1  0.5334730000000  0.5245830000000  0.5860730000000 1.0
C      1  0.5516650000000  0.4787710000000  0.5664770000000 1.0
C      1  0.5885760000000  0.5079480000000  0.4701960000000 1.0
C      1  0.5613050000000  0.5349410000000  0.5424900000000 1.0
C      1  0.5609800000000  0.4774530000000  0.5246290000000 1.0
C      1  0.5185040000000  0.4903330000000  0.4495270000000 1.0
C      1  0.5074690000000  0.4289420000000  0.5018980000000 1.0
C      1  0.5183110000000  0.4704140000000  0.4224390000000 1.0
C      1  0.4976710000000  0.4553270000000  0.4823630000000 1.0
C      1  0.5154230000000  0.5492900000000  0.4970760000000 1.0
C      1  0.5022470000000  0.4437560000000  0.4228140000000 1.0
C      1  0.4258690000000  0.5016120000000  0.4975520000000 1.0
C      1  0.5625580000000  0.4253020000000  0.5067820000000 1.0
C      1  0.5518770000000  0.4494730000000  0.5367820000000 1.0
C      1  0.5480440000000  0.5446990000000  0.4975640000000 1.0
C      1  0.4765780000000  0.4996690000000  0.5071900000000 1.0
C      1  0.5488550000000  0.5482870000000  0.4489530000000 1.0
C      1  0.4680230000000  0.5502880000000  0.5628840000000 1.0
C      1  0.4478610000000  0.5091620000000  0.4421410000000 1.0
C      1  0.5127550000000  0.5137800000000  0.3974450000000 1.0
C      1  0.4848340000000  0.5544290000000  0.4460420000000 1.0
C      1  0.4408190000000  0.4540970000000  0.5206820000000 1.0
C      1  0.4392650000000  0.4769880000000  0.5689210000000 1.0
C      1  0.5620920000000  0.5548400000000  0.4720010000000 1.0
C      1  0.4641150000000  0.4692710000000  0.4420600000000 1.0
C      1  0.5390370000000  0.4185560000000  0.5006520000000 1.0
C      1  0.5527500000000  0.4465130000000  0.4487970000000 1.0
C      1  0.4956930000000  0.5255430000000  0.4959130000000 1.0
C      1  0.4968810000000  0.4847920000000  0.5704790000000 1.0
C      1  0.4975770000000  0.4290490000000  0.5298050000000 1.0
C      1  0.5007310000000  0.5260080000000  0.4506450000000 1.0
C      1  0.5233280000000  0.5159470000000  0.4282870000000 1.0
C      1  0.5304820000000  0.5797700000000  0.5041100000000 1.0
C      1  0.4580810000000  0.5060230000000  0.5350120000000 1.0
C      1  0.4445330000000  0.5395010000000  0.5717360000000 1.0
C      1  0.4146290000000  0.4797240000000  0.4740840000000 1.0
C      1  0.5148960000000  0.4994210000000  0.4965150000000 1.0
C      1  0.4985160000000  0.4909730000000  0.4095000000000 1.0
C      1  0.4660040000000  0.4332610000000  0.5308460000000 1.0
C      1  0.5759430000000  0.4701560000000  0.4710390000000 1.0
C      1  0.5672720000000  0.5002930000000  0.5611350000000 1.0
C      1  0.4347210000000  0.5713180000000  0.4717210000000 1.0
C      1  0.4971430000000  0.4916440000000  0.5312510000000 1.0
C      1  0.5489400000000  0.4700950000000  0.4335780000000 1.0
C      1  0.4824230000000  0.5652840000000  0.4781950000000 1.0
C      1  0.4339110000000  0.5254740000000  0.5489350000000 1.0
C      1  0.4678770000000  0.5345510000000  0.4785460000000 1.0
C      1  0.4679220000000  0.5305450000000  0.4287240000000 1.0
C      1  0.4794130000000  0.5585490000000  0.5114100000000 1.0
END
