TITL C-2847948-6138-442 0.00130497133233659 125000 -588.383877213084 0 0 111 (C1) n - 1
REM
REM in /home/bkarasulu/work/CARBON/AIRSS/Generating-Clusters/AIREBO/with-SteepDescent/Only-C1/SD-CG-opt/Try1-1.4A-POS3A/HFTN-CG
REM
REM
REM
REM
REM
REM ./C.cell (11c1c37f851c82e70ff6c80c92926a4b)
REM
REM compiler GCC version 9.2.1 20190827 (Red Hat 9.2.1-1)
REM options -cpp -mtune=generic -march=x86-64 -g -O0 -fpre-include=/usr/include/finclude/math-vector-fortran.h
REM seed 2037676705 -1600069445 -1638740072 774370337 -1614114276 1879695151 -860851397 -27650991 -1802632143 663587063 -383247847 -165930096 1604101414 -1671404611 -668145020 -1560479484 -1832188561 -926175832 -599363028 -1241870264 -2075238309 757024453 666000178 -905742467 -507796127 -1125063558 -1431288731 -741627816 -104560235 47818519 649312979 36042685 -584828712
REM
CELL 1.54180   50.00000   50.00000   50.00000   90.00000   90.00000   90.00000
LATT -1
SFAC C  
C      1  0.4956460000000  0.4923730000000  0.4266830000000 1.0
C      1  0.4313180000000  0.5567450000000  0.5340640000000 1.0
C      1  0.4484540000000  0.5123970000000  0.4810830000000 1.0
C      1  0.4791990000000  0.4398910000000  0.4400420000000 1.0
C      1  0.5317810000000  0.5739160000000  0.4890180000000 1.0
C      1  0.5111250000000  0.4355470000000  0.4506160000000 1.0
C      1  0.4565800000000  0.5559710000000  0.4906060000000 1.0
C      1  0.5369360000000  0.4749310000000  0.5837880000000 1.0
C      1  0.5830490000000  0.4998040000000  0.5132370000000 1.0
C      1  0.4432080000000  0.4861970000000  0.4966030000000 1.0
C      1  0.5245010000000  0.4654290000000  0.4598300000000 1.0
C      1  0.4448220000000  0.4303590000000  0.4854590000000 1.0
C      1  0.5503710000000  0.5482130000000  0.4968950000000 1.0
C      1  0.5478140000000  0.5457220000000  0.4657610000000 1.0
C      1  0.5793810000000  0.5214520000000  0.5393380000000 1.0
C      1  0.5662130000000  0.5056670000000  0.5611220000000 1.0
C      1  0.4789680000000  0.4902290000000  0.5887450000000 1.0
C      1  0.4490030000000  0.4400320000000  0.4561950000000 1.0
C      1  0.4414490000000  0.4711690000000  0.5454810000000 1.0
C      1  0.5361520000000  0.4277010000000  0.5496550000000 1.0
C      1  0.4966980000000  0.4356910000000  0.5145050000000 1.0
C      1  0.5084160000000  0.5798210000000  0.4440200000000 1.0
C      1  0.4886130000000  0.5534670000000  0.5295100000000 1.0
C      1  0.5131570000000  0.5966740000000  0.5040340000000 1.0
C      1  0.4862410000000  0.5198560000000  0.5844200000000 1.0
C      1  0.4612930000000  0.5731340000000  0.5343190000000 1.0
C      1  0.5400230000000  0.4289220000000  0.4610560000000 1.0
C      1  0.4698400000000  0.4751020000000  0.5101280000000 1.0
C      1  0.5322850000000  0.4252740000000  0.4933670000000 1.0
C      1  0.4265760000000  0.4868540000000  0.4602550000000 1.0
C      1  0.4774800000000  0.4871500000000  0.5392430000000 1.0
C      1  0.5622100000000  0.4524130000000  0.4571430000000 1.0
C      1  0.4575800000000  0.4728340000000  0.4589380000000 1.0
C      1  0.5688770000000  0.4803340000000  0.4532850000000 1.0
C      1  0.4835490000000  0.5282880000000  0.4608210000000 1.0
C      1  0.4467610000000  0.5084420000000  0.4468570000000 1.0
C      1  0.5590630000000  0.5656640000000  0.5207620000000 1.0
C      1  0.4629390000000  0.5265660000000  0.5064700000000 1.0
C      1  0.5445300000000  0.4519770000000  0.5292440000000 1.0
C      1  0.5036850000000  0.5651450000000  0.4746070000000 1.0
C      1  0.4525120000000  0.4858910000000  0.5826860000000 1.0
C      1  0.4655200000000  0.4065760000000  0.4962610000000 1.0
C      1  0.4439140000000  0.5017950000000  0.5551600000000 1.0
C      1  0.5009240000000  0.4796960000000  0.5026490000000 1.0
C      1  0.4842970000000  0.6033830000000  0.4879360000000 1.0
C      1  0.5641510000000  0.4258330000000  0.5054110000000 1.0
C      1  0.5127330000000  0.5427640000000  0.5086910000000 1.0
C      1  0.4285820000000  0.5398290000000  0.4781480000000 1.0
C      1  0.5435890000000  0.4697860000000  0.4998550000000 1.0
C      1  0.5236610000000  0.4181530000000  0.5248140000000 1.0
C      1  0.5449370000000  0.5442960000000  0.5584630000000 1.0
C      1  0.5928810000000  0.4708000000000  0.5232600000000 1.0
C      1  0.5375220000000  0.5716800000000  0.4546260000000 1.0
C      1  0.4563380000000  0.5449100000000  0.4591800000000 1.0
C      1  0.5351650000000  0.4689610000000  0.4052130000000 1.0
C      1  0.5486750000000  0.4881760000000  0.5451930000000 1.0
C      1  0.5155680000000  0.5332820000000  0.4209120000000 1.0
C      1  0.4195170000000  0.4412780000000  0.5023850000000 1.0
C      1  0.5512220000000  0.4948570000000  0.5161530000000 1.0
C      1  0.5378170000000  0.4926260000000  0.4753210000000 1.0
C      1  0.4834860000000  0.4945230000000  0.4542040000000 1.0
C      1  0.4651340000000  0.4451930000000  0.5061640000000 1.0
C      1  0.4808700000000  0.4638100000000  0.4197300000000 1.0
C      1  0.5139980000000  0.4668920000000  0.4272390000000 1.0
C      1  0.5409870000000  0.5874740000000  0.5254860000000 1.0
C      1  0.4247700000000  0.4698140000000  0.5201260000000 1.0
C      1  0.5050160000000  0.5005220000000  0.4796270000000 1.0
C      1  0.5455200000000  0.5195300000000  0.4559510000000 1.0
C      1  0.4093000000000  0.5119250000000  0.4757260000000 1.0
C      1  0.4875230000000  0.5931770000000  0.5261120000000 1.0
C      1  0.5676120000000  0.5480750000000  0.5419360000000 1.0
C      1  0.5056920000000  0.5462800000000  0.4463830000000 1.0
C      1  0.5046250000000  0.5670350000000  0.5542790000000 1.0
C      1  0.4404410000000  0.5241860000000  0.5313880000000 1.0
C      1  0.4231800000000  0.4636320000000  0.4811840000000 1.0
C      1  0.3980070000000  0.4870210000000  0.5166180000000 1.0
C      1  0.5440460000000  0.5026520000000  0.5820740000000 1.0
C      1  0.4826670000000  0.5711420000000  0.5006620000000 1.0
C      1  0.5673950000000  0.4967810000000  0.4314060000000 1.0
C      1  0.5339740000000  0.4419090000000  0.5760310000000 1.0
C      1  0.4814830000000  0.4192310000000  0.4745600000000 1.0
C      1  0.4565580000000  0.4875620000000  0.4218460000000 1.0
C      1  0.4942810000000  0.4576120000000  0.5403890000000 1.0
C      1  0.4526310000000  0.5532880000000  0.5603290000000 1.0
C      1  0.5380920000000  0.5204830000000  0.5064140000000 1.0
C      1  0.5208450000000  0.5308990000000  0.5401090000000 1.0
C      1  0.5977600000000  0.5142330000000  0.4796030000000 1.0
C      1  0.4931120000000  0.5272540000000  0.4911430000000 1.0
C      1  0.4949660000000  0.5175790000000  0.4099130000000 1.0
C      1  0.5175140000000  0.5185760000000  0.5719780000000 1.0
C      1  0.5710860000000  0.4960170000000  0.4815670000000 1.0
C      1  0.5501530000000  0.4914690000000  0.4060030000000 1.0
C      1  0.5107910000000  0.4509460000000  0.4874000000000 1.0
C      1  0.5168930000000  0.5914480000000  0.5431650000000 1.0
C      1  0.4004530000000  0.5123900000000  0.5038440000000 1.0
C      1  0.5111440000000  0.5050340000000  0.5202710000000 1.0
C      1  0.4622110000000  0.4512330000000  0.5479970000000 1.0
C      1  0.4663460000000  0.5265640000000  0.5616020000000 1.0
C      1  0.4510930000000  0.5367820000000  0.4285190000000 1.0
C      1  0.5400940000000  0.5168660000000  0.4255540000000 1.0
C      1  0.4112830000000  0.5327220000000  0.5202260000000 1.0
C      1  0.4656460000000  0.5155130000000  0.4125090000000 1.0
C      1  0.5014470000000  0.4896180000000  0.5632420000000 1.0
C      1  0.5627510000000  0.4497800000000  0.4864210000000 1.0
C      1  0.4754130000000  0.4106550000000  0.5232610000000 1.0
C      1  0.5246350000000  0.4655940000000  0.5534740000000 1.0
C      1  0.5766030000000  0.4494070000000  0.5237810000000 1.0
C      1  0.4602100000000  0.4221570000000  0.5452830000000 1.0
C      1  0.5192090000000  0.5525000000000  0.5736360000000 1.0
C      1  0.4833420000000  0.5200320000000  0.5328850000000 1.0
C      1  0.4823950000000  0.4530630000000  0.4712240000000 1.0
END
