TITL C-2848498-1409-529 -0.00395661868467627 125000 -1031.43796323976 0 0 193 (C1) n - 1
REM
REM in /home/bkarasulu/work/CARBON/AIRSS/Generating-Clusters/AIREBO/with-SteepDescent/Only-C1/SD-CG-opt/Try1-1.4A-POS3A/HFTN-CG
REM
REM
REM
REM
REM
REM ./C.cell (11c1c37f851c82e70ff6c80c92926a4b)
REM
REM compiler GCC version 9.2.1 20190827 (Red Hat 9.2.1-1)
REM options -cpp -mtune=generic -march=x86-64 -g -O0 -fpre-include=/usr/include/finclude/math-vector-fortran.h
REM seed -1634409732 -428528665 -1727922103 -1986457849 -1496791800 1822003156 -269727398 431346341 -1115447551 -558911478 -1511740193 -1143710442 -277094250 -364477324 1620911908 -809583547 394097116 -463995440 1972890868 457867982 -701199944 -1592720864 -398042160 -251580286 -375082662 -1774496230 1912034241 -406592165 -495071004 919758174 -416435193 -626352127 -2094112381
REM
CELL 1.54180   50.00000   50.00000   50.00000   90.00000   90.00000   90.00000
LATT -1
SFAC C  
C      1  0.5679200000000  0.5335330000000  0.4859890000000 1.0
C      1  0.5723990000000  0.4604410000000  0.5833270000000 1.0
C      1  0.4108930000000  0.4179660000000  0.5117630000000 1.0
C      1  0.4069110000000  0.4888440000000  0.4477220000000 1.0
C      1  0.4780110000000  0.5619680000000  0.5609670000000 1.0
C      1  0.4544500000000  0.3993050000000  0.4943090000000 1.0
C      1  0.4953840000000  0.3960540000000  0.4678480000000 1.0
C      1  0.5485310000000  0.4658220000000  0.4130920000000 1.0
C      1  0.5659380000000  0.4146790000000  0.4854960000000 1.0
C      1  0.4692940000000  0.5055940000000  0.5736100000000 1.0
C      1  0.5579800000000  0.4477350000000  0.4863260000000 1.0
C      1  0.3898300000000  0.4962580000000  0.5087270000000 1.0
C      1  0.4749100000000  0.4243060000000  0.5580890000000 1.0
C      1  0.5935520000000  0.4846920000000  0.5769480000000 1.0
C      1  0.4274430000000  0.4121760000000  0.4859240000000 1.0
C      1  0.4331730000000  0.4470700000000  0.5562440000000 1.0
C      1  0.3895000000000  0.4895130000000  0.5354250000000 1.0
C      1  0.4619960000000  0.4388560000000  0.4491450000000 1.0
C      1  0.4597010000000  0.5433650000000  0.4802190000000 1.0
C      1  0.5631860000000  0.5555770000000  0.5732240000000 1.0
C      1  0.5343890000000  0.5183560000000  0.5937840000000 1.0
C      1  0.4538200000000  0.5242110000000  0.5037750000000 1.0
C      1  0.4553360000000  0.4611880000000  0.4981470000000 1.0
C      1  0.5677720000000  0.4334690000000  0.4487190000000 1.0
C      1  0.4795310000000  0.5981120000000  0.4709880000000 1.0
C      1  0.5321160000000  0.5578130000000  0.5006130000000 1.0
C      1  0.4249550000000  0.4156210000000  0.5341260000000 1.0
C      1  0.5294970000000  0.5004140000000  0.5140340000000 1.0
C      1  0.4545410000000  0.4375050000000  0.5819040000000 1.0
C      1  0.5002870000000  0.5508630000000  0.4410130000000 1.0
C      1  0.4469000000000  0.5543130000000  0.5723610000000 1.0
C      1  0.5073590000000  0.4479650000000  0.4252350000000 1.0
C      1  0.4604660000000  0.5157990000000  0.5457130000000 1.0
C      1  0.5533390000000  0.4442900000000  0.5659230000000 1.0
C      1  0.4146320000000  0.5725110000000  0.4849380000000 1.0
C      1  0.5507890000000  0.3961790000000  0.5023560000000 1.0
C      1  0.5261100000000  0.4999380000000  0.4374620000000 1.0
C      1  0.4485840000000  0.4536020000000  0.4023650000000 1.0
C      1  0.4798660000000  0.4390220000000  0.5201220000000 1.0
C      1  0.4624220000000  0.5519120000000  0.6026970000000 1.0
C      1  0.4328620000000  0.4436360000000  0.4884510000000 1.0
C      1  0.5128620000000  0.5822670000000  0.4351360000000 1.0
C      1  0.5560050000000  0.4365200000000  0.5343760000000 1.0
C      1  0.4903860000000  0.5017040000000  0.6087970000000 1.0
C      1  0.5338860000000  0.4897810000000  0.6077150000000 1.0
C      1  0.5933790000000  0.5356850000000  0.5300680000000 1.0
C      1  0.5098030000000  0.5521710000000  0.4092090000000 1.0
C      1  0.5699630000000  0.5329280000000  0.5526720000000 1.0
C      1  0.5416600000000  0.5451880000000  0.5383220000000 1.0
C      1  0.5179870000000  0.4244180000000  0.5288160000000 1.0
C      1  0.3932770000000  0.5130710000000  0.5520260000000 1.0
C      1  0.4817710000000  0.6165990000000  0.5111040000000 1.0
C      1  0.5234710000000  0.4737860000000  0.4675040000000 1.0
C      1  0.5065180000000  0.4725430000000  0.6020350000000 1.0
C      1  0.4927200000000  0.3917020000000  0.5002540000000 1.0
C      1  0.4324410000000  0.4764000000000  0.5834290000000 1.0
C      1  0.4195120000000  0.4895860000000  0.4923530000000 1.0
C      1  0.4016010000000  0.4617630000000  0.4566760000000 1.0
C      1  0.4683240000000  0.5865270000000  0.5413270000000 1.0
C      1  0.5573760000000  0.5299680000000  0.5137020000000 1.0
C      1  0.5461600000000  0.4856550000000  0.4898730000000 1.0
C      1  0.4792550000000  0.4215760000000  0.4948370000000 1.0
C      1  0.4458270000000  0.5262940000000  0.4585880000000 1.0
C      1  0.5453760000000  0.5782050000000  0.4442520000000 1.0
C      1  0.5989220000000  0.5618380000000  0.4833000000000 1.0
C      1  0.4221590000000  0.5391140000000  0.4385830000000 1.0
C      1  0.4102840000000  0.5216810000000  0.4859340000000 1.0
C      1  0.4066200000000  0.4601690000000  0.4859490000000 1.0
C      1  0.4332240000000  0.5018160000000  0.5408060000000 1.0
C      1  0.5382130000000  0.4252930000000  0.4587740000000 1.0
C      1  0.5504390000000  0.5211640000000  0.4342370000000 1.0
C      1  0.4234330000000  0.5793540000000  0.5346820000000 1.0
C      1  0.4459200000000  0.5708300000000  0.4436190000000 1.0
C      1  0.4259000000000  0.5235280000000  0.5160890000000 1.0
C      1  0.4868560000000  0.4096460000000  0.4378230000000 1.0
C      1  0.4047330000000  0.4599720000000  0.5426540000000 1.0
C      1  0.5106280000000  0.4389580000000  0.5984880000000 1.0
C      1  0.6060420000000  0.4757570000000  0.4688550000000 1.0
C      1  0.4195090000000  0.4841790000000  0.5607290000000 1.0
C      1  0.4278230000000  0.5024140000000  0.4086640000000 1.0
C      1  0.4905560000000  0.5462130000000  0.4732610000000 1.0
C      1  0.4635340000000  0.3995750000000  0.4554890000000 1.0
C      1  0.4057190000000  0.5168550000000  0.4552500000000 1.0
C      1  0.5639890000000  0.4955020000000  0.4164870000000 1.0
C      1  0.4614620000000  0.5444790000000  0.4344830000000 1.0
C      1  0.4237610000000  0.5580560000000  0.5520800000000 1.0
C      1  0.5025480000000  0.4989130000000  0.4580980000000 1.0
C      1  0.5018670000000  0.5120610000000  0.5402020000000 1.0
C      1  0.5754310000000  0.4769710000000  0.5362690000000 1.0
C      1  0.5215070000000  0.5819810000000  0.5299550000000 1.0
C      1  0.4886890000000  0.5527090000000  0.3918070000000 1.0
C      1  0.4782820000000  0.5247700000000  0.6170870000000 1.0
C      1  0.5020670000000  0.5552190000000  0.5378330000000 1.0
C      1  0.5547580000000  0.5792100000000  0.5606690000000 1.0
C      1  0.4505900000000  0.5248010000000  0.5882250000000 1.0
C      1  0.5800090000000  0.5332900000000  0.4403570000000 1.0
C      1  0.4788810000000  0.4529430000000  0.5989320000000 1.0
C      1  0.5036310000000  0.5941910000000  0.5059610000000 1.0
C      1  0.5711290000000  0.5035110000000  0.4732970000000 1.0
C      1  0.5177200000000  0.5322830000000  0.5178810000000 1.0
C      1  0.6097660000000  0.4834630000000  0.5114610000000 1.0
C      1  0.5271230000000  0.5564030000000  0.4611440000000 1.0
C      1  0.4852330000000  0.5204540000000  0.4382750000000 1.0
C      1  0.5122120000000  0.5276920000000  0.4846240000000 1.0
C      1  0.4400280000000  0.4839600000000  0.5172510000000 1.0
C      1  0.4367580000000  0.4205690000000  0.4560830000000 1.0
C      1  0.4336350000000  0.5295170000000  0.4103490000000 1.0
C      1  0.5803900000000  0.5608530000000  0.4559580000000 1.0
C      1  0.3994840000000  0.5523250000000  0.4959630000000 1.0
C      1  0.4593230000000  0.6062270000000  0.5237970000000 1.0
C      1  0.5984910000000  0.4555380000000  0.4951280000000 1.0
C      1  0.5793080000000  0.4835440000000  0.4971480000000 1.0
C      1  0.5542880000000  0.5443670000000  0.5965550000000 1.0
C      1  0.4913560000000  0.5129550000000  0.3939710000000 1.0
C      1  0.4429770000000  0.4952580000000  0.4681990000000 1.0
C      1  0.5159720000000  0.4607000000000  0.4979770000000 1.0
C      1  0.4787350000000  0.4360250000000  0.4214940000000 1.0
C      1  0.4849400000000  0.5726300000000  0.4897520000000 1.0
C      1  0.5832200000000  0.5627940000000  0.5138390000000 1.0
C      1  0.5171240000000  0.4970650000000  0.4094570000000 1.0
C      1  0.4780970000000  0.4581690000000  0.5571550000000 1.0
C      1  0.4626500000000  0.4764620000000  0.5805000000000 1.0
C      1  0.4845170000000  0.4693510000000  0.4910740000000 1.0
C      1  0.4923750000000  0.4801360000000  0.3850900000000 1.0
C      1  0.5911350000000  0.4298660000000  0.4740770000000 1.0
C      1  0.5301180000000  0.4297620000000  0.4975020000000 1.0
C      1  0.5240270000000  0.5216140000000  0.3884390000000 1.0
C      1  0.4484490000000  0.6070470000000  0.4793060000000 1.0
C      1  0.4716910000000  0.4893690000000  0.4348260000000 1.0
C      1  0.5999550000000  0.5307570000000  0.4970450000000 1.0
C      1  0.4772110000000  0.4671350000000  0.4585360000000 1.0
C      1  0.5959110000000  0.5099650000000  0.4509010000000 1.0
C      1  0.4870400000000  0.4359170000000  0.4694040000000 1.0
C      1  0.4542340000000  0.4573350000000  0.5329370000000 1.0
C      1  0.5179800000000  0.4659130000000  0.4031300000000 1.0
C      1  0.5759740000000  0.5916990000000  0.4974540000000 1.0
C      1  0.5844050000000  0.4853030000000  0.4368800000000 1.0
C      1  0.5077430000000  0.4554630000000  0.5305480000000 1.0
C      1  0.5320400000000  0.4632950000000  0.5519010000000 1.0
C      1  0.5448900000000  0.4904900000000  0.5427950000000 1.0
C      1  0.4202380000000  0.5667520000000  0.4575620000000 1.0
C      1  0.4419790000000  0.4144690000000  0.5603200000000 1.0
C      1  0.5292300000000  0.4274870000000  0.5808270000000 1.0
C      1  0.4999530000000  0.5047220000000  0.5792720000000 1.0
C      1  0.4106900000000  0.5344860000000  0.5427840000000 1.0
C      1  0.5234780000000  0.5839970000000  0.4807120000000 1.0
C      1  0.4767590000000  0.4675960000000  0.4090110000000 1.0
C      1  0.5748900000000  0.4640830000000  0.4617070000000 1.0
C      1  0.4174420000000  0.4422520000000  0.4422000000000 1.0
C      1  0.5064240000000  0.6007280000000  0.4582370000000 1.0
C      1  0.5650300000000  0.5049110000000  0.5661010000000 1.0
C      1  0.5623060000000  0.5956330000000  0.4651140000000 1.0
C      1  0.4995570000000  0.4990800000000  0.4979360000000 1.0
C      1  0.4376200000000  0.5879820000000  0.5050020000000 1.0
C      1  0.4323770000000  0.4569190000000  0.4237260000000 1.0
C      1  0.5520970000000  0.4042260000000  0.5293060000000 1.0
C      1  0.5656760000000  0.4397340000000  0.4180880000000 1.0
C      1  0.4911360000000  0.3856000000000  0.5264430000000 1.0
C      1  0.6109360000000  0.5080780000000  0.5302750000000 1.0
C      1  0.5327500000000  0.4117610000000  0.5552670000000 1.0
C      1  0.4785160000000  0.5152750000000  0.5178490000000 1.0
C      1  0.4749490000000  0.5045510000000  0.4750920000000 1.0
C      1  0.4597300000000  0.5632730000000  0.5078230000000 1.0
C      1  0.5219830000000  0.5568310000000  0.5635030000000 1.0
C      1  0.4630610000000  0.5476770000000  0.5347810000000 1.0
C      1  0.6104470000000  0.5074210000000  0.4794710000000 1.0
C      1  0.5594100000000  0.5662310000000  0.4821740000000 1.0
C      1  0.5146090000000  0.4450810000000  0.4544820000000 1.0
C      1  0.5267240000000  0.5891910000000  0.5687680000000 1.0
C      1  0.5458000000000  0.4620150000000  0.5143160000000 1.0
C      1  0.4948440000000  0.5493690000000  0.6059460000000 1.0
C      1  0.5074350000000  0.4667000000000  0.5694910000000 1.0
C      1  0.5469300000000  0.4743050000000  0.4452750000000 1.0
C      1  0.3798940000000  0.5246640000000  0.5009010000000 1.0
C      1  0.5259300000000  0.5116130000000  0.5615380000000 1.0
C      1  0.5639570000000  0.5594680000000  0.4257550000000 1.0
C      1  0.4943190000000  0.4078350000000  0.5423840000000 1.0
C      1  0.5756840000000  0.4248820000000  0.3991670000000 1.0
C      1  0.5585360000000  0.4865640000000  0.5926820000000 1.0
C      1  0.5824500000000  0.4506850000000  0.5241510000000 1.0
C      1  0.4378080000000  0.4865940000000  0.4357160000000 1.0
C      1  0.5268010000000  0.4027350000000  0.4791260000000 1.0
C      1  0.5152510000000  0.5430720000000  0.5883080000000 1.0
C      1  0.5408380000000  0.5292620000000  0.4658690000000 1.0
C      1  0.4000920000000  0.4446630000000  0.5126290000000 1.0
C      1  0.4903080000000  0.4828710000000  0.5372230000000 1.0
C      1  0.4993340000000  0.5935540000000  0.5516020000000 1.0
C      1  0.5975530000000  0.4894220000000  0.5489640000000 1.0
C      1  0.5462470000000  0.6064690000000  0.4922280000000 1.0
C      1  0.4655390000000  0.5334020000000  0.4025670000000 1.0
C      1  0.5549230000000  0.5748980000000  0.5283910000000 1.0
C      1  0.5401870000000  0.5418350000000  0.4092270000000 1.0
C      1  0.4555710000000  0.5956510000000  0.4497780000000 1.0
END
