TITL C-2848508-1660-5 -0.000493888835126381 125000 -99.3367672723122 0 0 18 (C1) n - 1
REM
REM in /home/bkarasulu/work/CARBON/AIRSS/Generating-Clusters/AIREBO/with-SteepDescent/Only-C1/SD-CG-opt/Try1-1.4A-POS3A/HFTN-CG
REM
REM
REM
REM
REM
REM ./C.cell (11c1c37f851c82e70ff6c80c92926a4b)
REM
REM compiler GCC version 9.2.1 20190827 (Red Hat 9.2.1-1)
REM options -cpp -mtune=generic -march=x86-64 -g -O0 -fpre-include=/usr/include/finclude/math-vector-fortran.h
REM seed -864990043 904603202 945849947 -1087725816 76271873 1453475246 -868674826 807292182 -212287690 243769725 -2117049975 954429621 596231421 740699328 -412696741 -927655171 -207329252 1074865812 827553757 -1160666513 -1472600230 1058795757 -2076160500 1660648163 -2004119708 397196965 80416091 712043562 421703575 1855097475 -1133208959 1383262364 68411788
REM
CELL 1.54180   50.00000   50.00000   50.00000   90.00000   90.00000   90.00000
LATT -1
SFAC C  
C      1  0.5538720000000  0.4418440000000  0.4585370000000 1.0
C      1  0.4752500000000  0.5137230000000  0.5053470000000 1.0
C      1  0.4760080000000  0.5209820000000  0.4336700000000 1.0
C      1  0.5176040000000  0.5319380000000  0.5604410000000 1.0
C      1  0.5337020000000  0.4861580000000  0.5119880000000 1.0
C      1  0.4950570000000  0.4741500000000  0.4855360000000 1.0
C      1  0.4807140000000  0.5113690000000  0.4580610000000 1.0
C      1  0.5229450000000  0.4718660000000  0.4908110000000 1.0
C      1  0.5430960000000  0.4981130000000  0.5340890000000 1.0
C      1  0.4928910000000  0.5339940000000  0.5493230000000 1.0
C      1  0.4468820000000  0.5029380000000  0.5518590000000 1.0
C      1  0.4738470000000  0.5300160000000  0.4091600000000 1.0
C      1  0.4831310000000  0.5001770000000  0.4833370000000 1.0
C      1  0.4798290000000  0.4520220000000  0.4824760000000 1.0
C      1  0.5386300000000  0.4553850000000  0.4750080000000 1.0
C      1  0.4801750000000  0.5410770000000  0.5209980000000 1.0
C      1  0.4666480000000  0.5152020000000  0.5383670000000 1.0
C      1  0.5397190000000  0.5190450000000  0.5509920000000 1.0
END
