TITL C-2847944-5688-332 -0.000346625252129448 125000 -179.646911131675 0 0 34 (C1) n - 1
REM
REM in /home/bkarasulu/work/CARBON/AIRSS/Generating-Clusters/AIREBO/with-SteepDescent/Only-C1/SD-CG-opt/Try1-1.4A-POS3A/HFTN-CG
REM
REM
REM
REM
REM
REM ./C.cell (11c1c37f851c82e70ff6c80c92926a4b)
REM
REM compiler GCC version 9.2.1 20190827 (Red Hat 9.2.1-1)
REM options -cpp -mtune=generic -march=x86-64 -g -O0 -fpre-include=/usr/include/finclude/math-vector-fortran.h
REM seed 462709942 -2132460496 1105242313 -1802755136 -1063559127 -1729362238 -2014289395 1320303633 352680308 -1224006992 -2143695490 1836223131 149885672 -269271424 1115042180 -417391430 -1528313309 -1070326834 -950194802 786795346 -1647463868 1105337411 -1258021749 596930413 -1620832845 907258315 -441178978 -1414187719 715064979 -917329740 1569610935 -1118273843 1276257292
REM
CELL 1.54180   50.00000   50.00000   50.00000   90.00000   90.00000   90.00000
LATT -1
SFAC C  
C      1  0.5241020000000  0.4850890000000  0.4515190000000 1.0
C      1  0.4748170000000  0.5319620000000  0.5399640000000 1.0
C      1  0.5469590000000  0.4638170000000  0.5437600000000 1.0
C      1  0.5666150000000  0.5272430000000  0.4626360000000 1.0
C      1  0.4874560000000  0.5128420000000  0.5616000000000 1.0
C      1  0.5487470000000  0.5527590000000  0.5469020000000 1.0
C      1  0.5682720000000  0.4753840000000  0.5025410000000 1.0
C      1  0.4867830000000  0.4345200000000  0.4849970000000 1.0
C      1  0.4388920000000  0.4684190000000  0.4804630000000 1.0
C      1  0.5432780000000  0.5051290000000  0.4566310000000 1.0
C      1  0.4664730000000  0.4807010000000  0.4678610000000 1.0
C      1  0.4942230000000  0.4946320000000  0.4561740000000 1.0
C      1  0.5503530000000  0.5457740000000  0.5154680000000 1.0
C      1  0.4381810000000  0.5236510000000  0.5103730000000 1.0
C      1  0.4587230000000  0.4585460000000  0.5002430000000 1.0
C      1  0.5037630000000  0.5163140000000  0.5328790000000 1.0
C      1  0.5028510000000  0.4410970000000  0.5068110000000 1.0
C      1  0.4877360000000  0.4559960000000  0.4654900000000 1.0
C      1  0.5027090000000  0.5129320000000  0.4834590000000 1.0
C      1  0.4370250000000  0.5025260000000  0.4835130000000 1.0
C      1  0.4795920000000  0.5296050000000  0.4702130000000 1.0
C      1  0.5188120000000  0.4701460000000  0.5041000000000 1.0
C      1  0.5521240000000  0.5395790000000  0.4892610000000 1.0
C      1  0.4590020000000  0.5125350000000  0.4621140000000 1.0
C      1  0.4802130000000  0.5568730000000  0.4697220000000 1.0
C      1  0.4733530000000  0.4804610000000  0.5143880000000 1.0
C      1  0.5002750000000  0.4958050000000  0.5099540000000 1.0
C      1  0.5305430000000  0.5223620000000  0.4781790000000 1.0
C      1  0.4484570000000  0.4946650000000  0.5139450000000 1.0
C      1  0.4873380000000  0.5023840000000  0.5860370000000 1.0
C      1  0.5456500000000  0.4695640000000  0.5168980000000 1.0
C      1  0.5152370000000  0.4645390000000  0.4715070000000 1.0
C      1  0.4526730000000  0.5412900000000  0.5264720000000 1.0
C      1  0.5287760000000  0.5308610000000  0.5339280000000 1.0
END
