TITL C-2847948-6138-747 4601.53347021682 125000 -846.58573778973 0 0 154 (C1) n - 1
REM
REM in /home/bkarasulu/work/CARBON/AIRSS/Generating-Clusters/AIREBO/with-SteepDescent/Only-C1/SD-CG-opt/Try1-1.4A-POS3A/HFTN-CG
REM
REM
REM
REM
REM
REM ./C.cell (11c1c37f851c82e70ff6c80c92926a4b)
REM
REM compiler GCC version 9.2.1 20190827 (Red Hat 9.2.1-1)
REM options -cpp -mtune=generic -march=x86-64 -g -O0 -fpre-include=/usr/include/finclude/math-vector-fortran.h
REM seed 42089894 840514777 -2059859825 890920293 1496364288 41684721 -810220256 904739857 62915119 526796162 1850426281 1097112616 2033892670 11235353 -1386485828 -1324551353 -1801189316 -142246158 -1215356559 -2130972921 -1531538449 141974406 1035034558 -372738330 1353038140 1800782674 742765771 1512695428 -747095450 -1771325685 -719878452 645359933 -1674089276
REM
CELL 1.54180   50.00000   50.00000   50.00000   90.00000   90.00000   90.00000
LATT -1
SFAC C  
C      1  0.5371970000000  0.4984390000000  0.5899030000000 1.0
C      1  0.5002890000000  0.3878980000000  0.5129290000000 1.0
C      1  0.4835260000000  0.5420080000000  0.4727990000000 1.0
C      1  0.4880720000000  0.5322720000000  0.4110240000000 1.0
C      1  0.6083860000000  0.5546010000000  0.4565950000000 1.0
C      1  0.5121180000000  0.5604090000000  0.4731540000000 1.0
C      1  0.4566540000000  0.4969450000000  0.4799610000000 1.0
C      1  0.4099060000000  0.4809640000000  0.4609850000000 1.0
C      1  0.4276900000000  0.4897860000000  0.4376750000000 1.0
C      1  0.4149940000000  0.4737310000000  0.5301090000000 1.0
C      1  0.5480850000000  0.4312290000000  0.4368680000000 1.0
C      1  0.5532360000000  0.5593070000000  0.4279630000000 1.0
C      1  0.5338320000000  0.4302850000000  0.4140830000000 1.0
C      1  0.4460440000000  0.5281750000000  0.4744230000000 1.0
C      1  0.4989460000000  0.5164450000000  0.4573230000000 1.0
C      1  0.4534530000000  0.4949080000000  0.5880490000000 1.0
C      1  0.5296180000000  0.4917670000000  0.3958930000000 1.0
C      1  0.4707810000000  0.4222960000000  0.4689060000000 1.0
C      1  0.5170520000000  0.5385080000000  0.4057390000000 1.0
C      1  0.5066360000000  0.5013260000000  0.5780610000000 1.0
C      1  0.4778560000000  0.4705110000000  0.5018180000000 1.0
C      1  0.5648020000000  0.4960850000000  0.5277030000000 1.0
C      1  0.5148730000000  0.5187190000000  0.6060900000000 1.0
C      1  0.4390040000000  0.4757520000000  0.5088150000000 1.0
C      1  0.5131880000000  0.5663430000000  0.5066200000000 1.0
C      1  0.4371120000000  0.4707500000000  0.4201000000000 1.0
C      1  0.5644080000000  0.5254930000000  0.5593830000000 1.0
C      1  0.4509730000000  0.4984240000000  0.5311710000000 1.0
C      1  0.5158570000000  0.4515580000000  0.4729040000000 1.0
C      1  0.3946680000000  0.5126370000000  0.5090020000000 1.0
C      1  0.4589990000000  0.4227870000000  0.5070810000000 1.0
C      1  0.5740760000000  0.5170630000000  0.4643210000000 1.0
C      1  0.5330440000000  0.4729050000000  0.4930280000000 1.0
C      1  0.4860370000000  0.4972560000000  0.4896760000000 1.0
C      1  0.6136040000000  0.4911270000000  0.5056830000000 1.0
C      1  0.4930700000000  0.5433410000000  0.5138080000000 1.0
C      1  0.4676230000000  0.3838680000000  0.5081150000000 1.0
C      1  0.4686750000000  0.4695790000000  0.5345430000000 1.0
C      1  0.4790690000000  0.3922930000000  0.5383070000000 1.0
C      1  0.4764990000000  0.6016830000000  0.5165160000000 1.0
C      1  0.4277960000000  0.5392510000000  0.4289800000000 1.0
C      1  0.5368450000000  0.4492270000000  0.5642410000000 1.0
C      1  0.5637660000000  0.4808700000000  0.4908060000000 1.0
C      1  0.4051650000000  0.5478980000000  0.4418930000000 1.0
C      1  0.4926990000000  0.5431070000000  0.4408450000000 1.0
C      1  0.5403500000000  0.4578860000000  0.5226620000000 1.0
C      1  0.6029940000000  0.4920930000000  0.5380190000000 1.0
C      1  0.5471940000000  0.4218830000000  0.4695570000000 1.0
C      1  0.6184100000000  0.4154850000000  0.5118980000000 1.0
C      1  0.5694420000000  0.4478320000000  0.4672230000000 1.0
C      1  0.5878500000000  0.5441730000000  0.5330160000000 1.0
C      1  0.5095860000000  0.4612970000000  0.5516530000000 1.0
C      1  0.4132720000000  0.5287970000000  0.5265120000000 1.0
C      1  0.5121190000000  0.4470140000000  0.4131190000000 1.0
C      1  0.5119200000000  0.6015240000000  0.4712060000000 1.0
C      1  0.4796280000000  0.3883810000000  0.4329910000000 1.0
C      1  0.5219740000000  0.4242690000000  0.4922420000000 1.0
C      1  0.5223970000000  0.5197150000000  0.5556650000000 1.0
C      1  0.5588920000000  0.5680350000000  0.4542690000000 1.0
C      1  0.3670750000000  0.4563620000000  0.4802040000000 1.0
C      1  0.4300040000000  0.5842180000000  0.4920850000000 1.0
C      1  0.4581910000000  0.5798560000000  0.5070500000000 1.0
C      1  0.5359750000000  0.5631670000000  0.5561940000000 1.0
C      1  0.5864900000000  0.5372660000000  0.5013990000000 1.0
C      1  0.5752460000000  0.4851910000000  0.5564460000000 1.0
C      1  0.5294860000000  0.5476800000000  0.5831240000000 1.0
C      1  0.5244690000000  0.6127510000000  0.5479960000000 1.0
C      1  0.4932290000000  0.4766430000000  0.5713890000000 1.0
C      1  0.4573670000000  0.5576310000000  0.5611260000000 1.0
C      1  0.5972380000000  0.4938080000000  0.4732030000000 1.0
C      1  0.4916450000000  0.5915670000000  0.4538390000000 1.0
C      1  0.5057670000000  0.5175540000000  0.5016610000000 1.0
C      1  0.5676530000000  0.5622860000000  0.5434570000000 1.0
C      1  0.5806330000000  0.4549910000000  0.4974990000000 1.0
C      1  0.5625630000000  0.5338530000000  0.4194500000000 1.0
C      1  0.4689620000000  0.5235190000000  0.5781960000000 1.0
C      1  0.4587850000000  0.5592800000000  0.4799690000000 1.0
C      1  0.5223040000000  0.3729170000000  0.5085090000000 1.0
C      1  0.4658650000000  0.5850560000000  0.4606710000000 1.0
C      1  0.4451960000000  0.5162120000000  0.4424730000000 1.0
C      1  0.5924190000000  0.5204560000000  0.5494990000000 1.0
C      1  0.4886490000000  0.4127760000000  0.4441670000000 1.0
C      1  0.4201050000000  0.4532470000000  0.4733100000000 1.0
C      1  0.5100600000000  0.5482710000000  0.5420820000000 1.0
C      1  0.4928290000000  0.6042210000000  0.5468050000000 1.0
C      1  0.3879230000000  0.4732300000000  0.4857770000000 1.0
C      1  0.5834830000000  0.5063820000000  0.5016550000000 1.0
C      1  0.4564950000000  0.4521480000000  0.4237940000000 1.0
C      1  0.5066500000000  0.5702200000000  0.4390250000000 1.0
C      1  0.4940370000000  0.4620610000000  0.4491160000000 1.0
C      1  0.4861150000000  0.4367920000000  0.4235510000000 1.0
C      1  0.5603880000000  0.5811080000000  0.5180840000000 1.0
C      1  0.4883100000000  0.4155930000000  0.5548670000000 1.0
C      1  0.5910970000000  0.4616940000000  0.5285120000000 1.0
C      1  0.5828670000000  0.5496710000000  0.4699340000000 1.0
C      1  0.4729440000000  0.5111820000000  0.4274520000000 1.0
C      1  0.5808750000000  0.5706040000000  0.4977480000000 1.0
C      1  0.4371900000000  0.4423610000000  0.5165740000000 1.0
C      1  0.5342780000000  0.4879490000000  0.4455760000000 1.0
C      1  0.5293090000000  0.4846310000000  0.3707280000000 1.0
C      1  0.5419970000000  0.5544420000000  0.5138090000000 1.0
C      1  0.4264510000000  0.5081120000000  0.5465490000000 1.0
C      1  0.4771220000000  0.5660710000000  0.5779150000000 1.0
C      1  0.5175120000000  0.4761270000000  0.4184610000000 1.0
C      1  0.5427540000000  0.5928480000000  0.5433990000000 1.0
C      1  0.5209130000000  0.4231050000000  0.5504670000000 1.0
C      1  0.5351820000000  0.5064220000000  0.5145970000000 1.0
C      1  0.5384800000000  0.5170300000000  0.4067470000000 1.0
C      1  0.4638430000000  0.4679620000000  0.5741880000000 1.0
C      1  0.4343770000000  0.5392920000000  0.5045090000000 1.0
C      1  0.5486450000000  0.5102420000000  0.4827560000000 1.0
C      1  0.5014370000000  0.6121180000000  0.4949590000000 1.0
C      1  0.4396300000000  0.4626860000000  0.5508790000000 1.0
C      1  0.5416330000000  0.4578890000000  0.4535250000000 1.0
C      1  0.5929290000000  0.4672740000000  0.4616540000000 1.0
C      1  0.5633750000000  0.4568260000000  0.5442840000000 1.0
C      1  0.6037890000000  0.4361350000000  0.5121730000000 1.0
C      1  0.5554720000000  0.5095860000000  0.4387080000000 1.0
C      1  0.4113380000000  0.5344560000000  0.5603080000000 1.0
C      1  0.4919020000000  0.5195720000000  0.5456700000000 1.0
C      1  0.4195820000000  0.4698440000000  0.5773180000000 1.0
C      1  0.5148520000000  0.4914640000000  0.4727410000000 1.0
C      1  0.5205550000000  0.4822780000000  0.5294870000000 1.0
C      1  0.4844210000000  0.5918520000000  0.5738130000000 1.0
C      1  0.4951320000000  0.4905010000000  0.4379840000000 1.0
C      1  0.5073940000000  0.5916680000000  0.5188140000000 1.0
C      1  0.5449310000000  0.5308810000000  0.5343570000000 1.0
C      1  0.4611840000000  0.5277480000000  0.5453490000000 1.0
C      1  0.5265150000000  0.5622090000000  0.4187160000000 1.0
C      1  0.4353830000000  0.5235070000000  0.5821200000000 1.0
C      1  0.5378000000000  0.5818260000000  0.4670010000000 1.0
C      1  0.4156440000000  0.4972220000000  0.5753490000000 1.0
C      1  0.4924420000000  0.4926590000000  0.5340230000000 1.0
C      1  0.4642520000000  0.4349710000000  0.5656130000000 1.0
C      1  0.4232990000000  0.4960330000000  0.4864920000000 1.0
C      1  0.5186070000000  0.4110350000000  0.4546770000000 1.0
C      1  0.4465000000000  0.4677210000000  0.4701000000000 1.0
C      1  0.4964880000000  0.5409730000000  0.5880980000000 1.0
C      1  0.5528880000000  0.4758420000000  0.5775820000000 1.0
C      1  0.3939630000000  0.4844170000000  0.5120430000000 1.0
C      1  0.5498150000000  0.5264930000000  0.5837940000000 1.0
C      1  0.4861640000000  0.4460380000000  0.4878280000000 1.0
C      1  0.4381790000000  0.4299810000000  0.5470680000000 1.0
C      1  0.4928420000000  0.4209330000000  0.5097660000000 1.0
C      1  0.4159830000000  0.4374970000000  0.4942160000000 1.0
C      1  0.4895270000000  0.4427170000000  0.5356810000000 1.0
C      1  0.4651660000000  0.4508810000000  0.4543110000000 1.0
C      1  0.5304710000000  0.5357260000000  0.4878660000000 1.0
C      1  0.3993410000000  0.5194750000000  0.4806880000000 1.0
C      1  0.4192850000000  0.5599570000000  0.4863190000000 1.0
C      1  0.4026500000000  0.5449000000000  0.4697900000000 1.0
C      1  0.4627440000000  0.5480110000000  0.5180800000000 1.0
C      1  0.4556380000000  0.3997440000000  0.4862930000000 1.0
C      1  0.5291620000000  0.4301860000000  0.5229440000000 1.0
END
