TITL C-2848503-6230-421 0.00072174588927909 125000 -224.357253832019 0 0 40 (C1) n - 1
REM
REM in /home/bkarasulu/work/CARBON/AIRSS/Generating-Clusters/AIREBO/with-SteepDescent/Only-C1/SD-CG-opt/Try1-1.4A-POS3A/HFTN-CG
REM
REM
REM
REM
REM
REM ./C.cell (11c1c37f851c82e70ff6c80c92926a4b)
REM
REM compiler GCC version 9.2.1 20190827 (Red Hat 9.2.1-1)
REM options -cpp -mtune=generic -march=x86-64 -g -O0 -fpre-include=/usr/include/finclude/math-vector-fortran.h
REM seed -841196747 -1156240295 812795985 546987402 1551553860 1982753733 455601084 -1925485920 72241520 -2020067755 -1070390737 713389716 1592496906 145512228 -22654103 1379119846 389595245 -1454293474 416388881 1831043288 137857614 -1455977729 -885789189 60673583 -1451623284 -818919971 -832715139 678675390 -804446851 1733045259 168696380 -26630997 -1772399547
REM
CELL 1.54180   50.00000   50.00000   50.00000   90.00000   90.00000   90.00000
LATT -1
SFAC C  
C      1  0.5497040000000  0.5173470000000  0.5231890000000 1.0
C      1  0.4739460000000  0.5483330000000  0.5187940000000 1.0
C      1  0.4817190000000  0.4618680000000  0.5528170000000 1.0
C      1  0.4925120000000  0.5467570000000  0.4834860000000 1.0
C      1  0.4876510000000  0.5086470000000  0.4726240000000 1.0
C      1  0.5377480000000  0.4337670000000  0.5008710000000 1.0
C      1  0.4609070000000  0.4432730000000  0.5469250000000 1.0
C      1  0.4557770000000  0.5410140000000  0.4541110000000 1.0
C      1  0.5063050000000  0.4679870000000  0.4954450000000 1.0
C      1  0.4587660000000  0.5145470000000  0.4628760000000 1.0
C      1  0.4866920000000  0.4579850000000  0.4749690000000 1.0
C      1  0.5083560000000  0.4955810000000  0.4955110000000 1.0
C      1  0.4859450000000  0.4635370000000  0.5811470000000 1.0
C      1  0.5086490000000  0.4681070000000  0.4555670000000 1.0
C      1  0.5784810000000  0.5406580000000  0.4944160000000 1.0
C      1  0.4801340000000  0.5301700000000  0.5777160000000 1.0
C      1  0.4402650000000  0.4980840000000  0.4734390000000 1.0
C      1  0.5263120000000  0.5802110000000  0.4828060000000 1.0
C      1  0.4604140000000  0.4553900000000  0.4835700000000 1.0
C      1  0.5184810000000  0.4500460000000  0.5135850000000 1.0
C      1  0.5101940000000  0.4961160000000  0.4555650000000 1.0
C      1  0.5959710000000  0.5232900000000  0.5360920000000 1.0
C      1  0.4788130000000  0.5217340000000  0.5020290000000 1.0
C      1  0.5085480000000  0.4525560000000  0.5394400000000 1.0
C      1  0.4473640000000  0.4797030000000  0.4981010000000 1.0
C      1  0.4722190000000  0.5691650000000  0.5334360000000 1.0
C      1  0.5643640000000  0.5407190000000  0.4711420000000 1.0
C      1  0.5300320000000  0.5062930000000  0.5085220000000 1.0
C      1  0.5305570000000  0.4501600000000  0.4539210000000 1.0
C      1  0.4442990000000  0.4343620000000  0.4764010000000 1.0
C      1  0.5447280000000  0.4384880000000  0.4744850000000 1.0
C      1  0.4718270000000  0.5589120000000  0.4678000000000 1.0
C      1  0.4243720000000  0.4721290000000  0.5129350000000 1.0
C      1  0.4761010000000  0.5104680000000  0.5609100000000 1.0
C      1  0.4669790000000  0.4965480000000  0.5161530000000 1.0
C      1  0.5757250000000  0.5269290000000  0.5187600000000 1.0
C      1  0.5375930000000  0.5382200000000  0.4631410000000 1.0
C      1  0.5188270000000  0.5547960000000  0.4769200000000 1.0
C      1  0.4744460000000  0.4899540000000  0.5423860000000 1.0
C      1  0.5282770000000  0.5161490000000  0.4479990000000 1.0
END
