TITL C-2848497-6229-69 0.00230419656486155 125000 -988.352750809291 0 0 184 (C1) n - 1
REM
REM in /home/bkarasulu/work/CARBON/AIRSS/Generating-Clusters/AIREBO/with-SteepDescent/Only-C1/SD-CG-opt/Try1-1.4A-POS3A/HFTN-CG
REM
REM
REM
REM
REM
REM ./C.cell (11c1c37f851c82e70ff6c80c92926a4b)
REM
REM compiler GCC version 9.2.1 20190827 (Red Hat 9.2.1-1)
REM options -cpp -mtune=generic -march=x86-64 -g -O0 -fpre-include=/usr/include/finclude/math-vector-fortran.h
REM seed -86417041 -1767458072 1016728694 -1842743397 1372311352 -1648348103 -2104543907 -1540387177 -411787925 -870395433 -609440827 -963270766 2118035293 -213140368 -1913189978 539113953 -371934147 -635997422 -405513389 -1054004827 28924085 -1585827112 661821928 -184347163 -289968036 750277380 1779539563 1492507167 -507624055 707687184 -162687845 -565646997 -800531473
REM
CELL 1.54180   50.00000   50.00000   50.00000   90.00000   90.00000   90.00000
LATT -1
SFAC C  
C      1  0.4995750000000  0.5888480000000  0.5164670000000 1.0
C      1  0.3988000000000  0.5362830000000  0.4617050000000 1.0
C      1  0.4046720000000  0.5400740000000  0.5182340000000 1.0
C      1  0.4996790000000  0.4032320000000  0.4438080000000 1.0
C      1  0.5024660000000  0.5250490000000  0.4192450000000 1.0
C      1  0.5385670000000  0.4979170000000  0.5658490000000 1.0
C      1  0.4124630000000  0.4203060000000  0.4601440000000 1.0
C      1  0.5242030000000  0.5700340000000  0.4188640000000 1.0
C      1  0.5902930000000  0.5208350000000  0.5199930000000 1.0
C      1  0.5907030000000  0.5727850000000  0.4845530000000 1.0
C      1  0.5042270000000  0.4469660000000  0.5330000000000 1.0
C      1  0.4076140000000  0.4896530000000  0.4359250000000 1.0
C      1  0.5996240000000  0.4723950000000  0.4855910000000 1.0
C      1  0.4451600000000  0.5189080000000  0.5956700000000 1.0
C      1  0.4134860000000  0.4404270000000  0.5126480000000 1.0
C      1  0.5479370000000  0.3984390000000  0.4422970000000 1.0
C      1  0.5154160000000  0.5508860000000  0.4616040000000 1.0
C      1  0.4395480000000  0.4168970000000  0.4522490000000 1.0
C      1  0.4767300000000  0.6133400000000  0.5105500000000 1.0
C      1  0.5484480000000  0.4828770000000  0.4087400000000 1.0
C      1  0.5247410000000  0.5161050000000  0.4942660000000 1.0
C      1  0.5138280000000  0.5285130000000  0.5539000000000 1.0
C      1  0.4707110000000  0.5278000000000  0.5819690000000 1.0
C      1  0.4629770000000  0.5949050000000  0.4853480000000 1.0
C      1  0.5553110000000  0.4544300000000  0.4054930000000 1.0
C      1  0.5139980000000  0.5686160000000  0.5536690000000 1.0
C      1  0.4223230000000  0.5485270000000  0.4910860000000 1.0
C      1  0.4829240000000  0.5409160000000  0.4628310000000 1.0
C      1  0.4237960000000  0.5829370000000  0.5458650000000 1.0
C      1  0.5122900000000  0.5439970000000  0.5006490000000 1.0
C      1  0.5325840000000  0.6067190000000  0.5030700000000 1.0
C      1  0.4079630000000  0.4581930000000  0.4486400000000 1.0
C      1  0.5088240000000  0.4288470000000  0.4276720000000 1.0
C      1  0.4901570000000  0.5177200000000  0.6159370000000 1.0
C      1  0.5045810000000  0.4519260000000  0.5744460000000 1.0
C      1  0.4602660000000  0.4663590000000  0.5420950000000 1.0
C      1  0.5463690000000  0.4348480000000  0.4893370000000 1.0
C      1  0.5535020000000  0.5623020000000  0.5697120000000 1.0
C      1  0.4908810000000  0.3935510000000  0.5263020000000 1.0
C      1  0.5703440000000  0.4638820000000  0.5778530000000 1.0
C      1  0.4983070000000  0.5878630000000  0.4651590000000 1.0
C      1  0.5075550000000  0.4709730000000  0.4544520000000 1.0
C      1  0.5402940000000  0.5019670000000  0.3901850000000 1.0
C      1  0.4098430000000  0.4545570000000  0.5441710000000 1.0
C      1  0.4918770000000  0.4532870000000  0.3997980000000 1.0
C      1  0.5361570000000  0.5995320000000  0.4699250000000 1.0
C      1  0.5284120000000  0.4286190000000  0.5176560000000 1.0
C      1  0.4408310000000  0.4228960000000  0.5227350000000 1.0
C      1  0.5754730000000  0.5154100000000  0.5679210000000 1.0
C      1  0.5715600000000  0.4112440000000  0.5369510000000 1.0
C      1  0.5444300000000  0.5507310000000  0.5094680000000 1.0
C      1  0.5852960000000  0.5413600000000  0.4424720000000 1.0
C      1  0.4924530000000  0.4806750000000  0.4288150000000 1.0
C      1  0.4620520000000  0.5727370000000  0.4354780000000 1.0
C      1  0.4048330000000  0.5205210000000  0.4910300000000 1.0
C      1  0.5672090000000  0.4645050000000  0.5440380000000 1.0
C      1  0.5853320000000  0.5666960000000  0.4544780000000 1.0
C      1  0.5219690000000  0.4528300000000  0.3989740000000 1.0
C      1  0.5911820000000  0.5177040000000  0.4642660000000 1.0
C      1  0.5019270000000  0.4868900000000  0.6157830000000 1.0
C      1  0.5027700000000  0.4186120000000  0.4976890000000 1.0
C      1  0.3931720000000  0.5128040000000  0.5285010000000 1.0
C      1  0.5327990000000  0.5294690000000  0.4577200000000 1.0
C      1  0.5016740000000  0.5408620000000  0.6036490000000 1.0
C      1  0.4881460000000  0.4207390000000  0.5445160000000 1.0
C      1  0.5085120000000  0.4980180000000  0.5397270000000 1.0
C      1  0.5273790000000  0.5727910000000  0.5232420000000 1.0
C      1  0.4713450000000  0.4256740000000  0.5086610000000 1.0
C      1  0.5329640000000  0.5393830000000  0.5902230000000 1.0
C      1  0.4964710000000  0.6133800000000  0.5398040000000 1.0
C      1  0.5028490000000  0.6098430000000  0.4890660000000 1.0
C      1  0.4755260000000  0.4813390000000  0.4002810000000 1.0
C      1  0.5950020000000  0.5400620000000  0.5711060000000 1.0
C      1  0.3881320000000  0.4594440000000  0.5670310000000 1.0
C      1  0.5581910000000  0.5016550000000  0.5100300000000 1.0
C      1  0.4048960000000  0.4458710000000  0.4802020000000 1.0
C      1  0.5321360000000  0.4060360000000  0.4211630000000 1.0
C      1  0.4463520000000  0.4768270000000  0.4068400000000 1.0
C      1  0.6136920000000  0.5582410000000  0.4953230000000 1.0
C      1  0.4413050000000  0.4868270000000  0.5916070000000 1.0
C      1  0.4630080000000  0.5111500000000  0.4911110000000 1.0
C      1  0.4440610000000  0.5056650000000  0.4673870000000 1.0
C      1  0.5509940000000  0.4345920000000  0.5423910000000 1.0
C      1  0.5485670000000  0.4533710000000  0.5911170000000 1.0
C      1  0.4797700000000  0.4846870000000  0.5828770000000 1.0
C      1  0.5300880000000  0.4679070000000  0.6094350000000 1.0
C      1  0.4713990000000  0.4476810000000  0.5682430000000 1.0
C      1  0.4527000000000  0.5470580000000  0.4172620000000 1.0
C      1  0.4841630000000  0.5107100000000  0.3941200000000 1.0
C      1  0.5422500000000  0.5861200000000  0.5493160000000 1.0
C      1  0.6052790000000  0.4285840000000  0.4547700000000 1.0
C      1  0.5172650000000  0.5087580000000  0.4424860000000 1.0
C      1  0.5376260000000  0.4804680000000  0.5389050000000 1.0
C      1  0.5529760000000  0.4138240000000  0.4633740000000 1.0
C      1  0.5219430000000  0.5718480000000  0.4836470000000 1.0
C      1  0.4909570000000  0.5986850000000  0.5663640000000 1.0
C      1  0.4949030000000  0.5218810000000  0.5197520000000 1.0
C      1  0.4175460000000  0.5646930000000  0.4629790000000 1.0
C      1  0.5340490000000  0.4349090000000  0.5709560000000 1.0
C      1  0.6103630000000  0.4975970000000  0.4844600000000 1.0
C      1  0.5295810000000  0.6118540000000  0.5310250000000 1.0
C      1  0.4586210000000  0.5400680000000  0.5050900000000 1.0
C      1  0.4140860000000  0.5317420000000  0.5652570000000 1.0
C      1  0.4771030000000  0.4332020000000  0.4184080000000 1.0
C      1  0.4175010000000  0.5020370000000  0.5496740000000 1.0
C      1  0.4949770000000  0.5482060000000  0.5363950000000 1.0
C      1  0.5516670000000  0.4744060000000  0.4951870000000 1.0
C      1  0.4362880000000  0.5016110000000  0.5213330000000 1.0
C      1  0.4697900000000  0.6011710000000  0.4522840000000 1.0
C      1  0.4702160000000  0.4995020000000  0.5222350000000 1.0
C      1  0.4684270000000  0.4912050000000  0.6118020000000 1.0
C      1  0.5225260000000  0.4675900000000  0.5113240000000 1.0
C      1  0.5729360000000  0.4694920000000  0.4705710000000 1.0
C      1  0.4505300000000  0.5443730000000  0.4726220000000 1.0
C      1  0.5582640000000  0.5789430000000  0.4637570000000 1.0
C      1  0.5458100000000  0.5306300000000  0.5599670000000 1.0
C      1  0.5137280000000  0.4832970000000  0.5838920000000 1.0
C      1  0.4998860000000  0.5606510000000  0.4012410000000 1.0
C      1  0.4510440000000  0.5394550000000  0.5354490000000 1.0
C      1  0.5201970000000  0.3997160000000  0.5335700000000 1.0
C      1  0.5569850000000  0.5185440000000  0.5961370000000 1.0
C      1  0.5551880000000  0.5199680000000  0.4815010000000 1.0
C      1  0.5167740000000  0.5139530000000  0.3909960000000 1.0
C      1  0.5237720000000  0.4040950000000  0.5613400000000 1.0
C      1  0.4878960000000  0.4818430000000  0.5534120000000 1.0
C      1  0.5973580000000  0.5342770000000  0.4923270000000 1.0
C      1  0.4751870000000  0.5664240000000  0.5187820000000 1.0
C      1  0.5399120000000  0.4882950000000  0.4386960000000 1.0
C      1  0.4986640000000  0.4184480000000  0.5753220000000 1.0
C      1  0.5075670000000  0.4018430000000  0.4745450000000 1.0
C      1  0.4417810000000  0.4743650000000  0.4620100000000 1.0
C      1  0.5499970000000  0.5597000000000  0.4111060000000 1.0
C      1  0.4570060000000  0.4269020000000  0.5473420000000 1.0
C      1  0.4237650000000  0.4937930000000  0.4919470000000 1.0
C      1  0.4577580000000  0.4091770000000  0.4754260000000 1.0
C      1  0.4549930000000  0.5716080000000  0.5457730000000 1.0
C      1  0.5826640000000  0.5624570000000  0.5751440000000 1.0
C      1  0.4597060000000  0.4422620000000  0.4834000000000 1.0
C      1  0.4351220000000  0.4620420000000  0.5256840000000 1.0
C      1  0.4790690000000  0.5578500000000  0.5888200000000 1.0
C      1  0.5751380000000  0.4972180000000  0.5391980000000 1.0
C      1  0.4870830000000  0.5090440000000  0.4561420000000 1.0
C      1  0.5702580000000  0.4432010000000  0.4270880000000 1.0
C      1  0.3920500000000  0.4037890000000  0.4521790000000 1.0
C      1  0.5592430000000  0.5317850000000  0.5285890000000 1.0
C      1  0.5961650000000  0.4562940000000  0.5305690000000 1.0
C      1  0.4736220000000  0.5415360000000  0.3971680000000 1.0
C      1  0.4814230000000  0.5663430000000  0.4853540000000 1.0
C      1  0.4152020000000  0.4763020000000  0.5717910000000 1.0
C      1  0.4829780000000  0.4680400000000  0.5168400000000 1.0
C      1  0.5092030000000  0.4921180000000  0.4974780000000 1.0
C      1  0.4318970000000  0.4976500000000  0.4252790000000 1.0
C      1  0.5254900000000  0.4582990000000  0.4315420000000 1.0
C      1  0.4647110000000  0.4994500000000  0.4340970000000 1.0
C      1  0.5317880000000  0.4605850000000  0.4727950000000 1.0
C      1  0.3923630000000  0.5071070000000  0.4555470000000 1.0
C      1  0.4665550000000  0.5177190000000  0.5507380000000 1.0
C      1  0.5162330000000  0.5912520000000  0.5789540000000 1.0
C      1  0.4522440000000  0.4325050000000  0.4318830000000 1.0
C      1  0.4008890000000  0.4792460000000  0.4737270000000 1.0
C      1  0.4430040000000  0.5817900000000  0.4611110000000 1.0
C      1  0.4801690000000  0.3901200000000  0.4639780000000 1.0
C      1  0.4997110000000  0.4494890000000  0.4937740000000 1.0
C      1  0.4889590000000  0.5535880000000  0.4318620000000 1.0
C      1  0.5760240000000  0.4373560000000  0.4602420000000 1.0
C      1  0.4398050000000  0.4638060000000  0.4936600000000 1.0
C      1  0.5648390000000  0.4969590000000  0.4583920000000 1.0
C      1  0.4489420000000  0.4929300000000  0.5588890000000 1.0
C      1  0.5799650000000  0.4301580000000  0.4932510000000 1.0
C      1  0.5816900000000  0.4072080000000  0.5140670000000 1.0
C      1  0.6203680000000  0.5080250000000  0.5106240000000 1.0
C      1  0.5222370000000  0.5874530000000  0.4410080000000 1.0
C      1  0.5709600000000  0.5425070000000  0.4178910000000 1.0
C      1  0.4507820000000  0.5281330000000  0.4427470000000 1.0
C      1  0.5629400000000  0.5530970000000  0.4846730000000 1.0
C      1  0.5984280000000  0.4517420000000  0.5040290000000 1.0
C      1  0.4214400000000  0.5502520000000  0.5417780000000 1.0
C      1  0.4847260000000  0.4893370000000  0.4812110000000 1.0
C      1  0.4720010000000  0.3930900000000  0.5019130000000 1.0
C      1  0.4831800000000  0.4574860000000  0.4692390000000 1.0
C      1  0.4227750000000  0.5329670000000  0.5905110000000 1.0
C      1  0.4727570000000  0.5777450000000  0.5698360000000 1.0
C      1  0.4383000000000  0.4591900000000  0.4335820000000 1.0
C      1  0.4989290000000  0.5127840000000  0.5756260000000 1.0
END
