TITL C-2848497-6229-307 -0.000413455456094792 125000 -368.8788381208 0 0 65 (C1) n - 1
REM
REM in /home/bkarasulu/work/CARBON/AIRSS/Generating-Clusters/AIREBO/with-SteepDescent/Only-C1/SD-CG-opt/Try1-1.4A-POS3A/HFTN-CG
REM
REM
REM
REM
REM
REM ./C.cell (11c1c37f851c82e70ff6c80c92926a4b)
REM
REM compiler GCC version 9.2.1 20190827 (Red Hat 9.2.1-1)
REM options -cpp -mtune=generic -march=x86-64 -g -O0 -fpre-include=/usr/include/finclude/math-vector-fortran.h
REM seed -1631609974 -1025079889 577522786 -28222503 -2117657646 -989566565 -21761077 -6469444 1655291681 1817602914 213079525 -1251966329 998317166 815562031 -1050852339 1989666800 1752959832 702755703 200478942 750353620 -241098978 1669835003 550424590 -1950276880 -2116712898 -1015521646 337017163 404935883 -2092505609 -985807646 2126770324 1085539053 -169689172
REM
CELL 1.54180   50.00000   50.00000   50.00000   90.00000   90.00000   90.00000
LATT -1
SFAC C  
C      1  0.4594040000000  0.4947030000000  0.4482390000000 1.0
C      1  0.5759210000000  0.5176970000000  0.5152700000000 1.0
C      1  0.5315890000000  0.4721280000000  0.5578470000000 1.0
C      1  0.5225730000000  0.4840250000000  0.4335790000000 1.0
C      1  0.4981480000000  0.5495840000000  0.5599780000000 1.0
C      1  0.5212400000000  0.5726840000000  0.4995620000000 1.0
C      1  0.5040710000000  0.5270820000000  0.4863200000000 1.0
C      1  0.4577610000000  0.4763730000000  0.5198430000000 1.0
C      1  0.4870340000000  0.4188430000000  0.5344790000000 1.0
C      1  0.5057030000000  0.4920890000000  0.5320880000000 1.0
C      1  0.4332800000000  0.5164440000000  0.4803710000000 1.0
C      1  0.4960470000000  0.4434290000000  0.5406320000000 1.0
C      1  0.4901740000000  0.5364390000000  0.5161780000000 1.0
C      1  0.4701740000000  0.4504260000000  0.4287690000000 1.0
C      1  0.5919790000000  0.5060830000000  0.4435880000000 1.0
C      1  0.4969980000000  0.4762140000000  0.4837750000000 1.0
C      1  0.5518170000000  0.4715900000000  0.4397200000000 1.0
C      1  0.5878550000000  0.4980150000000  0.5015900000000 1.0
C      1  0.4222690000000  0.4962190000000  0.5483580000000 1.0
C      1  0.4860460000000  0.4669880000000  0.5298290000000 1.0
C      1  0.5222410000000  0.4767800000000  0.5066160000000 1.0
C      1  0.4769830000000  0.4510840000000  0.4776660000000 1.0
C      1  0.5435990000000  0.4796620000000  0.5329230000000 1.0
C      1  0.4810610000000  0.4377000000000  0.4510850000000 1.0
C      1  0.4915000000000  0.5762940000000  0.4834520000000 1.0
C      1  0.5677210000000  0.4963570000000  0.4471870000000 1.0
C      1  0.4607850000000  0.4328750000000  0.4949250000000 1.0
C      1  0.4452140000000  0.4920610000000  0.4722460000000 1.0
C      1  0.4827050000000  0.5183290000000  0.4502270000000 1.0
C      1  0.5233620000000  0.4764830000000  0.4666430000000 1.0
C      1  0.5255040000000  0.5291190000000  0.4629940000000 1.0
C      1  0.4955740000000  0.4144910000000  0.4496870000000 1.0
C      1  0.4503740000000  0.5571450000000  0.5404710000000 1.0
C      1  0.5744600000000  0.4739320000000  0.5003230000000 1.0
C      1  0.4544350000000  0.4718930000000  0.4898040000000 1.0
C      1  0.4555290000000  0.5275600000000  0.5492470000000 1.0
C      1  0.4221490000000  0.5192050000000  0.5287120000000 1.0
C      1  0.5212320000000  0.4970690000000  0.5685600000000 1.0
C      1  0.5314320000000  0.5599510000000  0.5221990000000 1.0
C      1  0.4652040000000  0.5702600000000  0.4832300000000 1.0
C      1  0.4925530000000  0.5469150000000  0.4492210000000 1.0
C      1  0.4655030000000  0.4804020000000  0.5681360000000 1.0
C      1  0.5481340000000  0.4239830000000  0.4619890000000 1.0
C      1  0.5426010000000  0.5030250000000  0.4624520000000 1.0
C      1  0.5169660000000  0.5175060000000  0.5158410000000 1.0
C      1  0.4326220000000  0.5456820000000  0.5197130000000 1.0
C      1  0.5175410000000  0.4477260000000  0.5586710000000 1.0
C      1  0.4908700000000  0.4984530000000  0.5620390000000 1.0
C      1  0.5200560000000  0.5175810000000  0.4330200000000 1.0
C      1  0.5498270000000  0.4649750000000  0.4940900000000 1.0
C      1  0.4685070000000  0.4777580000000  0.4246320000000 1.0
C      1  0.5166200000000  0.5603960000000  0.4681490000000 1.0
C      1  0.4806030000000  0.5559310000000  0.5367570000000 1.0
C      1  0.5458180000000  0.4509620000000  0.4657830000000 1.0
C      1  0.5448940000000  0.5312320000000  0.5187480000000 1.0
C      1  0.5564260000000  0.5072070000000  0.5382690000000 1.0
C      1  0.4451100000000  0.4789180000000  0.5496060000000 1.0
C      1  0.4469000000000  0.5450690000000  0.4909290000000 1.0
C      1  0.4828300000000  0.5034310000000  0.4795550000000 1.0
C      1  0.4933990000000  0.4970510000000  0.4279020000000 1.0
C      1  0.5249300000000  0.5449870000000  0.5505210000000 1.0
C      1  0.5361490000000  0.5199530000000  0.5584520000000 1.0
C      1  0.4531150000000  0.5077810000000  0.5233640000000 1.0
C      1  0.4796690000000  0.5259310000000  0.5631830000000 1.0
C      1  0.4672050000000  0.5218400000000  0.5007670000000 1.0
END
