TITL C-2847950-6905-225 0.000288998665116405 125000 -1043.98905926769 0 0 199 (C1) n - 1
REM
REM in /home/bkarasulu/work/CARBON/AIRSS/Generating-Clusters/AIREBO/with-SteepDescent/Only-C1/SD-CG-opt/Try1-1.4A-POS3A/HFTN-CG
REM
REM
REM
REM
REM
REM ./C.cell (11c1c37f851c82e70ff6c80c92926a4b)
REM
REM compiler GCC version 9.2.1 20190827 (Red Hat 9.2.1-1)
REM options -cpp -mtune=generic -march=x86-64 -g -O0 -fpre-include=/usr/include/finclude/math-vector-fortran.h
REM seed -707441453 1941653328 1953698323 -1283912287 871979638 2136104370 -1875985563 -1325055469 85743928 2062496427 -1724328731 -147370570 210559314 1088842421 230168785 1872595165 -1637176900 1158380569 330143378 1995227631 -156030834 1540168722 -1580882120 615154998 -1412745510 1038881340 705767534 129885205 -834564978 -561667807 -324789747 1729920703 -797041156
REM
CELL 1.54180   50.00000   50.00000   50.00000   90.00000   90.00000   90.00000
LATT -1
SFAC C  
C      1  0.4736900000000  0.5040770000000  0.4787100000000 1.0
C      1  0.5221050000000  0.5666150000000  0.4130920000000 1.0
C      1  0.4752600000000  0.4733700000000  0.3903720000000 1.0
C      1  0.5233140000000  0.4720470000000  0.5713520000000 1.0
C      1  0.5325730000000  0.5604220000000  0.4960740000000 1.0
C      1  0.5282460000000  0.5986980000000  0.5339460000000 1.0
C      1  0.5108340000000  0.5725270000000  0.5422400000000 1.0
C      1  0.4832810000000  0.4363910000000  0.5396280000000 1.0
C      1  0.4272430000000  0.5424770000000  0.5595560000000 1.0
C      1  0.3935910000000  0.5600170000000  0.4936910000000 1.0
C      1  0.4635070000000  0.5585630000000  0.5360260000000 1.0
C      1  0.5030080000000  0.4558970000000  0.4322610000000 1.0
C      1  0.4768680000000  0.3884420000000  0.5189610000000 1.0
C      1  0.4461230000000  0.4485870000000  0.5639000000000 1.0
C      1  0.4345940000000  0.5794830000000  0.4519440000000 1.0
C      1  0.4455670000000  0.4556640000000  0.4473480000000 1.0
C      1  0.5143830000000  0.5276930000000  0.3926870000000 1.0
C      1  0.3851910000000  0.4964410000000  0.5228650000000 1.0
C      1  0.4937260000000  0.4857020000000  0.5222500000000 1.0
C      1  0.6085730000000  0.4447740000000  0.5677210000000 1.0
C      1  0.4071010000000  0.5488330000000  0.5151620000000 1.0
C      1  0.4084780000000  0.4716720000000  0.5235990000000 1.0
C      1  0.5215110000000  0.4771530000000  0.4654200000000 1.0
C      1  0.5164180000000  0.4956500000000  0.5478570000000 1.0
C      1  0.4595650000000  0.5173370000000  0.6008840000000 1.0
C      1  0.5426390000000  0.4282670000000  0.5275920000000 1.0
C      1  0.5333670000000  0.5137590000000  0.4532440000000 1.0
C      1  0.4600310000000  0.4596810000000  0.6034590000000 1.0
C      1  0.4802960000000  0.5334450000000  0.4418590000000 1.0
C      1  0.4206270000000  0.4670490000000  0.4788670000000 1.0
C      1  0.5872070000000  0.4787470000000  0.5528340000000 1.0
C      1  0.4021800000000  0.5407290000000  0.5418790000000 1.0
C      1  0.5580180000000  0.4714130000000  0.5692010000000 1.0
C      1  0.4477920000000  0.4881500000000  0.4375610000000 1.0
C      1  0.4765540000000  0.4437850000000  0.5783240000000 1.0
C      1  0.4893450000000  0.5032750000000  0.4333210000000 1.0
C      1  0.5739590000000  0.5622900000000  0.4346650000000 1.0
C      1  0.5533110000000  0.5483560000000  0.5454300000000 1.0
C      1  0.5150880000000  0.6161060000000  0.5078680000000 1.0
C      1  0.5579110000000  0.5259660000000  0.5119530000000 1.0
C      1  0.4831450000000  0.5279400000000  0.5526020000000 1.0
C      1  0.4642390000000  0.4215950000000  0.4775990000000 1.0
C      1  0.4764990000000  0.5702370000000  0.5651990000000 1.0
C      1  0.5117750000000  0.3934930000000  0.5542670000000 1.0
C      1  0.5059230000000  0.5351490000000  0.4728850000000 1.0
C      1  0.4633060000000  0.6127470000000  0.5189100000000 1.0
C      1  0.4251100000000  0.5093270000000  0.5826720000000 1.0
C      1  0.4971340000000  0.4871470000000  0.5890600000000 1.0
C      1  0.5784890000000  0.5742280000000  0.4693300000000 1.0
C      1  0.4926010000000  0.6165450000000  0.4823010000000 1.0
C      1  0.5009010000000  0.6169210000000  0.4522820000000 1.0
C      1  0.5865720000000  0.4874970000000  0.4407650000000 1.0
C      1  0.4756120000000  0.4834130000000  0.4539310000000 1.0
C      1  0.5773040000000  0.4434090000000  0.5684030000000 1.0
C      1  0.4274650000000  0.4313000000000  0.4626910000000 1.0
C      1  0.4490430000000  0.5899870000000  0.5273200000000 1.0
C      1  0.3978800000000  0.4367780000000  0.4468510000000 1.0
C      1  0.5059060000000  0.5024680000000  0.4819080000000 1.0
C      1  0.6102870000000  0.5272540000000  0.4952410000000 1.0
C      1  0.4731120000000  0.4357790000000  0.4487580000000 1.0
C      1  0.4065370000000  0.4865250000000  0.5789500000000 1.0
C      1  0.4414170000000  0.4348180000000  0.4071630000000 1.0
C      1  0.5863940000000  0.5200990000000  0.4447130000000 1.0
C      1  0.5233420000000  0.5388890000000  0.5863190000000 1.0
C      1  0.4665120000000  0.5293500000000  0.3909830000000 1.0
C      1  0.4877660000000  0.5197980000000  0.5831740000000 1.0
C      1  0.4418040000000  0.4991460000000  0.5364730000000 1.0
C      1  0.5297240000000  0.4191860000000  0.5561840000000 1.0
C      1  0.5159180000000  0.4987470000000  0.6149250000000 1.0
C      1  0.5989040000000  0.4521210000000  0.5359040000000 1.0
C      1  0.5059890000000  0.5390500000000  0.4202950000000 1.0
C      1  0.4209850000000  0.5575640000000  0.4419020000000 1.0
C      1  0.4466470000000  0.5656090000000  0.5751940000000 1.0
C      1  0.4696020000000  0.4858780000000  0.6089830000000 1.0
C      1  0.4320050000000  0.4223320000000  0.4301840000000 1.0
C      1  0.4834260000000  0.4668820000000  0.4958310000000 1.0
C      1  0.5260270000000  0.4387270000000  0.5050320000000 1.0
C      1  0.4937610000000  0.5312980000000  0.3749180000000 1.0
C      1  0.5802750000000  0.4265140000000  0.4940320000000 1.0
C      1  0.4355280000000  0.5418340000000  0.4226320000000 1.0
C      1  0.4997180000000  0.4586040000000  0.6073650000000 1.0
C      1  0.4821860000000  0.5176700000000  0.5210930000000 1.0
C      1  0.5543240000000  0.5495380000000  0.5794050000000 1.0
C      1  0.4336990000000  0.4178350000000  0.5638460000000 1.0
C      1  0.5570260000000  0.5044170000000  0.4037540000000 1.0
C      1  0.5103100000000  0.5414660000000  0.5439630000000 1.0
C      1  0.5145880000000  0.4196650000000  0.4079280000000 1.0
C      1  0.6044190000000  0.5064310000000  0.5419380000000 1.0
C      1  0.5367950000000  0.4101530000000  0.4902760000000 1.0
C      1  0.4420550000000  0.4929020000000  0.4842390000000 1.0
C      1  0.5577170000000  0.5171410000000  0.5892910000000 1.0
C      1  0.5772600000000  0.4980770000000  0.5096280000000 1.0
C      1  0.5298410000000  0.5036450000000  0.3926700000000 1.0
C      1  0.5608890000000  0.5325870000000  0.4576890000000 1.0
C      1  0.5226540000000  0.4711950000000  0.4147870000000 1.0
C      1  0.4341910000000  0.4120790000000  0.5180150000000 1.0
C      1  0.4909160000000  0.5754520000000  0.4150060000000 1.0
C      1  0.4913470000000  0.5644220000000  0.5174060000000 1.0
C      1  0.4225470000000  0.4993160000000  0.5096530000000 1.0
C      1  0.5490870000000  0.4547500000000  0.4637950000000 1.0
C      1  0.4678730000000  0.5504160000000  0.4164340000000 1.0
C      1  0.5941060000000  0.4789890000000  0.4902960000000 1.0
C      1  0.6126910000000  0.4906550000000  0.5704580000000 1.0
C      1  0.5228400000000  0.5248150000000  0.6138630000000 1.0
C      1  0.5721320000000  0.5135600000000  0.5402760000000 1.0
C      1  0.4463210000000  0.6006050000000  0.4758700000000 1.0
C      1  0.4132930000000  0.4571630000000  0.4357810000000 1.0
C      1  0.5410970000000  0.4273190000000  0.4167100000000 1.0
C      1  0.5493520000000  0.5183700000000  0.4829950000000 1.0
C      1  0.3933150000000  0.5040170000000  0.4922560000000 1.0
C      1  0.6014520000000  0.5070300000000  0.4722760000000 1.0
C      1  0.4495710000000  0.3856630000000  0.5169830000000 1.0
C      1  0.5257360000000  0.4059770000000  0.4600140000000 1.0
C      1  0.4357440000000  0.5391350000000  0.5924990000000 1.0
C      1  0.4927840000000  0.5972450000000  0.5524700000000 1.0
C      1  0.4610570000000  0.5334630000000  0.5045090000000 1.0
C      1  0.5179330000000  0.4926390000000  0.4372210000000 1.0
C      1  0.4287540000000  0.5311130000000  0.5046100000000 1.0
C      1  0.5169300000000  0.4349390000000  0.6209070000000 1.0
C      1  0.5756880000000  0.4372760000000  0.4620880000000 1.0
C      1  0.4497950000000  0.4996450000000  0.3940500000000 1.0
C      1  0.5473670000000  0.4547910000000  0.4117130000000 1.0
C      1  0.5237760000000  0.5437160000000  0.4458170000000 1.0
C      1  0.5483810000000  0.5643580000000  0.4569830000000 1.0
C      1  0.5130030000000  0.5683280000000  0.4751820000000 1.0
C      1  0.5365280000000  0.5925790000000  0.4713440000000 1.0
C      1  0.5034620000000  0.4258720000000  0.4748300000000 1.0
C      1  0.5748410000000  0.4769710000000  0.4655120000000 1.0
C      1  0.4956330000000  0.5528180000000  0.5810430000000 1.0
C      1  0.4850700000000  0.5816420000000  0.4621350000000 1.0
C      1  0.4925320000000  0.5855140000000  0.4961990000000 1.0
C      1  0.4934700000000  0.3974810000000  0.4589340000000 1.0
C      1  0.5078000000000  0.4548600000000  0.5249930000000 1.0
C      1  0.5215070000000  0.4976930000000  0.5085500000000 1.0
C      1  0.5443790000000  0.5976610000000  0.5040340000000 1.0
C      1  0.4879150000000  0.5947990000000  0.4353250000000 1.0
C      1  0.4643140000000  0.5357400000000  0.4705930000000 1.0
C      1  0.5426600000000  0.4607400000000  0.4949610000000 1.0
C      1  0.6176320000000  0.4956890000000  0.4443250000000 1.0
C      1  0.4589580000000  0.5690510000000  0.4748400000000 1.0
C      1  0.4032510000000  0.5046080000000  0.4381900000000 1.0
C      1  0.5338170000000  0.4787490000000  0.6029900000000 1.0
C      1  0.4644890000000  0.4749760000000  0.5355460000000 1.0
C      1  0.5493160000000  0.5602360000000  0.4115880000000 1.0
C      1  0.4655740000000  0.4463340000000  0.4002520000000 1.0
C      1  0.5419730000000  0.6133580000000  0.5564630000000 1.0
C      1  0.5490760000000  0.4897340000000  0.4808560000000 1.0
C      1  0.5686330000000  0.5327880000000  0.4185940000000 1.0
C      1  0.5284820000000  0.6150410000000  0.4524270000000 1.0
C      1  0.3849260000000  0.5177270000000  0.5419850000000 1.0
C      1  0.4143680000000  0.4211880000000  0.5408210000000 1.0
C      1  0.4009690000000  0.5466370000000  0.4654590000000 1.0
C      1  0.4304700000000  0.5326530000000  0.4716340000000 1.0
C      1  0.5656860000000  0.4490560000000  0.5369520000000 1.0
C      1  0.5638250000000  0.4166290000000  0.5568830000000 1.0
C      1  0.5069640000000  0.4431790000000  0.5630950000000 1.0
C      1  0.5336970000000  0.5232660000000  0.5579460000000 1.0
C      1  0.4870410000000  0.4060720000000  0.4970780000000 1.0
C      1  0.4867820000000  0.4334640000000  0.4176530000000 1.0
C      1  0.4391120000000  0.4623680000000  0.5165630000000 1.0
C      1  0.4940580000000  0.4570770000000  0.4650410000000 1.0
C      1  0.4339910000000  0.4769400000000  0.5611710000000 1.0
C      1  0.5514840000000  0.3935010000000  0.5099310000000 1.0
C      1  0.5085780000000  0.4799290000000  0.3882250000000 1.0
C      1  0.5592440000000  0.4713630000000  0.5181030000000 1.0
C      1  0.4783320000000  0.4363280000000  0.5059660000000 1.0
C      1  0.4892620000000  0.6146200000000  0.5301310000000 1.0
C      1  0.5746260000000  0.5818000000000  0.5022830000000 1.0
C      1  0.5596300000000  0.4911720000000  0.5962060000000 1.0
C      1  0.5716510000000  0.4760150000000  0.4154090000000 1.0
C      1  0.4388070000000  0.4355990000000  0.4953050000000 1.0
C      1  0.5640830000000  0.4078170000000  0.4701040000000 1.0
C      1  0.4304330000000  0.5100420000000  0.4180980000000 1.0
C      1  0.4543190000000  0.4615180000000  0.4796820000000 1.0
C      1  0.5795990000000  0.4487570000000  0.4341790000000 1.0
C      1  0.4552940000000  0.4985770000000  0.5740130000000 1.0
C      1  0.3925320000000  0.5156410000000  0.4666280000000 1.0
C      1  0.5566320000000  0.5559410000000  0.5063300000000 1.0
C      1  0.4509100000000  0.5278460000000  0.5437060000000 1.0
C      1  0.4299600000000  0.5055370000000  0.4575060000000 1.0
C      1  0.4802840000000  0.5019060000000  0.4055860000000 1.0
C      1  0.4495990000000  0.5651010000000  0.5056860000000 1.0
C      1  0.4862380000000  0.3943560000000  0.5448590000000 1.0
C      1  0.5513050000000  0.6265470000000  0.5762180000000 1.0
C      1  0.5450600000000  0.4943740000000  0.5328450000000 1.0
C      1  0.5772140000000  0.5279080000000  0.5680480000000 1.0
C      1  0.5985450000000  0.4513720000000  0.5043610000000 1.0
C      1  0.4498480000000  0.4379490000000  0.5335680000000 1.0
C      1  0.4624070000000  0.6175760000000  0.4907010000000 1.0
C      1  0.5722420000000  0.4119320000000  0.5239440000000 1.0
C      1  0.5806480000000  0.5569250000000  0.5270370000000 1.0
C      1  0.5264060000000  0.5268160000000  0.5192600000000 1.0
C      1  0.5006930000000  0.5381280000000  0.5048600000000 1.0
C      1  0.4675330000000  0.4145660000000  0.5604310000000 1.0
C      1  0.5480780000000  0.4171530000000  0.4415400000000 1.0
C      1  0.4757950000000  0.4752350000000  0.5654040000000 1.0
C      1  0.4890120000000  0.4280090000000  0.6057540000000 1.0
C      1  0.6015770000000  0.5328550000000  0.5213490000000 1.0
C      1  0.3984360000000  0.4423950000000  0.5335650000000 1.0
END
