TITL C-2848508-1660-61 0.000935282205527879 125000 -905.903885150232 0 0 172 (C1) n - 1
REM
REM in /home/bkarasulu/work/CARBON/AIRSS/Generating-Clusters/AIREBO/with-SteepDescent/Only-C1/SD-CG-opt/Try1-1.4A-POS3A/HFTN-CG
REM
REM
REM
REM
REM
REM ./C.cell (11c1c37f851c82e70ff6c80c92926a4b)
REM
REM compiler GCC version 9.2.1 20190827 (Red Hat 9.2.1-1)
REM options -cpp -mtune=generic -march=x86-64 -g -O0 -fpre-include=/usr/include/finclude/math-vector-fortran.h
REM seed -1781094986 837378991 -514883291 -1105149092 -825411960 1932712852 1386453178 192284953 -788393443 1449058974 -1555385509 1046146239 -1204530948 -1025367953 1937658334 60226777 -1768483283 -1585422753 -1926652044 1190361984 1117169022 -575723595 1125033425 721700040 467556544 -530125200 -1040426652 1513740913 -1031880429 -415156858 -1178845619 -952091587 -743416738
REM
CELL 1.54180   50.00000   50.00000   50.00000   90.00000   90.00000   90.00000
LATT -1
SFAC C  
C      1  0.5396330000000  0.5340700000000  0.5723740000000 1.0
C      1  0.5212230000000  0.5951680000000  0.5048470000000 1.0
C      1  0.4690630000000  0.4070430000000  0.5000090000000 1.0
C      1  0.5714130000000  0.5223360000000  0.5692580000000 1.0
C      1  0.5276660000000  0.5082250000000  0.4993050000000 1.0
C      1  0.5097640000000  0.4687190000000  0.3906890000000 1.0
C      1  0.4780030000000  0.5400970000000  0.5877250000000 1.0
C      1  0.4214710000000  0.5238000000000  0.4253640000000 1.0
C      1  0.5927370000000  0.5038510000000  0.5500540000000 1.0
C      1  0.5161690000000  0.4855000000000  0.6457220000000 1.0
C      1  0.5635870000000  0.4527100000000  0.5305390000000 1.0
C      1  0.4363460000000  0.5152110000000  0.5867330000000 1.0
C      1  0.5929140000000  0.5152050000000  0.4863190000000 1.0
C      1  0.5762660000000  0.4488300000000  0.4991970000000 1.0
C      1  0.5152470000000  0.3819700000000  0.5286920000000 1.0
C      1  0.5193650000000  0.5065140000000  0.5738100000000 1.0
C      1  0.4476470000000  0.5379830000000  0.5961100000000 1.0
C      1  0.4475780000000  0.5043970000000  0.5565120000000 1.0
C      1  0.4721840000000  0.5897280000000  0.4863410000000 1.0
C      1  0.4953990000000  0.5182830000000  0.4995820000000 1.0
C      1  0.4309170000000  0.5840000000000  0.5054600000000 1.0
C      1  0.4352330000000  0.4265220000000  0.4920380000000 1.0
C      1  0.5592810000000  0.4845030000000  0.5032220000000 1.0
C      1  0.5052240000000  0.5097410000000  0.6264510000000 1.0
C      1  0.5049270000000  0.5679310000000  0.4930520000000 1.0
C      1  0.5508610000000  0.5299150000000  0.5011730000000 1.0
C      1  0.4572950000000  0.5335660000000  0.4691200000000 1.0
C      1  0.5354030000000  0.4595920000000  0.4111100000000 1.0
C      1  0.4465530000000  0.4720050000000  0.5674700000000 1.0
C      1  0.5106720000000  0.4804430000000  0.6145280000000 1.0
C      1  0.4917520000000  0.6057610000000  0.5067530000000 1.0
C      1  0.4354180000000  0.5788150000000  0.4550590000000 1.0
C      1  0.4906830000000  0.5584020000000  0.4358290000000 1.0
C      1  0.6002620000000  0.4720770000000  0.5571940000000 1.0
C      1  0.5778450000000  0.5176460000000  0.5156250000000 1.0
C      1  0.4005160000000  0.4553300000000  0.4946350000000 1.0
C      1  0.3885160000000  0.4701490000000  0.4702130000000 1.0
C      1  0.5073430000000  0.4590040000000  0.4293490000000 1.0
C      1  0.4085970000000  0.5342380000000  0.4841770000000 1.0
C      1  0.3988770000000  0.4915940000000  0.5106110000000 1.0
C      1  0.4107620000000  0.4947280000000  0.4788100000000 1.0
C      1  0.5218860000000  0.4973040000000  0.4313940000000 1.0
C      1  0.4913180000000  0.5675580000000  0.5899340000000 1.0
C      1  0.4798830000000  0.5638560000000  0.5423710000000 1.0
C      1  0.4426470000000  0.5896170000000  0.4802610000000 1.0
C      1  0.4774040000000  0.4669890000000  0.4379460000000 1.0
C      1  0.5765970000000  0.5008120000000  0.4661060000000 1.0
C      1  0.5267010000000  0.4777680000000  0.4588200000000 1.0
C      1  0.4059960000000  0.5411650000000  0.5478800000000 1.0
C      1  0.4102190000000  0.4710550000000  0.4469380000000 1.0
C      1  0.4142230000000  0.4709840000000  0.5330460000000 1.0
C      1  0.5414100000000  0.4261570000000  0.4096220000000 1.0
C      1  0.5692920000000  0.5808770000000  0.5044260000000 1.0
C      1  0.4997790000000  0.5085010000000  0.4494140000000 1.0
C      1  0.5795830000000  0.5108240000000  0.4360590000000 1.0
C      1  0.5433980000000  0.4228660000000  0.5476130000000 1.0
C      1  0.4961090000000  0.6106890000000  0.5524610000000 1.0
C      1  0.4837030000000  0.4875680000000  0.4908690000000 1.0
C      1  0.4819140000000  0.4670580000000  0.3875200000000 1.0
C      1  0.5469030000000  0.5602180000000  0.5003590000000 1.0
C      1  0.3930900000000  0.5226590000000  0.5044040000000 1.0
C      1  0.5854240000000  0.4852210000000  0.5225170000000 1.0
C      1  0.5139440000000  0.5425840000000  0.5144720000000 1.0
C      1  0.4305920000000  0.5024080000000  0.5048320000000 1.0
C      1  0.5017890000000  0.5729700000000  0.5640320000000 1.0
C      1  0.4662240000000  0.4143880000000  0.4340670000000 1.0
C      1  0.5500330000000  0.4539830000000  0.5930670000000 1.0
C      1  0.4494590000000  0.4683790000000  0.4762400000000 1.0
C      1  0.5796360000000  0.4268320000000  0.4492810000000 1.0
C      1  0.4788290000000  0.4885860000000  0.4582660000000 1.0
C      1  0.5599860000000  0.5294430000000  0.4309310000000 1.0
C      1  0.4648220000000  0.5359220000000  0.4050270000000 1.0
C      1  0.5745280000000  0.5855480000000  0.5318600000000 1.0
C      1  0.3881680000000  0.5375010000000  0.5277020000000 1.0
C      1  0.5770180000000  0.4075300000000  0.4700780000000 1.0
C      1  0.5274440000000  0.4412400000000  0.5014190000000 1.0
C      1  0.5283600000000  0.5261150000000  0.5349900000000 1.0
C      1  0.4993580000000  0.5981750000000  0.4676880000000 1.0
C      1  0.5230580000000  0.4479850000000  0.5732600000000 1.0
C      1  0.4939720000000  0.4388110000000  0.5068990000000 1.0
C      1  0.4448740000000  0.5754070000000  0.4258400000000 1.0
C      1  0.5065460000000  0.4503600000000  0.4594210000000 1.0
C      1  0.4826460000000  0.4369880000000  0.5910980000000 1.0
C      1  0.4791040000000  0.4592690000000  0.5439770000000 1.0
C      1  0.5433230000000  0.5040010000000  0.4718290000000 1.0
C      1  0.5400710000000  0.6139950000000  0.4890210000000 1.0
C      1  0.4567840000000  0.4687090000000  0.5252290000000 1.0
C      1  0.5269590000000  0.5298270000000  0.4228410000000 1.0
C      1  0.4768880000000  0.5279220000000  0.4419120000000 1.0
C      1  0.5472160000000  0.5343900000000  0.4569970000000 1.0
C      1  0.4274850000000  0.4545510000000  0.5520460000000 1.0
C      1  0.6277930000000  0.4563450000000  0.5127290000000 1.0
C      1  0.5604480000000  0.4769850000000  0.5885640000000 1.0
C      1  0.5660240000000  0.6040390000000  0.4885100000000 1.0
C      1  0.5346990000000  0.5794660000000  0.4295370000000 1.0
C      1  0.5510680000000  0.4635820000000  0.4421740000000 1.0
C      1  0.5555130000000  0.5148740000000  0.5411140000000 1.0
C      1  0.4670350000000  0.4415360000000  0.4523890000000 1.0
C      1  0.4785510000000  0.5088410000000  0.5431000000000 1.0
C      1  0.5356310000000  0.4641960000000  0.5461290000000 1.0
C      1  0.5192940000000  0.4948860000000  0.4000450000000 1.0
C      1  0.4748430000000  0.5966770000000  0.5428230000000 1.0
C      1  0.4724870000000  0.5817900000000  0.4234510000000 1.0
C      1  0.4503280000000  0.4795850000000  0.3836100000000 1.0
C      1  0.5017280000000  0.4097530000000  0.5228140000000 1.0
C      1  0.5577790000000  0.4717260000000  0.3944390000000 1.0
C      1  0.4453970000000  0.4173980000000  0.4609010000000 1.0
C      1  0.4203890000000  0.4179730000000  0.5196890000000 1.0
C      1  0.4069950000000  0.5347070000000  0.4541870000000 1.0
C      1  0.4222110000000  0.4486000000000  0.4696920000000 1.0
C      1  0.5860180000000  0.4497360000000  0.5523910000000 1.0
C      1  0.5575430000000  0.5949320000000  0.5510700000000 1.0
C      1  0.5488050000000  0.4260440000000  0.5168400000000 1.0
C      1  0.4763310000000  0.5660430000000  0.5105010000000 1.0
C      1  0.4505730000000  0.4900980000000  0.5935640000000 1.0
C      1  0.4989970000000  0.4186520000000  0.4655230000000 1.0
C      1  0.4234840000000  0.4992730000000  0.4476030000000 1.0
C      1  0.5060380000000  0.4609870000000  0.5296820000000 1.0
C      1  0.5364960000000  0.4576270000000  0.4844140000000 1.0
C      1  0.4332520000000  0.5493560000000  0.4537160000000 1.0
C      1  0.6270250000000  0.5147200000000  0.4866030000000 1.0
C      1  0.4629240000000  0.5003960000000  0.5145270000000 1.0
C      1  0.5153320000000  0.6194600000000  0.4736420000000 1.0
C      1  0.5148320000000  0.5747800000000  0.4529800000000 1.0
C      1  0.5275040000000  0.5511740000000  0.4739270000000 1.0
C      1  0.6027850000000  0.5319610000000  0.5337750000000 1.0
C      1  0.4497700000000  0.5005540000000  0.4656430000000 1.0
C      1  0.4981510000000  0.5405390000000  0.4078680000000 1.0
C      1  0.4833620000000  0.5554010000000  0.4698120000000 1.0
C      1  0.4604040000000  0.4374940000000  0.5122230000000 1.0
C      1  0.5097410000000  0.4294820000000  0.5984970000000 1.0
C      1  0.6138990000000  0.5405230000000  0.4776740000000 1.0
C      1  0.5661140000000  0.4283100000000  0.5620800000000 1.0
C      1  0.5128790000000  0.5186190000000  0.3874470000000 1.0
C      1  0.5322970000000  0.5612380000000  0.5584920000000 1.0
C      1  0.5316190000000  0.4884410000000  0.5226300000000 1.0
C      1  0.4806210000000  0.4553720000000  0.4803450000000 1.0
C      1  0.5036510000000  0.5294620000000  0.4713270000000 1.0
C      1  0.6025090000000  0.4609940000000  0.5144400000000 1.0
C      1  0.4306500000000  0.4684360000000  0.5033820000000 1.0
C      1  0.4305760000000  0.4989730000000  0.4036820000000 1.0
C      1  0.6170700000000  0.4602890000000  0.4559380000000 1.0
C      1  0.4400460000000  0.5497340000000  0.4135250000000 1.0
C      1  0.5666170000000  0.4692090000000  0.4737120000000 1.0
C      1  0.5083710000000  0.4763280000000  0.5849880000000 1.0
C      1  0.5091820000000  0.4058460000000  0.4898570000000 1.0
C      1  0.5915300000000  0.4513540000000  0.4589800000000 1.0
C      1  0.4575660000000  0.4144490000000  0.5486920000000 1.0
C      1  0.4600820000000  0.5090930000000  0.4080120000000 1.0
C      1  0.4372930000000  0.5361840000000  0.5500520000000 1.0
C      1  0.4323230000000  0.4267280000000  0.5444140000000 1.0
C      1  0.4786360000000  0.4313290000000  0.5599330000000 1.0
C      1  0.4083600000000  0.4257410000000  0.4525440000000 1.0
C      1  0.4364790000000  0.5417160000000  0.4947460000000 1.0
C      1  0.5259970000000  0.5949970000000  0.5567760000000 1.0
C      1  0.4490680000000  0.5871610000000  0.5320520000000 1.0
C      1  0.4700470000000  0.3991110000000  0.5290770000000 1.0
C      1  0.4730490000000  0.4077490000000  0.4729000000000 1.0
C      1  0.4371960000000  0.5563750000000  0.5246610000000 1.0
C      1  0.4691820000000  0.5379610000000  0.5562440000000 1.0
C      1  0.4742620000000  0.4939370000000  0.6059780000000 1.0
C      1  0.4787730000000  0.4674330000000  0.5763760000000 1.0
C      1  0.4652860000000  0.4769770000000  0.4136040000000 1.0
C      1  0.5698620000000  0.4171550000000  0.4940550000000 1.0
C      1  0.5080750000000  0.5030160000000  0.5425720000000 1.0
C      1  0.5276220000000  0.5697560000000  0.5259150000000 1.0
C      1  0.4662550000000  0.5336700000000  0.5079580000000 1.0
C      1  0.5395700000000  0.5595230000000  0.4147390000000 1.0
C      1  0.5581920000000  0.4344390000000  0.4322600000000 1.0
C      1  0.5477120000000  0.4907410000000  0.5636170000000 1.0
C      1  0.5110840000000  0.4239800000000  0.5523370000000 1.0
C      1  0.4956080000000  0.5168190000000  0.5959480000000 1.0
END
