TITL C-2847957-7266-456 0.00383097902187413 125000 -801.142420287655 0 0 154 (C1) n - 1
REM
REM in /home/bkarasulu/work/CARBON/AIRSS/Generating-Clusters/AIREBO/with-SteepDescent/Only-C1/SD-CG-opt/Try1-1.4A-POS3A/HFTN-CG
REM
REM
REM
REM
REM
REM ./C.cell (11c1c37f851c82e70ff6c80c92926a4b)
REM
REM compiler GCC version 9.2.1 20190827 (Red Hat 9.2.1-1)
REM options -cpp -mtune=generic -march=x86-64 -g -O0 -fpre-include=/usr/include/finclude/math-vector-fortran.h
REM seed -1439347207 352283707 941327159 635439647 396525496 164450729 -1756887530 838521070 -492643420 -1561768166 1817565692 -1552472104 1279695434 -2112218847 1107545008 379571390 725596174 -1807074738 -601560183 -989944061 -1692045346 920779350 957480171 1876373435 508342896 -593589832 -1289992223 -16423471 136698224 -1644293637 756419421 -754976250 1656210675
REM
CELL 1.54180   50.00000   50.00000   50.00000   90.00000   90.00000   90.00000
LATT -1
SFAC C  
C      1  0.4661890000000  0.3947960000000  0.5125670000000 1.0
C      1  0.4414580000000  0.4182800000000  0.4413640000000 1.0
C      1  0.4430760000000  0.4538390000000  0.5599140000000 1.0
C      1  0.4386960000000  0.5769450000000  0.5239000000000 1.0
C      1  0.5118820000000  0.5562890000000  0.4379070000000 1.0
C      1  0.4917970000000  0.5423470000000  0.4810420000000 1.0
C      1  0.4332660000000  0.4905210000000  0.5292670000000 1.0
C      1  0.5646520000000  0.4474520000000  0.5411930000000 1.0
C      1  0.4251490000000  0.4369370000000  0.5438770000000 1.0
C      1  0.4647860000000  0.5214200000000  0.4368820000000 1.0
C      1  0.5406100000000  0.4598890000000  0.5993820000000 1.0
C      1  0.4743260000000  0.5156850000000  0.5047290000000 1.0
C      1  0.4595720000000  0.4333930000000  0.5124250000000 1.0
C      1  0.4351410000000  0.5465990000000  0.4283400000000 1.0
C      1  0.4889260000000  0.4502390000000  0.4189090000000 1.0
C      1  0.5107500000000  0.4821700000000  0.4929900000000 1.0
C      1  0.5427880000000  0.4907630000000  0.3940470000000 1.0
C      1  0.5297930000000  0.4647630000000  0.5492900000000 1.0
C      1  0.5490060000000  0.5593990000000  0.4235380000000 1.0
C      1  0.4892960000000  0.5920620000000  0.4712150000000 1.0
C      1  0.4212040000000  0.4787540000000  0.4291960000000 1.0
C      1  0.5723390000000  0.4339470000000  0.4566000000000 1.0
C      1  0.4880900000000  0.4063120000000  0.4463770000000 1.0
C      1  0.4807380000000  0.5993920000000  0.5371770000000 1.0
C      1  0.5876840000000  0.5220510000000  0.5290330000000 1.0
C      1  0.5323880000000  0.4508090000000  0.5183880000000 1.0
C      1  0.4451510000000  0.4758740000000  0.5852590000000 1.0
C      1  0.4195520000000  0.5554290000000  0.5366260000000 1.0
C      1  0.4168490000000  0.4945020000000  0.4816390000000 1.0
C      1  0.5909270000000  0.5141430000000  0.4760020000000 1.0
C      1  0.5847440000000  0.5419450000000  0.4710860000000 1.0
C      1  0.5592680000000  0.5056540000000  0.5694110000000 1.0
C      1  0.4552400000000  0.5901770000000  0.5437310000000 1.0
C      1  0.4095510000000  0.5042790000000  0.5675150000000 1.0
C      1  0.4987390000000  0.5131680000000  0.3908610000000 1.0
C      1  0.5348140000000  0.5725040000000  0.4847000000000 1.0
C      1  0.4422580000000  0.5136760000000  0.4688340000000 1.0
C      1  0.5906130000000  0.4607570000000  0.5292820000000 1.0
C      1  0.4221940000000  0.5585220000000  0.4739140000000 1.0
C      1  0.4957620000000  0.5798330000000  0.5177250000000 1.0
C      1  0.5479670000000  0.4840610000000  0.4787860000000 1.0
C      1  0.5648060000000  0.4524010000000  0.5075540000000 1.0
C      1  0.5264600000000  0.5071450000000  0.4660800000000 1.0
C      1  0.3973950000000  0.5195960000000  0.4778000000000 1.0
C      1  0.5891910000000  0.5023150000000  0.5535810000000 1.0
C      1  0.5018310000000  0.4345300000000  0.4423600000000 1.0
C      1  0.5866500000000  0.5596730000000  0.4977520000000 1.0
C      1  0.5676520000000  0.5610780000000  0.5261270000000 1.0
C      1  0.5054060000000  0.5920440000000  0.5541150000000 1.0
C      1  0.5057870000000  0.5859890000000  0.4121170000000 1.0
C      1  0.4867480000000  0.4973410000000  0.5758140000000 1.0
C      1  0.5458280000000  0.4134250000000  0.5184760000000 1.0
C      1  0.4660750000000  0.4875030000000  0.4163010000000 1.0
C      1  0.5639760000000  0.4139560000000  0.4731040000000 1.0
C      1  0.5321940000000  0.4322340000000  0.6002190000000 1.0
C      1  0.4737790000000  0.4943230000000  0.5282590000000 1.0
C      1  0.5613530000000  0.5205450000000  0.4280820000000 1.0
C      1  0.4541460000000  0.4795000000000  0.5047730000000 1.0
C      1  0.5304870000000  0.5280600000000  0.4402070000000 1.0
C      1  0.5733770000000  0.4960020000000  0.5174850000000 1.0
C      1  0.6061890000000  0.5335240000000  0.5074510000000 1.0
C      1  0.5191020000000  0.4081810000000  0.5362020000000 1.0
C      1  0.5148530000000  0.4917460000000  0.3987580000000 1.0
C      1  0.5280190000000  0.4797240000000  0.4449560000000 1.0
C      1  0.4862720000000  0.4119240000000  0.4919540000000 1.0
C      1  0.5372170000000  0.5358030000000  0.5957280000000 1.0
C      1  0.4720790000000  0.5112630000000  0.3990910000000 1.0
C      1  0.4467270000000  0.5580700000000  0.4547020000000 1.0
C      1  0.5090780000000  0.5388930000000  0.3954320000000 1.0
C      1  0.4176300000000  0.5309140000000  0.4529250000000 1.0
C      1  0.3922300000000  0.4692410000000  0.5125400000000 1.0
C      1  0.4292650000000  0.5253100000000  0.5241630000000 1.0
C      1  0.4159160000000  0.5293790000000  0.5584060000000 1.0
C      1  0.4425590000000  0.4129580000000  0.4935810000000 1.0
C      1  0.5197160000000  0.4975340000000  0.5179330000000 1.0
C      1  0.5561810000000  0.5316830000000  0.5205750000000 1.0
C      1  0.4611450000000  0.4564210000000  0.4109420000000 1.0
C      1  0.5303560000000  0.4475030000000  0.4375710000000 1.0
C      1  0.5014290000000  0.5080350000000  0.6048620000000 1.0
C      1  0.5560110000000  0.4798040000000  0.5351220000000 1.0
C      1  0.4788870000000  0.4774280000000  0.4461690000000 1.0
C      1  0.5449600000000  0.5429420000000  0.4742090000000 1.0
C      1  0.4390510000000  0.4553140000000  0.4554910000000 1.0
C      1  0.4348510000000  0.4478120000000  0.4250710000000 1.0
C      1  0.4681980000000  0.4509450000000  0.4646460000000 1.0
C      1  0.4624300000000  0.5021820000000  0.5983420000000 1.0
C      1  0.4405950000000  0.5501710000000  0.5625120000000 1.0
C      1  0.4476200000000  0.5308090000000  0.4977210000000 1.0
C      1  0.5603470000000  0.4716640000000  0.4517570000000 1.0
C      1  0.4863670000000  0.4560010000000  0.6023970000000 1.0
C      1  0.4928530000000  0.4535090000000  0.5265890000000 1.0
C      1  0.5307810000000  0.5076380000000  0.5878710000000 1.0
C      1  0.5048960000000  0.4776250000000  0.4236080000000 1.0
C      1  0.4641730000000  0.4704900000000  0.6105070000000 1.0
C      1  0.4233580000000  0.4661140000000  0.4991970000000 1.0
C      1  0.4893090000000  0.5570970000000  0.4124660000000 1.0
C      1  0.4040670000000  0.4946240000000  0.5194990000000 1.0
C      1  0.5015870000000  0.4818870000000  0.5420740000000 1.0
C      1  0.4712590000000  0.5515320000000  0.5424210000000 1.0
C      1  0.5317470000000  0.5833420000000  0.4258640000000 1.0
C      1  0.4962890000000  0.4650250000000  0.5711390000000 1.0
C      1  0.4447950000000  0.4968730000000  0.4393770000000 1.0
C      1  0.4675250000000  0.5360820000000  0.4634680000000 1.0
C      1  0.4629560000000  0.5400560000000  0.4113260000000 1.0
C      1  0.4489010000000  0.5645990000000  0.4940770000000 1.0
C      1  0.4804860000000  0.5550910000000  0.5749600000000 1.0
C      1  0.5641180000000  0.4982550000000  0.4117410000000 1.0
C      1  0.5307240000000  0.4555870000000  0.4858230000000 1.0
C      1  0.5758920000000  0.4767980000000  0.4260030000000 1.0
C      1  0.6196680000000  0.5091380000000  0.4911080000000 1.0
C      1  0.5070930000000  0.5705460000000  0.5741620000000 1.0
C      1  0.5790130000000  0.4590150000000  0.4772240000000 1.0
C      1  0.4280620000000  0.4361370000000  0.5145360000000 1.0
C      1  0.5395650000000  0.4229580000000  0.4897670000000 1.0
C      1  0.5327960000000  0.5536730000000  0.5710500000000 1.0
C      1  0.4635790000000  0.4173480000000  0.4672000000000 1.0
C      1  0.5515790000000  0.4728650000000  0.5741190000000 1.0
C      1  0.5173840000000  0.4794820000000  0.5935790000000 1.0
C      1  0.6012890000000  0.4790710000000  0.5458190000000 1.0
C      1  0.5358900000000  0.5191980000000  0.4964710000000 1.0
C      1  0.4290840000000  0.4840520000000  0.5592990000000 1.0
C      1  0.4588770000000  0.5222730000000  0.5406200000000 1.0
C      1  0.5090480000000  0.5929180000000  0.4942180000000 1.0
C      1  0.4551050000000  0.5763960000000  0.5689950000000 1.0
C      1  0.5411790000000  0.5098850000000  0.5409190000000 1.0
C      1  0.4626020000000  0.5896710000000  0.4759750000000 1.0
C      1  0.5664590000000  0.5847290000000  0.4870390000000 1.0
C      1  0.5071400000000  0.5642640000000  0.4667310000000 1.0
C      1  0.4662700000000  0.4904810000000  0.4749190000000 1.0
C      1  0.5643800000000  0.5471430000000  0.4485490000000 1.0
C      1  0.5170630000000  0.5323890000000  0.5496930000000 1.0
C      1  0.4763220000000  0.4547700000000  0.4974560000000 1.0
C      1  0.4003030000000  0.5206010000000  0.5069760000000 1.0
C      1  0.5330970000000  0.5397780000000  0.4083910000000 1.0
C      1  0.5619810000000  0.5609380000000  0.5576560000000 1.0
C      1  0.4186850000000  0.4505580000000  0.4722180000000 1.0
C      1  0.4948540000000  0.5085520000000  0.4785800000000 1.0
C      1  0.4063250000000  0.5054450000000  0.4333810000000 1.0
C      1  0.6033960000000  0.4822850000000  0.4780480000000 1.0
C      1  0.4892750000000  0.5187800000000  0.5554660000000 1.0
C      1  0.5072120000000  0.4282370000000  0.5132600000000 1.0
C      1  0.4730000000000  0.4470220000000  0.5534230000000 1.0
C      1  0.5704100000000  0.5375060000000  0.5735960000000 1.0
C      1  0.5436170000000  0.4272630000000  0.5495330000000 1.0
C      1  0.4727710000000  0.4172920000000  0.5372000000000 1.0
C      1  0.4778870000000  0.5553210000000  0.5092520000000 1.0
C      1  0.5388460000000  0.5674740000000  0.5168040000000 1.0
C      1  0.5550600000000  0.4364440000000  0.4339150000000 1.0
C      1  0.5156680000000  0.4037560000000  0.4828900000000 1.0
C      1  0.5165500000000  0.5635180000000  0.5360540000000 1.0
C      1  0.5204520000000  0.4396200000000  0.5701850000000 1.0
C      1  0.5696570000000  0.4983810000000  0.4915110000000 1.0
C      1  0.4791400000000  0.5315530000000  0.5945480000000 1.0
C      1  0.5010000000000  0.4486320000000  0.4733210000000 1.0
END
