TITL C-2848498-1409-460 -0.000416312841549643 125000 -421.149017263974 0 0 77 (C1) n - 1
REM
REM in /home/bkarasulu/work/CARBON/AIRSS/Generating-Clusters/AIREBO/with-SteepDescent/Only-C1/SD-CG-opt/Try1-1.4A-POS3A/HFTN-CG
REM
REM
REM
REM
REM
REM ./C.cell (11c1c37f851c82e70ff6c80c92926a4b)
REM
REM compiler GCC version 9.2.1 20190827 (Red Hat 9.2.1-1)
REM options -cpp -mtune=generic -march=x86-64 -g -O0 -fpre-include=/usr/include/finclude/math-vector-fortran.h
REM seed 137026646 -349376483 1512102408 -55903252 -1384601169 1278947029 -1483397534 624584722 1852994352 -1257820617 1581670619 35670381 -819061550 1127230461 -583376150 436512589 510798296 -2069367463 -1102693804 -1302891014 -1720135554 -391849213 -1691071657 -1409949559 -349539708 1564395144 1884970591 225081794 -675435349 151196255 1024082343 1453400371 1925068339
REM
CELL 1.54180   50.00000   50.00000   50.00000   90.00000   90.00000   90.00000
LATT -1
SFAC C  
C      1  0.4783300000000  0.5122950000000  0.4253050000000 1.0
C      1  0.4280430000000  0.5326500000000  0.4502640000000 1.0
C      1  0.5574360000000  0.4482380000000  0.4578020000000 1.0
C      1  0.4777600000000  0.5132580000000  0.5426560000000 1.0
C      1  0.5005110000000  0.4957450000000  0.4368060000000 1.0
C      1  0.5136430000000  0.5610810000000  0.4880490000000 1.0
C      1  0.4895890000000  0.4299120000000  0.4626650000000 1.0
C      1  0.5673180000000  0.4701260000000  0.4776030000000 1.0
C      1  0.5613920000000  0.5064620000000  0.5771540000000 1.0
C      1  0.4786260000000  0.5512120000000  0.5484980000000 1.0
C      1  0.4658540000000  0.4748100000000  0.5530630000000 1.0
C      1  0.4279540000000  0.5413430000000  0.5036300000000 1.0
C      1  0.4905910000000  0.4782930000000  0.5296190000000 1.0
C      1  0.5141570000000  0.4307600000000  0.4828180000000 1.0
C      1  0.5430800000000  0.5645260000000  0.4913130000000 1.0
C      1  0.5034350000000  0.5275240000000  0.5560070000000 1.0
C      1  0.5743130000000  0.4784550000000  0.5402960000000 1.0
C      1  0.5353130000000  0.4419100000000  0.5269600000000 1.0
C      1  0.4275920000000  0.5058460000000  0.5218290000000 1.0
C      1  0.5212920000000  0.5133210000000  0.4556120000000 1.0
C      1  0.5570660000000  0.5816290000000  0.4774310000000 1.0
C      1  0.4892560000000  0.5784500000000  0.4718680000000 1.0
C      1  0.5459260000000  0.4304280000000  0.4776650000000 1.0
C      1  0.4518930000000  0.5466370000000  0.5349770000000 1.0
C      1  0.4222720000000  0.5192980000000  0.4783680000000 1.0
C      1  0.5165310000000  0.4589710000000  0.4675670000000 1.0
C      1  0.4868690000000  0.4347250000000  0.5276170000000 1.0
C      1  0.4493970000000  0.5649240000000  0.5063800000000 1.0
C      1  0.5217370000000  0.4416290000000  0.4243190000000 1.0
C      1  0.4454150000000  0.4875740000000  0.5015390000000 1.0
C      1  0.5713630000000  0.5064230000000  0.5488760000000 1.0
C      1  0.4599500000000  0.4403620000000  0.5213460000000 1.0
C      1  0.5810470000000  0.5314510000000  0.5071390000000 1.0
C      1  0.5399500000000  0.4897760000000  0.5668840000000 1.0
C      1  0.4526010000000  0.5199580000000  0.4940410000000 1.0
C      1  0.4966510000000  0.5775950000000  0.5109980000000 1.0
C      1  0.5567460000000  0.4378900000000  0.5033520000000 1.0
C      1  0.4684240000000  0.5409200000000  0.4262140000000 1.0
C      1  0.4615150000000  0.5726150000000  0.4761040000000 1.0
C      1  0.4518140000000  0.5551910000000  0.4523060000000 1.0
C      1  0.4390930000000  0.5219760000000  0.5408380000000 1.0
C      1  0.5536660000000  0.5474860000000  0.5121070000000 1.0
C      1  0.4989040000000  0.5485120000000  0.5229030000000 1.0
C      1  0.4692210000000  0.4753250000000  0.4720860000000 1.0
C      1  0.4787720000000  0.4954300000000  0.5846840000000 1.0
C      1  0.5513250000000  0.5195390000000  0.5309420000000 1.0
C      1  0.5139320000000  0.4967190000000  0.5461180000000 1.0
C      1  0.5098260000000  0.4312610000000  0.5129600000000 1.0
C      1  0.5797520000000  0.4787030000000  0.5067190000000 1.0
C      1  0.4199450000000  0.4885400000000  0.4707820000000 1.0
C      1  0.4544330000000  0.5036780000000  0.5629780000000 1.0
C      1  0.5380590000000  0.4806650000000  0.4707150000000 1.0
C      1  0.4822270000000  0.5215000000000  0.5106640000000 1.0
C      1  0.4496320000000  0.5084360000000  0.4400370000000 1.0
C      1  0.4952100000000  0.5322950000000  0.4582600000000 1.0
C      1  0.4651820000000  0.5264370000000  0.4632040000000 1.0
C      1  0.5343320000000  0.4882510000000  0.4377790000000 1.0
C      1  0.4649570000000  0.4355770000000  0.4725610000000 1.0
C      1  0.5477970000000  0.4699080000000  0.5122520000000 1.0
C      1  0.5276350000000  0.5052140000000  0.4885920000000 1.0
C      1  0.5281150000000  0.5411410000000  0.5372640000000 1.0
C      1  0.5418530000000  0.4575700000000  0.4361310000000 1.0
C      1  0.5002190000000  0.5619290000000  0.4504160000000 1.0
C      1  0.4562210000000  0.4557290000000  0.4963560000000 1.0
C      1  0.5013740000000  0.4842160000000  0.5751480000000 1.0
C      1  0.4440360000000  0.4834210000000  0.4564160000000 1.0
C      1  0.5064180000000  0.5292650000000  0.4886770000000 1.0
C      1  0.5889220000000  0.5085820000000  0.5017210000000 1.0
C      1  0.4967490000000  0.4422820000000  0.4371160000000 1.0
C      1  0.4711610000000  0.5877550000000  0.5119230000000 1.0
C      1  0.5333020000000  0.4971540000000  0.5180430000000 1.0
C      1  0.4792980000000  0.4883200000000  0.5022510000000 1.0
C      1  0.4468040000000  0.4513390000000  0.5431590000000 1.0
C      1  0.5184440000000  0.4570210000000  0.5693310000000 1.0
C      1  0.4921790000000  0.4533270000000  0.5517890000000 1.0
C      1  0.5469710000000  0.4609180000000  0.5511360000000 1.0
C      1  0.4913880000000  0.4703650000000  0.4530020000000 1.0
END
