TITL C-2847956-8218-43 -0.000257388759816141 125000 -460.482358768032 0 0 87 (C1) n - 1
REM
REM in /home/bkarasulu/work/CARBON/AIRSS/Generating-Clusters/AIREBO/with-SteepDescent/Only-C1/SD-CG-opt/Try1-1.4A-POS3A/HFTN-CG
REM
REM
REM
REM
REM
REM ./C.cell (11c1c37f851c82e70ff6c80c92926a4b)
REM
REM compiler GCC version 9.2.1 20190827 (Red Hat 9.2.1-1)
REM options -cpp -mtune=generic -march=x86-64 -g -O0 -fpre-include=/usr/include/finclude/math-vector-fortran.h
REM seed -205416729 -547614868 1561703027 -1023348342 -1647586133 -579101683 -759408169 936020840 -1045729681 -2128911567 890158979 2133058508 294237533 1593707991 -1896759275 -1552410833 -115238253 1189586253 -660298401 18798631 -1399170458 657110678 -1607549424 224089236 -1159072405 -292793297 1884006403 -904944308 -1451219060 -399174598 1256945607 1987879837 1128398509
REM
CELL 1.54180   50.00000   50.00000   50.00000   90.00000   90.00000   90.00000
LATT -1
SFAC C  
C      1  0.4939530000000  0.5313310000000  0.5476250000000 1.0
C      1  0.4735120000000  0.4200540000000  0.5269870000000 1.0
C      1  0.4936680000000  0.5062200000000  0.4905530000000 1.0
C      1  0.5408000000000  0.5259890000000  0.4666660000000 1.0
C      1  0.5085900000000  0.5602680000000  0.4194970000000 1.0
C      1  0.4968490000000  0.5720510000000  0.4711090000000 1.0
C      1  0.5192630000000  0.5280230000000  0.4403820000000 1.0
C      1  0.5604370000000  0.5525570000000  0.4747250000000 1.0
C      1  0.4446800000000  0.5140540000000  0.4750650000000 1.0
C      1  0.5550730000000  0.4399630000000  0.5245030000000 1.0
C      1  0.4733720000000  0.4416550000000  0.5484980000000 1.0
C      1  0.4846290000000  0.5432150000000  0.4177260000000 1.0
C      1  0.4558880000000  0.5088730000000  0.5764670000000 1.0
C      1  0.4660510000000  0.4778970000000  0.4959220000000 1.0
C      1  0.4996490000000  0.4493250000000  0.5195670000000 1.0
C      1  0.5213750000000  0.5142930000000  0.5383680000000 1.0
C      1  0.4766290000000  0.4997800000000  0.5188800000000 1.0
C      1  0.5064560000000  0.4384910000000  0.4655890000000 1.0
C      1  0.4800620000000  0.4878820000000  0.5781120000000 1.0
C      1  0.5093340000000  0.4670210000000  0.4245530000000 1.0
C      1  0.5229290000000  0.4907210000000  0.4896560000000 1.0
C      1  0.4705580000000  0.4704790000000  0.4156370000000 1.0
C      1  0.5677520000000  0.5104050000000  0.4529710000000 1.0
C      1  0.5453610000000  0.4977870000000  0.4387540000000 1.0
C      1  0.4607080000000  0.5803680000000  0.4975530000000 1.0
C      1  0.4799940000000  0.4330150000000  0.4528040000000 1.0
C      1  0.5630420000000  0.5325050000000  0.5867770000000 1.0
C      1  0.4425390000000  0.5204450000000  0.5215050000000 1.0
C      1  0.5516220000000  0.4726440000000  0.4869610000000 1.0
C      1  0.5096040000000  0.5588200000000  0.4511210000000 1.0
C      1  0.4402570000000  0.4989230000000  0.4464970000000 1.0
C      1  0.5093630000000  0.5502320000000  0.5685440000000 1.0
C      1  0.5018800000000  0.4605550000000  0.5495130000000 1.0
C      1  0.5167750000000  0.5296800000000  0.4879250000000 1.0
C      1  0.5320540000000  0.4771130000000  0.5520920000000 1.0
C      1  0.4332030000000  0.5321860000000  0.4486900000000 1.0
C      1  0.4754820000000  0.5281050000000  0.4719290000000 1.0
C      1  0.5210220000000  0.4843630000000  0.5217750000000 1.0
C      1  0.5598400000000  0.5056330000000  0.4861670000000 1.0
C      1  0.5591310000000  0.5510370000000  0.5521430000000 1.0
C      1  0.5427970000000  0.5233150000000  0.5631940000000 1.0
C      1  0.5442760000000  0.5750310000000  0.5345540000000 1.0
C      1  0.5678800000000  0.5429640000000  0.5222130000000 1.0
C      1  0.5563700000000  0.5140090000000  0.5171140000000 1.0
C      1  0.4861400000000  0.5202640000000  0.4406000000000 1.0
C      1  0.5179820000000  0.4030600000000  0.4984390000000 1.0
C      1  0.5005850000000  0.5733860000000  0.5042900000000 1.0
C      1  0.4550390000000  0.5517950000000  0.4583420000000 1.0
C      1  0.5211880000000  0.4305310000000  0.4861830000000 1.0
C      1  0.4692770000000  0.4780270000000  0.4643350000000 1.0
C      1  0.5506200000000  0.4617190000000  0.4549990000000 1.0
C      1  0.4417990000000  0.4104370000000  0.4755220000000 1.0
C      1  0.5668910000000  0.4663800000000  0.5166870000000 1.0
C      1  0.4268830000000  0.4712390000000  0.4995900000000 1.0
C      1  0.4409610000000  0.5003290000000  0.5008770000000 1.0
C      1  0.4627020000000  0.4282090000000  0.4756130000000 1.0
C      1  0.5254050000000  0.5645950000000  0.5177040000000 1.0
C      1  0.4482580000000  0.4560850000000  0.5455950000000 1.0
C      1  0.4708590000000  0.4889540000000  0.5458310000000 1.0
C      1  0.5295530000000  0.5347570000000  0.5144000000000 1.0
C      1  0.5245310000000  0.4827500000000  0.4595460000000 1.0
C      1  0.5586540000000  0.4878850000000  0.5338190000000 1.0
C      1  0.5745910000000  0.5547950000000  0.4985680000000 1.0
C      1  0.5299240000000  0.4551600000000  0.5064510000000 1.0
C      1  0.5133590000000  0.4215420000000  0.5243410000000 1.0
C      1  0.4678310000000  0.5750380000000  0.4688950000000 1.0
C      1  0.5318060000000  0.5611360000000  0.5696840000000 1.0
C      1  0.4743470000000  0.5780640000000  0.5254130000000 1.0
C      1  0.4395450000000  0.4539430000000  0.5177610000000 1.0
C      1  0.5343820000000  0.5438560000000  0.4134670000000 1.0
C      1  0.4728290000000  0.5325780000000  0.5221250000000 1.0
C      1  0.5183600000000  0.4985090000000  0.4234800000000 1.0
C      1  0.4628550000000  0.5327890000000  0.5608370000000 1.0
C      1  0.4697600000000  0.4945550000000  0.4354770000000 1.0
C      1  0.4981730000000  0.4604620000000  0.5833110000000 1.0
C      1  0.4392610000000  0.5432870000000  0.5409900000000 1.0
C      1  0.4695210000000  0.4451290000000  0.5043500000000 1.0
C      1  0.4824680000000  0.4461730000000  0.4266350000000 1.0
C      1  0.5100390000000  0.4892890000000  0.5916450000000 1.0
C      1  0.4975590000000  0.4686320000000  0.4558890000000 1.0
C      1  0.4921290000000  0.3974360000000  0.5191310000000 1.0
C      1  0.4438440000000  0.4806630000000  0.5633680000000 1.0
C      1  0.4356070000000  0.4753050000000  0.4702790000000 1.0
C      1  0.5377160000000  0.4520840000000  0.4305770000000 1.0
C      1  0.4638750000000  0.5635580000000  0.5457470000000 1.0
C      1  0.5304790000000  0.4969220000000  0.5743910000000 1.0
C      1  0.4777010000000  0.5494150000000  0.4979310000000 1.0
END
