TITL C-2848502-4955-597 0.000253030155342005 125000 -732.181914157159 0 0 139 (C1) n - 1
REM
REM in /home/bkarasulu/work/CARBON/AIRSS/Generating-Clusters/AIREBO/with-SteepDescent/Only-C1/SD-CG-opt/Try1-1.4A-POS3A/HFTN-CG
REM
REM
REM
REM
REM
REM ./C.cell (11c1c37f851c82e70ff6c80c92926a4b)
REM
REM compiler GCC version 9.2.1 20190827 (Red Hat 9.2.1-1)
REM options -cpp -mtune=generic -march=x86-64 -g -O0 -fpre-include=/usr/include/finclude/math-vector-fortran.h
REM seed -579484873 -1398384197 -1731907238 -1349735768 533935751 526303177 -65945380 -1741709870 332484426 1503818917 2043186474 -1523959573 -753066867 -1004014479 337641479 -458792301 1897511333 883685301 2120297407 1387242256 1393666117 -465628937 -352762999 -1448790375 1940808521 17052501 -241404982 -1535914277 1817087852 1274317861 -23860394 -1030181968 -1485490492
REM
CELL 1.54180   50.00000   50.00000   50.00000   90.00000   90.00000   90.00000
LATT -1
SFAC C  
C      1  0.4561360000000  0.5006990000000  0.4553730000000 1.0
C      1  0.5345400000000  0.4844190000000  0.5022940000000 1.0
C      1  0.4555320000000  0.5971320000000  0.5564380000000 1.0
C      1  0.4661070000000  0.4448850000000  0.4625340000000 1.0
C      1  0.5249720000000  0.4608980000000  0.6007520000000 1.0
C      1  0.4153470000000  0.4805110000000  0.4929140000000 1.0
C      1  0.5312390000000  0.5373490000000  0.5709900000000 1.0
C      1  0.4128620000000  0.5448380000000  0.4413710000000 1.0
C      1  0.4364040000000  0.4482820000000  0.5133420000000 1.0
C      1  0.4785990000000  0.4285500000000  0.4165790000000 1.0
C      1  0.5982870000000  0.4821850000000  0.5182570000000 1.0
C      1  0.4361520000000  0.4563480000000  0.4295870000000 1.0
C      1  0.5655490000000  0.5601430000000  0.5311350000000 1.0
C      1  0.4847300000000  0.4919040000000  0.4396160000000 1.0
C      1  0.4437670000000  0.4609960000000  0.5761600000000 1.0
C      1  0.4157840000000  0.5363330000000  0.4688900000000 1.0
C      1  0.5684630000000  0.5373950000000  0.5081810000000 1.0
C      1  0.4269730000000  0.5312330000000  0.5480190000000 1.0
C      1  0.5213980000000  0.5089490000000  0.5805170000000 1.0
C      1  0.4803750000000  0.4650630000000  0.5385920000000 1.0
C      1  0.5364710000000  0.6000760000000  0.4763590000000 1.0
C      1  0.4959110000000  0.4503990000000  0.5850820000000 1.0
C      1  0.5369130000000  0.4448130000000  0.4173910000000 1.0
C      1  0.4918730000000  0.4741180000000  0.5114710000000 1.0
C      1  0.4929320000000  0.5023120000000  0.5072250000000 1.0
C      1  0.5836710000000  0.4621070000000  0.4870390000000 1.0
C      1  0.4764470000000  0.5975950000000  0.5290220000000 1.0
C      1  0.5789920000000  0.5050650000000  0.4481300000000 1.0
C      1  0.4829460000000  0.5631340000000  0.5630590000000 1.0
C      1  0.4535180000000  0.4723360000000  0.5009040000000 1.0
C      1  0.4997480000000  0.5531800000000  0.4971980000000 1.0
C      1  0.5078400000000  0.4056420000000  0.5180070000000 1.0
C      1  0.5388280000000  0.4193450000000  0.5176870000000 1.0
C      1  0.5428380000000  0.4859660000000  0.5885970000000 1.0
C      1  0.4575180000000  0.4990400000000  0.4052580000000 1.0
C      1  0.4334350000000  0.4403750000000  0.4595170000000 1.0
C      1  0.5871280000000  0.5679970000000  0.4593900000000 1.0
C      1  0.5542150000000  0.5339890000000  0.4807060000000 1.0
C      1  0.4788870000000  0.5471790000000  0.5197630000000 1.0
C      1  0.4353680000000  0.5752930000000  0.4807930000000 1.0
C      1  0.5024520000000  0.4577750000000  0.4529210000000 1.0
C      1  0.4835460000000  0.4225080000000  0.5729280000000 1.0
C      1  0.5065830000000  0.5935530000000  0.5301790000000 1.0
C      1  0.5417350000000  0.5314140000000  0.4284370000000 1.0
C      1  0.4275320000000  0.5472830000000  0.4988750000000 1.0
C      1  0.5210370000000  0.5620900000000  0.5898750000000 1.0
C      1  0.4773920000000  0.4524600000000  0.4913620000000 1.0
C      1  0.5175440000000  0.5717980000000  0.5449920000000 1.0
C      1  0.5523110000000  0.4615940000000  0.5394100000000 1.0
C      1  0.4700820000000  0.5296110000000  0.4136840000000 1.0
C      1  0.4532880000000  0.4213320000000  0.5162130000000 1.0
C      1  0.4245540000000  0.5107170000000  0.5306960000000 1.0
C      1  0.4460090000000  0.5196260000000  0.4917440000000 1.0
C      1  0.5594600000000  0.4751590000000  0.4304300000000 1.0
C      1  0.5771140000000  0.5071870000000  0.5133070000000 1.0
C      1  0.5432930000000  0.4340750000000  0.5545510000000 1.0
C      1  0.5150120000000  0.4217300000000  0.4648400000000 1.0
C      1  0.4517270000000  0.5962950000000  0.4515430000000 1.0
C      1  0.5109380000000  0.4964190000000  0.4583980000000 1.0
C      1  0.5161190000000  0.4196620000000  0.5652230000000 1.0
C      1  0.5316480000000  0.4294260000000  0.4361950000000 1.0
C      1  0.4872100000000  0.4290100000000  0.4472350000000 1.0
C      1  0.5059460000000  0.4644070000000  0.3998720000000 1.0
C      1  0.5773350000000  0.5332850000000  0.5431360000000 1.0
C      1  0.5411620000000  0.5698800000000  0.4386360000000 1.0
C      1  0.4085130000000  0.5780480000000  0.5382290000000 1.0
C      1  0.6241420000000  0.4747420000000  0.5043080000000 1.0
C      1  0.5233870000000  0.4587480000000  0.5668550000000 1.0
C      1  0.4538780000000  0.6032780000000  0.4806350000000 1.0
C      1  0.4544870000000  0.4731960000000  0.4161750000000 1.0
C      1  0.5207430000000  0.4666770000000  0.5278160000000 1.0
C      1  0.4383810000000  0.5408620000000  0.4192380000000 1.0
C      1  0.4072350000000  0.4946400000000  0.4472250000000 1.0
C      1  0.5981330000000  0.4622180000000  0.4638720000000 1.0
C      1  0.4760990000000  0.5548260000000  0.4587480000000 1.0
C      1  0.4605740000000  0.5689250000000  0.5381150000000 1.0
C      1  0.5580460000000  0.5217790000000  0.5633530000000 1.0
C      1  0.5033150000000  0.5416740000000  0.5520760000000 1.0
C      1  0.5401080000000  0.5958960000000  0.4485870000000 1.0
C      1  0.4459420000000  0.4113390000000  0.4702010000000 1.0
C      1  0.5026480000000  0.4433530000000  0.5447420000000 1.0
C      1  0.5547330000000  0.4885720000000  0.5568230000000 1.0
C      1  0.4740180000000  0.4714010000000  0.5867130000000 1.0
C      1  0.4255150000000  0.5034850000000  0.4699370000000 1.0
C      1  0.4370330000000  0.5212630000000  0.5716790000000 1.0
C      1  0.4298690000000  0.5570570000000  0.5316850000000 1.0
C      1  0.4189050000000  0.4831900000000  0.5209680000000 1.0
C      1  0.4195430000000  0.4524880000000  0.4841180000000 1.0
C      1  0.4484020000000  0.5289840000000  0.4470600000000 1.0
C      1  0.5541010000000  0.4699430000000  0.4806360000000 1.0
C      1  0.4790950000000  0.5190940000000  0.5281930000000 1.0
C      1  0.5779940000000  0.4560360000000  0.5200150000000 1.0
C      1  0.4845390000000  0.4615610000000  0.4242570000000 1.0
C      1  0.4599770000000  0.5567890000000  0.4952270000000 1.0
C      1  0.4426070000000  0.4447890000000  0.5467570000000 1.0
C      1  0.4613050000000  0.4954810000000  0.5663430000000 1.0
C      1  0.5213010000000  0.6017710000000  0.5068540000000 1.0
C      1  0.4470120000000  0.5627050000000  0.4513670000000 1.0
C      1  0.4948430000000  0.5713200000000  0.5864350000000 1.0
C      1  0.4991130000000  0.5107070000000  0.6015600000000 1.0
C      1  0.4489260000000  0.4775660000000  0.5402210000000 1.0
C      1  0.5251410000000  0.4457490000000  0.5008000000000 1.0
C      1  0.5183690000000  0.5771010000000  0.4868800000000 1.0
C      1  0.5332080000000  0.4780060000000  0.4117470000000 1.0
C      1  0.5435170000000  0.4383630000000  0.4731610000000 1.0
C      1  0.5149420000000  0.4883210000000  0.5542630000000 1.0
C      1  0.4328560000000  0.4906160000000  0.5844030000000 1.0
C      1  0.4639870000000  0.4189160000000  0.5461360000000 1.0
C      1  0.6010540000000  0.5107870000000  0.5366310000000 1.0
C      1  0.4900040000000  0.5105750000000  0.5560070000000 1.0
C      1  0.4727310000000  0.5307260000000  0.4782900000000 1.0
C      1  0.4815310000000  0.4938730000000  0.6072890000000 1.0
C      1  0.5454810000000  0.5712580000000  0.5444590000000 1.0
C      1  0.5592550000000  0.5027560000000  0.4732030000000 1.0
C      1  0.5502380000000  0.4985020000000  0.5246160000000 1.0
C      1  0.5237950000000  0.5369430000000  0.4797020000000 1.0
C      1  0.5144820000000  0.4696900000000  0.4791180000000 1.0
C      1  0.5606570000000  0.4110890000000  0.5424260000000 1.0
C      1  0.5024230000000  0.5277430000000  0.4031670000000 1.0
C      1  0.4944480000000  0.4043680000000  0.5450210000000 1.0
C      1  0.4540630000000  0.5014620000000  0.5165670000000 1.0
C      1  0.4907640000000  0.5446590000000  0.4361630000000 1.0
C      1  0.5187930000000  0.5537730000000  0.4184160000000 1.0
C      1  0.5714860000000  0.4258070000000  0.5107610000000 1.0
C      1  0.4883890000000  0.5767700000000  0.4754600000000 1.0
C      1  0.4640960000000  0.6109160000000  0.5037590000000 1.0
C      1  0.4964890000000  0.4326050000000  0.5011590000000 1.0
C      1  0.5665350000000  0.4221050000000  0.4814980000000 1.0
C      1  0.5417240000000  0.4906150000000  0.4487130000000 1.0
C      1  0.5698300000000  0.5063170000000  0.5889430000000 1.0
C      1  0.4977860000000  0.5160680000000  0.4825420000000 1.0
C      1  0.5701410000000  0.5275690000000  0.4345690000000 1.0
C      1  0.5640000000000  0.5525830000000  0.4539620000000 1.0
C      1  0.5877300000000  0.4769380000000  0.4414090000000 1.0
C      1  0.4522910000000  0.4738990000000  0.4697260000000 1.0
C      1  0.5083270000000  0.5003270000000  0.4165990000000 1.0
C      1  0.4958250000000  0.4033020000000  0.4862020000000 1.0
C      1  0.4629610000000  0.4099790000000  0.4918120000000 1.0
C      1  0.5164670000000  0.5281530000000  0.4485750000000 1.0
END
