TITL C-2848496-4490-184 -0.00134111489821699 125000 -152.421622032454 0 0 27 (C1) n - 1
REM
REM in /home/bkarasulu/work/CARBON/AIRSS/Generating-Clusters/AIREBO/with-SteepDescent/Only-C1/SD-CG-opt/Try1-1.4A-POS3A/HFTN-CG
REM
REM
REM
REM
REM
REM ./C.cell (11c1c37f851c82e70ff6c80c92926a4b)
REM
REM compiler GCC version 9.2.1 20190827 (Red Hat 9.2.1-1)
REM options -cpp -mtune=generic -march=x86-64 -g -O0 -fpre-include=/usr/include/finclude/math-vector-fortran.h
REM seed 165387920 57746482 788545330 -417955602 893388014 1746131517 -445425505 1399171168 -435398309 -178353600 656601311 -860275827 -1132426406 -331786975 314598378 1168477951 -2046686134 1794960021 730747388 -841525747 1145395345 565029425 1028539913 -159686289 -1133462594 1985563069 -1305430612 1452979891 -1689738209 2097290981 983300485 438532890 1376304189
REM
CELL 1.54180   50.00000   50.00000   50.00000   90.00000   90.00000   90.00000
LATT -1
SFAC C  
C      1  0.5204930000000  0.4601580000000  0.5386430000000 1.0
C      1  0.5143640000000  0.5080890000000  0.5416310000000 1.0
C      1  0.5030180000000  0.4266650000000  0.5022020000000 1.0
C      1  0.5297720000000  0.4832910000000  0.5793990000000 1.0
C      1  0.4748380000000  0.4744840000000  0.4699460000000 1.0
C      1  0.5215720000000  0.4838140000000  0.5536480000000 1.0
C      1  0.5464280000000  0.5288750000000  0.4633580000000 1.0
C      1  0.4872560000000  0.5470420000000  0.4992470000000 1.0
C      1  0.4523630000000  0.5259670000000  0.4724190000000 1.0
C      1  0.5833400000000  0.5399770000000  0.4272200000000 1.0
C      1  0.5292920000000  0.5223650000000  0.4837550000000 1.0
C      1  0.5196080000000  0.5435050000000  0.5027630000000 1.0
C      1  0.5650320000000  0.5344670000000  0.4451420000000 1.0
C      1  0.5119630000000  0.4384650000000  0.5249600000000 1.0
C      1  0.5163930000000  0.4980110000000  0.4863870000000 1.0
C      1  0.4996720000000  0.5299870000000  0.5260270000000 1.0
C      1  0.4870590000000  0.4727920000000  0.5160680000000 1.0
C      1  0.5371270000000  0.5636960000000  0.5098810000000 1.0
C      1  0.4848680000000  0.4281920000000  0.4818800000000 1.0
C      1  0.4679130000000  0.5470850000000  0.4816080000000 1.0
C      1  0.4525220000000  0.5057790000000  0.5201500000000 1.0
C      1  0.4757740000000  0.4468570000000  0.4636660000000 1.0
C      1  0.4945820000000  0.4812280000000  0.4898140000000 1.0
C      1  0.4398390000000  0.5066750000000  0.4946680000000 1.0
C      1  0.4673220000000  0.5281380000000  0.5296410000000 1.0
C      1  0.4545040000000  0.4937580000000  0.4682880000000 1.0
C      1  0.4630870000000  0.4806370000000  0.5275910000000 1.0
END
