TITL C-2848495-5024-666 0.00070136824931998 125000 -420.060699406227 0 0 77 (C1) n - 1
REM
REM in /home/bkarasulu/work/CARBON/AIRSS/Generating-Clusters/AIREBO/with-SteepDescent/Only-C1/SD-CG-opt/Try1-1.4A-POS3A/HFTN-CG
REM
REM
REM
REM
REM
REM ./C.cell (11c1c37f851c82e70ff6c80c92926a4b)
REM
REM compiler GCC version 9.2.1 20190827 (Red Hat 9.2.1-1)
REM options -cpp -mtune=generic -march=x86-64 -g -O0 -fpre-include=/usr/include/finclude/math-vector-fortran.h
REM seed 2019752799 227211432 -1101898700 1720026441 1479571816 -1688013523 -1719076073 -1709257047 330178380 -556138657 -1262775049 -292206492 2062571338 922814399 -243524345 1763342675 1196191173 -1586087966 -726369037 -346884351 2113442269 1494226169 -1877027281 -26989809 -910771631 1172328101 1151282832 896706305 2023661754 1127729756 -1304476890 1745415131 -1621079264
REM
CELL 1.54180   50.00000   50.00000   50.00000   90.00000   90.00000   90.00000
LATT -1
SFAC C  
C      1  0.5682360000000  0.5363740000000  0.5078220000000 1.0
C      1  0.4461430000000  0.4513120000000  0.5280040000000 1.0
C      1  0.5398660000000  0.5258500000000  0.4822580000000 1.0
C      1  0.5145800000000  0.4528760000000  0.4423420000000 1.0
C      1  0.5406550000000  0.4446070000000  0.4571460000000 1.0
C      1  0.5073170000000  0.4277070000000  0.4918230000000 1.0
C      1  0.5084590000000  0.4916140000000  0.5470380000000 1.0
C      1  0.4897000000000  0.5537810000000  0.4797610000000 1.0
C      1  0.5087450000000  0.5278120000000  0.4738690000000 1.0
C      1  0.4175190000000  0.4834660000000  0.4796040000000 1.0
C      1  0.4493820000000  0.4664380000000  0.4491010000000 1.0
C      1  0.5640020000000  0.5050030000000  0.4953810000000 1.0
C      1  0.5224260000000  0.4970880000000  0.5194520000000 1.0
C      1  0.4324030000000  0.5147160000000  0.5461060000000 1.0
C      1  0.4597480000000  0.5121380000000  0.4866300000000 1.0
C      1  0.5070770000000  0.5248840000000  0.5691870000000 1.0
C      1  0.4820240000000  0.4910600000000  0.5152370000000 1.0
C      1  0.4362140000000  0.4994860000000  0.5014810000000 1.0
C      1  0.5022520000000  0.4554730000000  0.4739220000000 1.0
C      1  0.4444730000000  0.5387140000000  0.4719170000000 1.0
C      1  0.4948160000000  0.5055240000000  0.5884460000000 1.0
C      1  0.4934270000000  0.4954570000000  0.4236740000000 1.0
C      1  0.4436900000000  0.5132920000000  0.4500700000000 1.0
C      1  0.5245330000000  0.5415640000000  0.5542530000000 1.0
C      1  0.4978240000000  0.5262910000000  0.4373120000000 1.0
C      1  0.4764560000000  0.5628380000000  0.5372550000000 1.0
C      1  0.4792610000000  0.4790250000000  0.4474160000000 1.0
C      1  0.5184910000000  0.4778920000000  0.4254810000000 1.0
C      1  0.5062200000000  0.5494990000000  0.5276360000000 1.0
C      1  0.5629170000000  0.5053390000000  0.5472250000000 1.0
C      1  0.4665390000000  0.5585810000000  0.4553360000000 1.0
C      1  0.4728590000000  0.5388880000000  0.5000770000000 1.0
C      1  0.5013300000000  0.5807400000000  0.4910440000000 1.0
C      1  0.5524070000000  0.4545550000000  0.5002480000000 1.0
C      1  0.5550800000000  0.4956060000000  0.5712040000000 1.0
C      1  0.5360220000000  0.4369600000000  0.4846930000000 1.0
C      1  0.5502060000000  0.5263560000000  0.4513310000000 1.0
C      1  0.5453150000000  0.4577030000000  0.5296940000000 1.0
C      1  0.5583300000000  0.4677730000000  0.4570890000000 1.0
C      1  0.4837010000000  0.5119120000000  0.5492430000000 1.0
C      1  0.4681850000000  0.4346780000000  0.5220750000000 1.0
C      1  0.5640580000000  0.4746720000000  0.4841050000000 1.0
C      1  0.4461960000000  0.4654050000000  0.5513520000000 1.0
C      1  0.4893090000000  0.5211860000000  0.5192990000000 1.0
C      1  0.4811730000000  0.4918420000000  0.4753160000000 1.0
C      1  0.4564610000000  0.4957570000000  0.5569270000000 1.0
C      1  0.5531550000000  0.5569920000000  0.4853640000000 1.0
C      1  0.4830690000000  0.4452710000000  0.4467000000000 1.0
C      1  0.4811470000000  0.4839860000000  0.5773010000000 1.0
C      1  0.4633440000000  0.4465820000000  0.4730360000000 1.0
C      1  0.5292310000000  0.5163970000000  0.4293790000000 1.0
C      1  0.4273880000000  0.5208890000000  0.5197300000000 1.0
C      1  0.4560310000000  0.5593250000000  0.5179290000000 1.0
C      1  0.5318770000000  0.5638430000000  0.4596730000000 1.0
C      1  0.5626720000000  0.4430820000000  0.5496550000000 1.0
C      1  0.5534370000000  0.5338220000000  0.5381030000000 1.0
C      1  0.4896140000000  0.4341120000000  0.5404910000000 1.0
C      1  0.5539610000000  0.4885870000000  0.5224750000000 1.0
C      1  0.5163230000000  0.5878270000000  0.4671250000000 1.0
C      1  0.4339010000000  0.4668930000000  0.5043910000000 1.0
C      1  0.4642140000000  0.4716710000000  0.4950060000000 1.0
C      1  0.5169350000000  0.5754360000000  0.5134050000000 1.0
C      1  0.5108190000000  0.4435690000000  0.5830340000000 1.0
C      1  0.4774070000000  0.4311530000000  0.4960610000000 1.0
C      1  0.5437790000000  0.5763180000000  0.5088770000000 1.0
C      1  0.5459310000000  0.4886080000000  0.4396300000000 1.0
C      1  0.4337010000000  0.5445710000000  0.5039400000000 1.0
C      1  0.5297060000000  0.5284610000000  0.5146070000000 1.0
C      1  0.5019920000000  0.4653020000000  0.5064780000000 1.0
C      1  0.5010870000000  0.4624250000000  0.5628540000000 1.0
C      1  0.5154160000000  0.4549280000000  0.5329370000000 1.0
C      1  0.5005350000000  0.5561670000000  0.4476150000000 1.0
C      1  0.5202100000000  0.5006600000000  0.4582800000000 1.0
C      1  0.5108080000000  0.4923450000000  0.4878460000000 1.0
C      1  0.4313730000000  0.4874620000000  0.4547690000000 1.0
C      1  0.4665390000000  0.5142320000000  0.4335040000000 1.0
C      1  0.5283670000000  0.4893510000000  0.5739240000000 1.0
END
