TITL C-2847951-7423-99 0.00134485896142385 125000 -733.700403212045 0 0 135 (C1) n - 1
REM
REM in /home/bkarasulu/work/CARBON/AIRSS/Generating-Clusters/AIREBO/with-SteepDescent/Only-C1/SD-CG-opt/Try1-1.4A-POS3A/HFTN-CG
REM
REM
REM
REM
REM
REM ./C.cell (11c1c37f851c82e70ff6c80c92926a4b)
REM
REM compiler GCC version 9.2.1 20190827 (Red Hat 9.2.1-1)
REM options -cpp -mtune=generic -march=x86-64 -g -O0 -fpre-include=/usr/include/finclude/math-vector-fortran.h
REM seed 1409922270 -595125145 222601767 -1607929723 -1133049611 1114989180 -1556394316 -573634526 -1352153349 -31788851 293044529 -679590360 434524139 1227623503 -6346416 -1940243762 468638133 1435496602 -1469461162 -1331164936 -895273307 -1334681346 518240894 -1269379332 2129754309 -813612767 2127385031 1147427640 460163551 -966453221 -961611136 -1376839973 -519372260
REM
CELL 1.54180   50.00000   50.00000   50.00000   90.00000   90.00000   90.00000
LATT -1
SFAC C  
C      1  0.4142320000000  0.4709340000000  0.4623310000000 1.0
C      1  0.5192530000000  0.4904020000000  0.5547900000000 1.0
C      1  0.5254470000000  0.4510770000000  0.5578820000000 1.0
C      1  0.4739330000000  0.4991970000000  0.5770270000000 1.0
C      1  0.4243790000000  0.5399930000000  0.4828810000000 1.0
C      1  0.5124370000000  0.5137630000000  0.4556570000000 1.0
C      1  0.5773790000000  0.5325090000000  0.5611350000000 1.0
C      1  0.4142360000000  0.5186580000000  0.4618100000000 1.0
C      1  0.5063530000000  0.5612250000000  0.5468770000000 1.0
C      1  0.4734060000000  0.4944250000000  0.4798300000000 1.0
C      1  0.5323660000000  0.5522440000000  0.5303790000000 1.0
C      1  0.5902050000000  0.4790860000000  0.4567150000000 1.0
C      1  0.4339580000000  0.5652380000000  0.4703290000000 1.0
C      1  0.4596460000000  0.4287870000000  0.4546420000000 1.0
C      1  0.4583560000000  0.5358770000000  0.5797820000000 1.0
C      1  0.4744180000000  0.5901790000000  0.4928010000000 1.0
C      1  0.5070800000000  0.5911440000000  0.5438710000000 1.0
C      1  0.4989880000000  0.4847130000000  0.5182680000000 1.0
C      1  0.4569360000000  0.5494350000000  0.5547380000000 1.0
C      1  0.5257140000000  0.4994530000000  0.5930960000000 1.0
C      1  0.5100970000000  0.4044230000000  0.5780630000000 1.0
C      1  0.5074690000000  0.4906000000000  0.4782980000000 1.0
C      1  0.4666610000000  0.4101320000000  0.4759610000000 1.0
C      1  0.5757560000000  0.5232000000000  0.4369600000000 1.0
C      1  0.5872190000000  0.4983980000000  0.5035620000000 1.0
C      1  0.5905540000000  0.4848910000000  0.5550320000000 1.0
C      1  0.4559310000000  0.5080140000000  0.5056440000000 1.0
C      1  0.4784060000000  0.4191980000000  0.5237660000000 1.0
C      1  0.5326910000000  0.5393030000000  0.4591850000000 1.0
C      1  0.4291460000000  0.5609490000000  0.4123940000000 1.0
C      1  0.4870640000000  0.4391340000000  0.4972320000000 1.0
C      1  0.4507900000000  0.4538770000000  0.5309600000000 1.0
C      1  0.4898150000000  0.5094500000000  0.4364340000000 1.0
C      1  0.5000120000000  0.5997900000000  0.4920900000000 1.0
C      1  0.5438070000000  0.4704100000000  0.5789970000000 1.0
C      1  0.4842490000000  0.4315950000000  0.4326230000000 1.0
C      1  0.4878580000000  0.5572880000000  0.4749110000000 1.0
C      1  0.5172720000000  0.5190850000000  0.5500360000000 1.0
C      1  0.5686780000000  0.4978700000000  0.4752020000000 1.0
C      1  0.5313840000000  0.5051840000000  0.4977390000000 1.0
C      1  0.4234410000000  0.5014960000000  0.5647950000000 1.0
C      1  0.4453630000000  0.4820090000000  0.5764640000000 1.0
C      1  0.5555170000000  0.4745490000000  0.4897650000000 1.0
C      1  0.4310810000000  0.4407220000000  0.4427400000000 1.0
C      1  0.4816960000000  0.5462450000000  0.5363090000000 1.0
C      1  0.4423930000000  0.4432690000000  0.5018220000000 1.0
C      1  0.5034460000000  0.4046990000000  0.5091810000000 1.0
C      1  0.4447510000000  0.5822800000000  0.4908660000000 1.0
C      1  0.4850840000000  0.5262810000000  0.5895750000000 1.0
C      1  0.5107220000000  0.4209150000000  0.4527950000000 1.0
C      1  0.5070750000000  0.4623910000000  0.4968340000000 1.0
C      1  0.4810910000000  0.5086910000000  0.4035720000000 1.0
C      1  0.5682920000000  0.5361780000000  0.5049980000000 1.0
C      1  0.5348740000000  0.4521570000000  0.4993940000000 1.0
C      1  0.4518970000000  0.5393260000000  0.5110290000000 1.0
C      1  0.5227380000000  0.5248750000000  0.5211980000000 1.0
C      1  0.5152310000000  0.5548310000000  0.4347590000000 1.0
C      1  0.5137830000000  0.4822090000000  0.4153520000000 1.0
C      1  0.5273290000000  0.5126620000000  0.4087340000000 1.0
C      1  0.5738210000000  0.5667010000000  0.4656110000000 1.0
C      1  0.5017010000000  0.4291720000000  0.5684820000000 1.0
C      1  0.5679610000000  0.4628070000000  0.5559510000000 1.0
C      1  0.5430760000000  0.4575610000000  0.4264910000000 1.0
C      1  0.4245710000000  0.4951150000000  0.5030080000000 1.0
C      1  0.5466120000000  0.4840760000000  0.4067000000000 1.0
C      1  0.5608060000000  0.5790310000000  0.4947780000000 1.0
C      1  0.5003440000000  0.4544230000000  0.5887790000000 1.0
C      1  0.4986940000000  0.6073520000000  0.5641910000000 1.0
C      1  0.5950610000000  0.4711470000000  0.4884560000000 1.0
C      1  0.5571940000000  0.5007490000000  0.5194880000000 1.0
C      1  0.6142950000000  0.5459250000000  0.5043530000000 1.0
C      1  0.4702430000000  0.4781700000000  0.5328960000000 1.0
C      1  0.5154020000000  0.5987710000000  0.5191150000000 1.0
C      1  0.4364310000000  0.5608200000000  0.4430380000000 1.0
C      1  0.4119730000000  0.4931020000000  0.4784720000000 1.0
C      1  0.4652870000000  0.4623760000000  0.4877920000000 1.0
C      1  0.5730880000000  0.4406470000000  0.5305920000000 1.0
C      1  0.5142400000000  0.4466380000000  0.4333390000000 1.0
C      1  0.4571240000000  0.4483390000000  0.4205660000000 1.0
C      1  0.5657280000000  0.4907090000000  0.4361600000000 1.0
C      1  0.4454730000000  0.5145500000000  0.4746030000000 1.0
C      1  0.5532000000000  0.4387150000000  0.4736490000000 1.0
C      1  0.4125830000000  0.4874590000000  0.5285720000000 1.0
C      1  0.4838660000000  0.5146560000000  0.5238610000000 1.0
C      1  0.4134450000000  0.5160210000000  0.4315150000000 1.0
C      1  0.5825320000000  0.5092870000000  0.5412330000000 1.0
C      1  0.4606310000000  0.5049480000000  0.5469780000000 1.0
C      1  0.5257110000000  0.5438260000000  0.5686250000000 1.0
C      1  0.5010280000000  0.4822730000000  0.5823320000000 1.0
C      1  0.4552460000000  0.4154340000000  0.5019240000000 1.0
C      1  0.5446190000000  0.4814050000000  0.5406290000000 1.0
C      1  0.5417870000000  0.4495870000000  0.5290420000000 1.0
C      1  0.4879640000000  0.5594320000000  0.4468520000000 1.0
C      1  0.5180670000000  0.5552360000000  0.4841240000000 1.0
C      1  0.5297510000000  0.5822820000000  0.4933320000000 1.0
C      1  0.5129220000000  0.5269590000000  0.5908070000000 1.0
C      1  0.4298050000000  0.5153670000000  0.5368420000000 1.0
C      1  0.4378350000000  0.5170390000000  0.5865090000000 1.0
C      1  0.5854200000000  0.5479400000000  0.5319170000000 1.0
C      1  0.4477850000000  0.5349770000000  0.4240630000000 1.0
C      1  0.5890450000000  0.5601100000000  0.4939900000000 1.0
C      1  0.4806340000000  0.5384830000000  0.4213070000000 1.0
C      1  0.5529630000000  0.5242640000000  0.4819740000000 1.0
C      1  0.4976910000000  0.4660130000000  0.5462810000000 1.0
C      1  0.4593290000000  0.4555370000000  0.5638320000000 1.0
C      1  0.6040980000000  0.5213430000000  0.5183120000000 1.0
C      1  0.4603390000000  0.4626370000000  0.4577680000000 1.0
C      1  0.4269540000000  0.4490130000000  0.5547000000000 1.0
C      1  0.5745360000000  0.4477700000000  0.4985750000000 1.0
C      1  0.5612570000000  0.4606700000000  0.4514770000000 1.0
C      1  0.5594820000000  0.5690240000000  0.5256860000000 1.0
C      1  0.5364800000000  0.5051090000000  0.4388520000000 1.0
C      1  0.5190260000000  0.3860800000000  0.5181940000000 1.0
C      1  0.4931870000000  0.4709050000000  0.3985750000000 1.0
C      1  0.5125330000000  0.5389610000000  0.4088700000000 1.0
C      1  0.4347230000000  0.4752670000000  0.4393190000000 1.0
C      1  0.4089060000000  0.4444920000000  0.5076010000000 1.0
C      1  0.4739150000000  0.5593790000000  0.5057250000000 1.0
C      1  0.4199780000000  0.5409650000000  0.5166960000000 1.0
C      1  0.4098640000000  0.4601690000000  0.5324800000000 1.0
C      1  0.4388050000000  0.5022810000000  0.4208270000000 1.0
C      1  0.5644540000000  0.5450130000000  0.4496930000000 1.0
C      1  0.4972410000000  0.4125640000000  0.4786120000000 1.0
C      1  0.5547340000000  0.5534940000000  0.5564820000000 1.0
C      1  0.5739090000000  0.5181730000000  0.5883980000000 1.0
C      1  0.5565470000000  0.4981570000000  0.5920380000000 1.0
C      1  0.4350520000000  0.5597420000000  0.5407040000000 1.0
C      1  0.5092440000000  0.4747070000000  0.4482650000000 1.0
C      1  0.4333130000000  0.5790640000000  0.5172570000000 1.0
C      1  0.4754780000000  0.4293840000000  0.5515560000000 1.0
C      1  0.4782620000000  0.4808320000000  0.4425300000000 1.0
C      1  0.4638680000000  0.4807600000000  0.4126930000000 1.0
C      1  0.5394670000000  0.4169620000000  0.4604570000000 1.0
C      1  0.4211560000000  0.4438570000000  0.4752520000000 1.0
C      1  0.5008200000000  0.5308810000000  0.4992450000000 1.0
END
