TITL C-2848497-6229-517 -0.000221652689043589 125000 -484.654500799904 0 0 93 (C1) n - 1
REM
REM in /home/bkarasulu/work/CARBON/AIRSS/Generating-Clusters/AIREBO/with-SteepDescent/Only-C1/SD-CG-opt/Try1-1.4A-POS3A/HFTN-CG
REM
REM
REM
REM
REM
REM ./C.cell (11c1c37f851c82e70ff6c80c92926a4b)
REM
REM compiler GCC version 9.2.1 20190827 (Red Hat 9.2.1-1)
REM options -cpp -mtune=generic -march=x86-64 -g -O0 -fpre-include=/usr/include/finclude/math-vector-fortran.h
REM seed -1046453 -917531491 -1161173988 789125200 -950893760 -274225579 373953833 -1827889644 1436963621 -2081737113 1390639330 1478821032 213302961 895839631 -1185876092 2008090313 1675865602 -557046039 -1815467102 -171411719 1269495136 117086106 50947190 1797299397 -351040397 -1758635502 -897014565 2004444815 -1843442125 1504162966 1882197819 -1154710591 1596649414
REM
CELL 1.54180   50.00000   50.00000   50.00000   90.00000   90.00000   90.00000
LATT -1
SFAC C  
C      1  0.5228880000000  0.4873330000000  0.5570620000000 1.0
C      1  0.5133040000000  0.4771540000000  0.4760550000000 1.0
C      1  0.5316890000000  0.5554570000000  0.4854670000000 1.0
C      1  0.5169020000000  0.5798730000000  0.5039660000000 1.0
C      1  0.4365170000000  0.5394290000000  0.5416630000000 1.0
C      1  0.4985020000000  0.5477840000000  0.5779360000000 1.0
C      1  0.5797730000000  0.5258240000000  0.5146720000000 1.0
C      1  0.4862460000000  0.5683140000000  0.5592760000000 1.0
C      1  0.5134460000000  0.5794350000000  0.4696690000000 1.0
C      1  0.5470080000000  0.4761650000000  0.4804530000000 1.0
C      1  0.4688920000000  0.5474210000000  0.4357360000000 1.0
C      1  0.4987300000000  0.4714810000000  0.4308890000000 1.0
C      1  0.4637670000000  0.5063330000000  0.4743350000000 1.0
C      1  0.5041200000000  0.4150590000000  0.5003610000000 1.0
C      1  0.4711560000000  0.4080750000000  0.4927750000000 1.0
C      1  0.5210610000000  0.5375640000000  0.4395440000000 1.0
C      1  0.4402120000000  0.5508450000000  0.4786260000000 1.0
C      1  0.4524620000000  0.4988110000000  0.4368310000000 1.0
C      1  0.4520150000000  0.4501640000000  0.4557120000000 1.0
C      1  0.4974780000000  0.5613070000000  0.4455830000000 1.0
C      1  0.5113190000000  0.4924400000000  0.4072500000000 1.0
C      1  0.4913830000000  0.5327920000000  0.5418550000000 1.0
C      1  0.4306590000000  0.5154140000000  0.5630650000000 1.0
C      1  0.4680550000000  0.5869710000000  0.5107560000000 1.0
C      1  0.4286360000000  0.4876490000000  0.4783240000000 1.0
C      1  0.4293980000000  0.5093230000000  0.5296690000000 1.0
C      1  0.5323430000000  0.4767670000000  0.4274580000000 1.0
C      1  0.5739320000000  0.5593590000000  0.5171890000000 1.0
C      1  0.4628390000000  0.5467640000000  0.5387920000000 1.0
C      1  0.5501550000000  0.5022270000000  0.5640430000000 1.0
C      1  0.5471260000000  0.5260120000000  0.5762800000000 1.0
C      1  0.5326510000000  0.4497170000000  0.4689010000000 1.0
C      1  0.4544710000000  0.5343420000000  0.4574030000000 1.0
C      1  0.4843420000000  0.4874750000000  0.5254740000000 1.0
C      1  0.5716180000000  0.5066560000000  0.4877610000000 1.0
C      1  0.5255170000000  0.4232360000000  0.4762430000000 1.0
C      1  0.4929350000000  0.5694280000000  0.5259310000000 1.0
C      1  0.5064700000000  0.4683060000000  0.5081690000000 1.0
C      1  0.4768520000000  0.5455240000000  0.5078320000000 1.0
C      1  0.5281370000000  0.5460300000000  0.5711990000000 1.0
C      1  0.4679140000000  0.5192730000000  0.4230130000000 1.0
C      1  0.4678870000000  0.4644070000000  0.4821950000000 1.0
C      1  0.5626660000000  0.5019050000000  0.4341920000000 1.0
C      1  0.4833880000000  0.5546030000000  0.4759910000000 1.0
C      1  0.4365840000000  0.4779770000000  0.4523300000000 1.0
C      1  0.4341130000000  0.5178910000000  0.4864710000000 1.0
C      1  0.5823320000000  0.5483360000000  0.4893150000000 1.0
C      1  0.4762770000000  0.4818990000000  0.4542540000000 1.0
C      1  0.5790430000000  0.5011490000000  0.5381860000000 1.0
C      1  0.5365530000000  0.4507130000000  0.5488210000000 1.0
C      1  0.5646840000000  0.4551400000000  0.5212390000000 1.0
C      1  0.4517790000000  0.4250910000000  0.4787280000000 1.0
C      1  0.4411960000000  0.4679180000000  0.5030000000000 1.0
C      1  0.4975740000000  0.4513440000000  0.5433830000000 1.0
C      1  0.5170700000000  0.5508020000000  0.5410100000000 1.0
C      1  0.4179040000000  0.4827680000000  0.5227440000000 1.0
C      1  0.5097480000000  0.5336180000000  0.4713740000000 1.0
C      1  0.5344040000000  0.5106350000000  0.4251940000000 1.0
C      1  0.5469800000000  0.5301580000000  0.4576990000000 1.0
C      1  0.5023860000000  0.5034700000000  0.4574580000000 1.0
C      1  0.4707060000000  0.4152190000000  0.5220980000000 1.0
C      1  0.5135320000000  0.4596920000000  0.5722240000000 1.0
C      1  0.5683610000000  0.4416800000000  0.4318150000000 1.0
C      1  0.4900230000000  0.4830420000000  0.5820390000000 1.0
C      1  0.4578390000000  0.5738010000000  0.4876230000000 1.0
C      1  0.5265950000000  0.4883110000000  0.5262120000000 1.0
C      1  0.5692720000000  0.4881950000000  0.4592610000000 1.0
C      1  0.5393510000000  0.5074770000000  0.4770680000000 1.0
C      1  0.4832240000000  0.5053200000000  0.5006360000000 1.0
C      1  0.4766890000000  0.4681070000000  0.5595170000000 1.0
C      1  0.4966980000000  0.5030280000000  0.5482590000000 1.0
C      1  0.5613810000000  0.5517230000000  0.4714330000000 1.0
C      1  0.5110200000000  0.5120690000000  0.4953990000000 1.0
C      1  0.5172350000000  0.4274450000000  0.5292960000000 1.0
C      1  0.4574910000000  0.4738240000000  0.5323110000000 1.0
C      1  0.4320160000000  0.4371290000000  0.4960930000000 1.0
C      1  0.4559540000000  0.5030520000000  0.5799730000000 1.0
C      1  0.5619230000000  0.4739290000000  0.5492810000000 1.0
C      1  0.4945470000000  0.5106940000000  0.4265830000000 1.0
C      1  0.4117460000000  0.4668170000000  0.5476010000000 1.0
C      1  0.4833640000000  0.4447230000000  0.5163630000000 1.0
C      1  0.5503480000000  0.4603710000000  0.4440650000000 1.0
C      1  0.4393500000000  0.4829450000000  0.5579430000000 1.0
C      1  0.4554080000000  0.5192680000000  0.5109790000000 1.0
C      1  0.5360490000000  0.5467960000000  0.5180730000000 1.0
C      1  0.5347090000000  0.4505840000000  0.5148690000000 1.0
C      1  0.5566480000000  0.4936760000000  0.5149910000000 1.0
C      1  0.4853550000000  0.5164040000000  0.5773980000000 1.0
C      1  0.4769530000000  0.4495910000000  0.4358350000000 1.0
C      1  0.5495070000000  0.5771960000000  0.5138350000000 1.0
C      1  0.4906840000000  0.4412520000000  0.4833400000000 1.0
C      1  0.5344680000000  0.5179400000000  0.5151410000000 1.0
C      1  0.4860660000000  0.4293410000000  0.4556420000000 1.0
END
