TITL C-2848503-6230-330 -5.24615060295736e-05 125000 -119.512447808475 0 0 22 (C1) n - 1
REM
REM in /home/bkarasulu/work/CARBON/AIRSS/Generating-Clusters/AIREBO/with-SteepDescent/Only-C1/SD-CG-opt/Try1-1.4A-POS3A/HFTN-CG
REM
REM
REM
REM
REM
REM ./C.cell (11c1c37f851c82e70ff6c80c92926a4b)
REM
REM compiler GCC version 9.2.1 20190827 (Red Hat 9.2.1-1)
REM options -cpp -mtune=generic -march=x86-64 -g -O0 -fpre-include=/usr/include/finclude/math-vector-fortran.h
REM seed 1134112972 -1584769835 -518413346 962732924 -401888740 -1547817602 540753528 -1426686198 -1416506444 1159882125 277416462 199982303 866038943 1716227066 -807278773 -568358486 2039263612 -1671822915 -108206502 -552807668 -1656106656 798808772 984831876 707055231 255563529 908904917 746766578 -734820181 1123108892 159190722 -1374424631 -477268235 921082447
REM
CELL 1.54180   50.00000   50.00000   50.00000   90.00000   90.00000   90.00000
LATT -1
SFAC C  
C      1  0.4939990000000  0.5357880000000  0.5248200000000 1.0
C      1  0.5662620000000  0.4560230000000  0.5596440000000 1.0
C      1  0.4958600000000  0.4550900000000  0.4942610000000 1.0
C      1  0.4777830000000  0.5407410000000  0.5023400000000 1.0
C      1  0.5385800000000  0.5554060000000  0.4627840000000 1.0
C      1  0.5494320000000  0.4698370000000  0.5450540000000 1.0
C      1  0.4213330000000  0.4961570000000  0.5030000000000 1.0
C      1  0.5455110000000  0.5063000000000  0.4832730000000 1.0
C      1  0.3985050000000  0.4855870000000  0.4956440000000 1.0
C      1  0.4465090000000  0.5049120000000  0.5100580000000 1.0
C      1  0.5020410000000  0.4807360000000  0.4853500000000 1.0
C      1  0.4789920000000  0.5027620000000  0.4739300000000 1.0
C      1  0.5240150000000  0.4946620000000  0.5000830000000 1.0
C      1  0.4834130000000  0.5112140000000  0.5418030000000 1.0
C      1  0.4578310000000  0.5017700000000  0.5360300000000 1.0
C      1  0.5670790000000  0.4906200000000  0.4767370000000 1.0
C      1  0.5133600000000  0.5091580000000  0.5279510000000 1.0
C      1  0.5425800000000  0.5319740000000  0.4738260000000 1.0
C      1  0.5348000000000  0.4850690000000  0.5305830000000 1.0
C      1  0.4645130000000  0.5177720000000  0.4916230000000 1.0
C      1  0.5019360000000  0.4817590000000  0.4279180000000 1.0
C      1  0.4956640000000  0.4866630000000  0.4532890000000 1.0
END
