TITL C-2848506-1665-303 0.00982929123549172 125000 -267.80349907403 0 0 50 (C1) n - 1
REM
REM in /home/bkarasulu/work/CARBON/AIRSS/Generating-Clusters/AIREBO/with-SteepDescent/Only-C1/SD-CG-opt/Try1-1.4A-POS3A/HFTN-CG
REM
REM
REM
REM
REM
REM ./C.cell (11c1c37f851c82e70ff6c80c92926a4b)
REM
REM compiler GCC version 9.2.1 20190827 (Red Hat 9.2.1-1)
REM options -cpp -mtune=generic -march=x86-64 -g -O0 -fpre-include=/usr/include/finclude/math-vector-fortran.h
REM seed -1143600038 -547971019 -1162070044 -431382807 -1335636055 -1191877161 -924760144 -225968926 852541614 1538509420 -907586157 -1437728666 442746242 1618825441 -374201941 -1961641560 1693289599 -1060857455 926019205 306025819 -1504433593 -2115224999 1856262117 -2076476344 -870271981 -1381799478 -246083646 637400476 868012777 -578345554 1592499414 -1609268504 -653427423
REM
CELL 1.54180   50.00000   50.00000   50.00000   90.00000   90.00000   90.00000
LATT -1
SFAC C  
C      1  0.5514990000000  0.4958400000000  0.5243530000000 1.0
C      1  0.4989750000000  0.5389170000000  0.4362430000000 1.0
C      1  0.5303440000000  0.4986750000000  0.4812010000000 1.0
C      1  0.4510320000000  0.4907290000000  0.4745750000000 1.0
C      1  0.4982950000000  0.4430270000000  0.5270540000000 1.0
C      1  0.5568990000000  0.4886180000000  0.4422610000000 1.0
C      1  0.5269780000000  0.5551680000000  0.4765540000000 1.0
C      1  0.5356910000000  0.4169760000000  0.5121070000000 1.0
C      1  0.4477530000000  0.4619680000000  0.4867200000000 1.0
C      1  0.5500790000000  0.5473270000000  0.4911250000000 1.0
C      1  0.4634840000000  0.4896310000000  0.5298380000000 1.0
C      1  0.5232350000000  0.5831580000000  0.4756470000000 1.0
C      1  0.4417400000000  0.5217380000000  0.4677850000000 1.0
C      1  0.4812520000000  0.5570780000000  0.4485210000000 1.0
C      1  0.4447300000000  0.5503110000000  0.5085220000000 1.0
C      1  0.4672440000000  0.5490560000000  0.5309140000000 1.0
C      1  0.4514360000000  0.5426460000000  0.4831720000000 1.0
C      1  0.5483360000000  0.4544520000000  0.5583240000000 1.0
C      1  0.4769540000000  0.5513130000000  0.4757000000000 1.0
C      1  0.5083070000000  0.4915180000000  0.4406680000000 1.0
C      1  0.4579180000000  0.5044770000000  0.4438480000000 1.0
C      1  0.4832310000000  0.4467100000000  0.4967930000000 1.0
C      1  0.4375040000000  0.5601580000000  0.5382790000000 1.0
C      1  0.4927590000000  0.4712410000000  0.4528670000000 1.0
C      1  0.5444590000000  0.4673980000000  0.5262120000000 1.0
C      1  0.5483140000000  0.3952980000000  0.5024450000000 1.0
C      1  0.4881070000000  0.5257810000000  0.5711800000000 1.0
C      1  0.4854330000000  0.5003610000000  0.5487570000000 1.0
C      1  0.4936180000000  0.4737050000000  0.4829340000000 1.0
C      1  0.5357810000000  0.5317220000000  0.5485550000000 1.0
C      1  0.5399060000000  0.5121060000000  0.5052610000000 1.0
C      1  0.5250720000000  0.5415130000000  0.4473710000000 1.0
C      1  0.5008910000000  0.5068070000000  0.4902400000000 1.0
C      1  0.5469160000000  0.4344550000000  0.5309260000000 1.0
C      1  0.4895390000000  0.5125850000000  0.4343390000000 1.0
C      1  0.5184240000000  0.5360980000000  0.5196360000000 1.0
C      1  0.4595030000000  0.4366100000000  0.4746300000000 1.0
C      1  0.5057870000000  0.4804230000000  0.5576790000000 1.0
C      1  0.5348790000000  0.4825870000000  0.5648620000000 1.0
C      1  0.4360110000000  0.4990360000000  0.5400800000000 1.0
C      1  0.4586380000000  0.4611320000000  0.5158430000000 1.0
C      1  0.5468940000000  0.5054660000000  0.5509500000000 1.0
C      1  0.4902310000000  0.5323310000000  0.5380480000000 1.0
C      1  0.5277050000000  0.5657990000000  0.5186240000000 1.0
C      1  0.5097910000000  0.4245510000000  0.5046140000000 1.0
C      1  0.4669920000000  0.4725930000000  0.4427110000000 1.0
C      1  0.5336030000000  0.4958290000000  0.4536860000000 1.0
C      1  0.5144150000000  0.4612340000000  0.5380160000000 1.0
C      1  0.4721110000000  0.4945900000000  0.4989130000000 1.0
C      1  0.5013060000000  0.5392560000000  0.4904170000000 1.0
END
