TITL C-2848504-8560-391 0.000543646109544339 125000 -736.055811556237 0 0 138 (C1) n - 1
REM
REM in /home/bkarasulu/work/CARBON/AIRSS/Generating-Clusters/AIREBO/with-SteepDescent/Only-C1/SD-CG-opt/Try1-1.4A-POS3A/HFTN-CG
REM
REM
REM
REM
REM
REM ./C.cell (11c1c37f851c82e70ff6c80c92926a4b)
REM
REM compiler GCC version 9.2.1 20190827 (Red Hat 9.2.1-1)
REM options -cpp -mtune=generic -march=x86-64 -g -O0 -fpre-include=/usr/include/finclude/math-vector-fortran.h
REM seed -1283130765 1400005619 653447027 1894727463 1202098143 -1717846544 353654398 -1014566935 856121120 -1997786964 1998647101 916006006 -180509436 -1970993542 1164044629 -1752506274 -175798845 1835381768 -1260954108 932811462 1998927266 50517282 1038534266 2063912706 -1727770519 -1169564052 247002996 1491360633 1859779010 -924963683 -711774048 1538647529 1961109452
REM
CELL 1.54180   50.00000   50.00000   50.00000   90.00000   90.00000   90.00000
LATT -1
SFAC C  
C      1  0.5792660000000  0.4496860000000  0.5303160000000 1.0
C      1  0.4521940000000  0.4510830000000  0.4739780000000 1.0
C      1  0.5822420000000  0.4412000000000  0.4988710000000 1.0
C      1  0.5091430000000  0.4997520000000  0.5147330000000 1.0
C      1  0.5367830000000  0.5087240000000  0.5930310000000 1.0
C      1  0.5789080000000  0.5129750000000  0.4283410000000 1.0
C      1  0.3846160000000  0.4312400000000  0.5064130000000 1.0
C      1  0.5509670000000  0.5091730000000  0.4218910000000 1.0
C      1  0.4640610000000  0.4367370000000  0.5015740000000 1.0
C      1  0.4289320000000  0.5560830000000  0.5307060000000 1.0
C      1  0.4360710000000  0.4861450000000  0.5038940000000 1.0
C      1  0.5926740000000  0.5432930000000  0.5383820000000 1.0
C      1  0.4278200000000  0.5314030000000  0.4452090000000 1.0
C      1  0.5773030000000  0.4097810000000  0.4926930000000 1.0
C      1  0.4230360000000  0.5459400000000  0.4987860000000 1.0
C      1  0.4522050000000  0.4331670000000  0.5732790000000 1.0
C      1  0.4995240000000  0.4654860000000  0.5346810000000 1.0
C      1  0.4053250000000  0.4485460000000  0.5020810000000 1.0
C      1  0.5712870000000  0.5130250000000  0.5141470000000 1.0
C      1  0.4095290000000  0.4866600000000  0.4148730000000 1.0
C      1  0.5252850000000  0.3983070000000  0.4725840000000 1.0
C      1  0.5580930000000  0.4708760000000  0.5727950000000 1.0
C      1  0.4830270000000  0.5542820000000  0.5881030000000 1.0
C      1  0.4278120000000  0.4213780000000  0.4631590000000 1.0
C      1  0.5030660000000  0.5094110000000  0.5446350000000 1.0
C      1  0.5309180000000  0.5576130000000  0.4590650000000 1.0
C      1  0.4733740000000  0.4198950000000  0.5569590000000 1.0
C      1  0.4499870000000  0.5305220000000  0.5086950000000 1.0
C      1  0.4784090000000  0.4491880000000  0.5850190000000 1.0
C      1  0.5519550000000  0.4499270000000  0.4536320000000 1.0
C      1  0.5793950000000  0.5002120000000  0.5394020000000 1.0
C      1  0.5228460000000  0.4918330000000  0.4506200000000 1.0
C      1  0.5076360000000  0.5733340000000  0.4407120000000 1.0
C      1  0.4738130000000  0.5691760000000  0.4386180000000 1.0
C      1  0.5030360000000  0.5299210000000  0.5943780000000 1.0
C      1  0.4484490000000  0.5498330000000  0.4465650000000 1.0
C      1  0.5079030000000  0.5595040000000  0.5032710000000 1.0
C      1  0.5741660000000  0.5710380000000  0.4944450000000 1.0
C      1  0.4967490000000  0.4379310000000  0.5514550000000 1.0
C      1  0.4182000000000  0.4504650000000  0.4743840000000 1.0
C      1  0.4461070000000  0.4972040000000  0.5809240000000 1.0
C      1  0.5696500000000  0.5589730000000  0.5441480000000 1.0
C      1  0.4972920000000  0.4449570000000  0.4789160000000 1.0
C      1  0.5187890000000  0.4619580000000  0.4118940000000 1.0
C      1  0.5245060000000  0.4392820000000  0.4365950000000 1.0
C      1  0.4736410000000  0.5065100000000  0.4281950000000 1.0
C      1  0.5457800000000  0.5211840000000  0.4649340000000 1.0
C      1  0.4601550000000  0.4719480000000  0.5693220000000 1.0
C      1  0.4563470000000  0.4888590000000  0.4481160000000 1.0
C      1  0.4897050000000  0.4203270000000  0.4445280000000 1.0
C      1  0.4738340000000  0.6011690000000  0.5291660000000 1.0
C      1  0.5342910000000  0.5703890000000  0.4872550000000 1.0
C      1  0.5966260000000  0.5312620000000  0.5067050000000 1.0
C      1  0.4624320000000  0.5056750000000  0.4957980000000 1.0
C      1  0.4421500000000  0.5703150000000  0.4844500000000 1.0
C      1  0.5303080000000  0.5563500000000  0.5392840000000 1.0
C      1  0.4732430000000  0.4828330000000  0.5432960000000 1.0
C      1  0.4338920000000  0.5040680000000  0.4312120000000 1.0
C      1  0.4617370000000  0.5475950000000  0.5348720000000 1.0
C      1  0.5807520000000  0.5388520000000  0.4596640000000 1.0
C      1  0.4716540000000  0.5167700000000  0.5453390000000 1.0
C      1  0.4719330000000  0.4739750000000  0.4895690000000 1.0
C      1  0.4800400000000  0.5257260000000  0.4829180000000 1.0
C      1  0.5613840000000  0.4404000000000  0.5580360000000 1.0
C      1  0.4279470000000  0.5824450000000  0.5129050000000 1.0
C      1  0.4346810000000  0.4865700000000  0.4699230000000 1.0
C      1  0.5048440000000  0.5855830000000  0.5488400000000 1.0
C      1  0.5304200000000  0.4386920000000  0.5547380000000 1.0
C      1  0.4731860000000  0.5120130000000  0.5932320000000 1.0
C      1  0.4480380000000  0.5259210000000  0.5655260000000 1.0
C      1  0.4158650000000  0.5129350000000  0.4979020000000 1.0
C      1  0.5003650000000  0.4622560000000  0.5040940000000 1.0
C      1  0.4590460000000  0.4657700000000  0.5190940000000 1.0
C      1  0.4587440000000  0.5874350000000  0.4615270000000 1.0
C      1  0.5605240000000  0.5557070000000  0.4429790000000 1.0
C      1  0.4051920000000  0.4762220000000  0.4585930000000 1.0
C      1  0.5036740000000  0.5298640000000  0.4998860000000 1.0
C      1  0.4232210000000  0.5299710000000  0.5461600000000 1.0
C      1  0.4670700000000  0.5501800000000  0.4730660000000 1.0
C      1  0.5324930000000  0.4517460000000  0.5004370000000 1.0
C      1  0.5244590000000  0.4315950000000  0.5236330000000 1.0
C      1  0.4700710000000  0.4469810000000  0.4497140000000 1.0
C      1  0.5645050000000  0.4755930000000  0.5407240000000 1.0
C      1  0.5734970000000  0.5056340000000  0.4611030000000 1.0
C      1  0.4923300000000  0.5914660000000  0.4653440000000 1.0
C      1  0.5307690000000  0.4744760000000  0.5365740000000 1.0
C      1  0.5507270000000  0.5638520000000  0.5163070000000 1.0
C      1  0.5887240000000  0.5499280000000  0.4843590000000 1.0
C      1  0.4816710000000  0.5720970000000  0.4902410000000 1.0
C      1  0.5076340000000  0.5193980000000  0.3974900000000 1.0
C      1  0.5000700000000  0.5149540000000  0.4426360000000 1.0
C      1  0.5211110000000  0.5414430000000  0.4084500000000 1.0
C      1  0.5180480000000  0.4803870000000  0.5851300000000 1.0
C      1  0.5034010000000  0.4012220000000  0.4904180000000 1.0
C      1  0.4768660000000  0.5674530000000  0.5573150000000 1.0
C      1  0.5516820000000  0.5558280000000  0.5728410000000 1.0
C      1  0.5901480000000  0.4727250000000  0.5067880000000 1.0
C      1  0.4315250000000  0.4982800000000  0.3977910000000 1.0
C      1  0.5302050000000  0.5302410000000  0.4388670000000 1.0
C      1  0.4108980000000  0.5093910000000  0.4648450000000 1.0
C      1  0.4341710000000  0.4539290000000  0.5603880000000 1.0
C      1  0.5069950000000  0.5552280000000  0.5640040000000 1.0
C      1  0.4095710000000  0.5066540000000  0.5284680000000 1.0
C      1  0.5528400000000  0.4809540000000  0.4501000000000 1.0
C      1  0.5098020000000  0.4927420000000  0.4187980000000 1.0
C      1  0.4996390000000  0.4333380000000  0.4141610000000 1.0
C      1  0.4994180000000  0.5037390000000  0.5751010000000 1.0
C      1  0.5079140000000  0.4949440000000  0.4810270000000 1.0
C      1  0.5467460000000  0.4790740000000  0.4168210000000 1.0
C      1  0.4141950000000  0.4680100000000  0.5192630000000 1.0
C      1  0.5135830000000  0.5961620000000  0.4887480000000 1.0
C      1  0.5355010000000  0.5390400000000  0.5899320000000 1.0
C      1  0.5303400000000  0.5187300000000  0.4874930000000 1.0
C      1  0.5357840000000  0.5657090000000  0.4213980000000 1.0
C      1  0.5102340000000  0.4529410000000  0.5788200000000 1.0
C      1  0.5431740000000  0.5218470000000  0.5151610000000 1.0
C      1  0.5504970000000  0.4061920000000  0.4814720000000 1.0
C      1  0.5945860000000  0.5182150000000  0.5530740000000 1.0
C      1  0.5532840000000  0.4396160000000  0.4819840000000 1.0
C      1  0.5574970000000  0.4322520000000  0.4255400000000 1.0
C      1  0.5677420000000  0.4916040000000  0.4916530000000 1.0
C      1  0.5107840000000  0.4093920000000  0.5162390000000 1.0
C      1  0.5357930000000  0.5815580000000  0.5620870000000 1.0
C      1  0.4177520000000  0.5003150000000  0.5618670000000 1.0
C      1  0.5192520000000  0.4073750000000  0.4471190000000 1.0
C      1  0.4781990000000  0.4185640000000  0.4765170000000 1.0
C      1  0.6071210000000  0.4988920000000  0.5042070000000 1.0
C      1  0.4787480000000  0.5111410000000  0.4016260000000 1.0
C      1  0.4852560000000  0.4823780000000  0.4603890000000 1.0
C      1  0.5309240000000  0.5241830000000  0.5438820000000 1.0
C      1  0.4482110000000  0.4078070000000  0.4681890000000 1.0
C      1  0.5040650000000  0.5897470000000  0.5185870000000 1.0
C      1  0.4160740000000  0.4705710000000  0.5472890000000 1.0
C      1  0.4543350000000  0.5472770000000  0.5834500000000 1.0
C      1  0.4669310000000  0.5754470000000  0.5160670000000 1.0
C      1  0.5023600000000  0.4575120000000  0.4513720000000 1.0
C      1  0.5375290000000  0.4836350000000  0.5051120000000 1.0
C      1  0.5372490000000  0.4957110000000  0.5616180000000 1.0
END
