TITL C-2848497-6229-280 -0.000259362254296864 125000 -1019.38533031237 0 0 191 (C1) n - 1
REM
REM in /home/bkarasulu/work/CARBON/AIRSS/Generating-Clusters/AIREBO/with-SteepDescent/Only-C1/SD-CG-opt/Try1-1.4A-POS3A/HFTN-CG
REM
REM
REM
REM
REM
REM ./C.cell (11c1c37f851c82e70ff6c80c92926a4b)
REM
REM compiler GCC version 9.2.1 20190827 (Red Hat 9.2.1-1)
REM options -cpp -mtune=generic -march=x86-64 -g -O0 -fpre-include=/usr/include/finclude/math-vector-fortran.h
REM seed 942784270 1037849508 140669092 -1114563313 765636330 -662382541 -1298427295 810973635 1765232642 -622876391 -2025455127 -988018215 -1622924323 1377392496 1897825440 -618197551 805521157 -622799888 -1829583934 -621159135 787856779 1471550395 -1477017385 50896140 802019811 -1261160694 -1056322592 -1887422258 -545021049 398682227 -2058665789 -136601409 -1174326938
REM
CELL 1.54180   50.00000   50.00000   50.00000   90.00000   90.00000   90.00000
LATT -1
SFAC C  
C      1  0.4990130000000  0.5700160000000  0.5787530000000 1.0
C      1  0.4603130000000  0.4367000000000  0.4516530000000 1.0
C      1  0.4619860000000  0.3781080000000  0.5021810000000 1.0
C      1  0.5452410000000  0.4030290000000  0.5689410000000 1.0
C      1  0.5335300000000  0.4471130000000  0.5427530000000 1.0
C      1  0.4166550000000  0.5699750000000  0.4470960000000 1.0
C      1  0.4340420000000  0.5560410000000  0.5179670000000 1.0
C      1  0.5270830000000  0.4152130000000  0.5478070000000 1.0
C      1  0.4786250000000  0.4548340000000  0.4053930000000 1.0
C      1  0.5306650000000  0.5579020000000  0.5264160000000 1.0
C      1  0.4288280000000  0.4103810000000  0.5003110000000 1.0
C      1  0.4869700000000  0.5717900000000  0.4240870000000 1.0
C      1  0.5003210000000  0.4375780000000  0.4471730000000 1.0
C      1  0.4739850000000  0.6034690000000  0.4551160000000 1.0
C      1  0.4763320000000  0.3844870000000  0.4633680000000 1.0
C      1  0.5048390000000  0.4606080000000  0.5470240000000 1.0
C      1  0.5836000000000  0.5292570000000  0.5696620000000 1.0
C      1  0.3742810000000  0.5545720000000  0.5231580000000 1.0
C      1  0.5350330000000  0.5593070000000  0.4265180000000 1.0
C      1  0.5966190000000  0.5039510000000  0.4561330000000 1.0
C      1  0.4930810000000  0.3974900000000  0.4867830000000 1.0
C      1  0.5045140000000  0.5160860000000  0.5836210000000 1.0
C      1  0.4289210000000  0.5662610000000  0.5562180000000 1.0
C      1  0.5232510000000  0.4192310000000  0.5007020000000 1.0
C      1  0.5289040000000  0.4789770000000  0.4151640000000 1.0
C      1  0.5793600000000  0.4598610000000  0.5658400000000 1.0
C      1  0.5077410000000  0.5406290000000  0.5376840000000 1.0
C      1  0.4692240000000  0.4424560000000  0.6133350000000 1.0
C      1  0.4593010000000  0.5621220000000  0.4068400000000 1.0
C      1  0.4615240000000  0.5396370000000  0.6043110000000 1.0
C      1  0.5125820000000  0.4531950000000  0.4068740000000 1.0
C      1  0.4339620000000  0.4675330000000  0.5668510000000 1.0
C      1  0.4453920000000  0.5381170000000  0.5789420000000 1.0
C      1  0.4712620000000  0.4106800000000  0.5401140000000 1.0
C      1  0.5736270000000  0.4560070000000  0.4426730000000 1.0
C      1  0.5558090000000  0.4711720000000  0.4751030000000 1.0
C      1  0.4748730000000  0.4184900000000  0.5695290000000 1.0
C      1  0.5918720000000  0.5031270000000  0.5406610000000 1.0
C      1  0.4593540000000  0.6016780000000  0.5683510000000 1.0
C      1  0.4519950000000  0.5072000000000  0.5682640000000 1.0
C      1  0.5198090000000  0.4338000000000  0.4266820000000 1.0
C      1  0.5557200000000  0.5882040000000  0.4853280000000 1.0
C      1  0.4407870000000  0.5932390000000  0.4862730000000 1.0
C      1  0.4836450000000  0.4655260000000  0.4372960000000 1.0
C      1  0.4040180000000  0.4747410000000  0.5539150000000 1.0
C      1  0.5181960000000  0.3897530000000  0.5294500000000 1.0
C      1  0.4341470000000  0.4720190000000  0.5941560000000 1.0
C      1  0.4981150000000  0.4499560000000  0.5021460000000 1.0
C      1  0.4517250000000  0.5314270000000  0.4621210000000 1.0
C      1  0.5484960000000  0.4079400000000  0.4583480000000 1.0
C      1  0.4143750000000  0.5578590000000  0.4937720000000 1.0
C      1  0.6056330000000  0.5398520000000  0.4577660000000 1.0
C      1  0.5738620000000  0.5408810000000  0.4698360000000 1.0
C      1  0.4758690000000  0.4862900000000  0.3934650000000 1.0
C      1  0.4753160000000  0.6042200000000  0.5261690000000 1.0
C      1  0.4719750000000  0.4199820000000  0.5012570000000 1.0
C      1  0.4786540000000  0.5447650000000  0.4744900000000 1.0
C      1  0.5583290000000  0.5541720000000  0.4119540000000 1.0
C      1  0.4798330000000  0.5320290000000  0.4231240000000 1.0
C      1  0.6171510000000  0.5366640000000  0.4307500000000 1.0
C      1  0.5466610000000  0.5159960000000  0.3875910000000 1.0
C      1  0.4634400000000  0.4697370000000  0.5555320000000 1.0
C      1  0.6227930000000  0.5137180000000  0.5462880000000 1.0
C      1  0.5940400000000  0.4707370000000  0.5409160000000 1.0
C      1  0.5241670000000  0.5850000000000  0.5925000000000 1.0
C      1  0.4923970000000  0.5692340000000  0.5486550000000 1.0
C      1  0.5580620000000  0.4945840000000  0.4534800000000 1.0
C      1  0.5291690000000  0.4571990000000  0.5110460000000 1.0
C      1  0.4650480000000  0.5487660000000  0.5182230000000 1.0
C      1  0.4071090000000  0.5187540000000  0.4382390000000 1.0
C      1  0.4092490000000  0.4264530000000  0.4886540000000 1.0
C      1  0.6076930000000  0.5169750000000  0.4169880000000 1.0
C      1  0.4350210000000  0.5053470000000  0.4490540000000 1.0
C      1  0.6244130000000  0.5046640000000  0.5176010000000 1.0
C      1  0.5507100000000  0.5016450000000  0.6343170000000 1.0
C      1  0.5151490000000  0.4758310000000  0.4438050000000 1.0
C      1  0.4897430000000  0.5093830000000  0.3997550000000 1.0
C      1  0.5136300000000  0.4406120000000  0.4760790000000 1.0
C      1  0.5072220000000  0.5965130000000  0.5350510000000 1.0
C      1  0.5544410000000  0.5445910000000  0.5105750000000 1.0
C      1  0.5671750000000  0.5000620000000  0.5638280000000 1.0
C      1  0.5012210000000  0.5929770000000  0.4736790000000 1.0
C      1  0.5983350000000  0.4738040000000  0.4578850000000 1.0
C      1  0.5008900000000  0.4665260000000  0.5780370000000 1.0
C      1  0.5362900000000  0.5113900000000  0.5724280000000 1.0
C      1  0.5482600000000  0.4331160000000  0.4395480000000 1.0
C      1  0.4649560000000  0.5027200000000  0.4747410000000 1.0
C      1  0.3982710000000  0.5093330000000  0.4698570000000 1.0
C      1  0.4530730000000  0.5290920000000  0.4023350000000 1.0
C      1  0.5151600000000  0.5133050000000  0.4299400000000 1.0
C      1  0.5448850000000  0.5117850000000  0.6042070000000 1.0
C      1  0.4783530000000  0.4439220000000  0.5389580000000 1.0
C      1  0.5424060000000  0.4811710000000  0.6108290000000 1.0
C      1  0.4590620000000  0.5210810000000  0.5000470000000 1.0
C      1  0.5557630000000  0.4763440000000  0.5087320000000 1.0
C      1  0.3881590000000  0.5645920000000  0.5015460000000 1.0
C      1  0.4834700000000  0.5211720000000  0.5479530000000 1.0
C      1  0.5527020000000  0.4042410000000  0.4987270000000 1.0
C      1  0.5164080000000  0.4848510000000  0.4958540000000 1.0
C      1  0.5506210000000  0.4636960000000  0.5635840000000 1.0
C      1  0.4148030000000  0.4623680000000  0.4724480000000 1.0
C      1  0.4545870000000  0.4698100000000  0.5165660000000 1.0
C      1  0.4524320000000  0.4043830000000  0.4561690000000 1.0
C      1  0.6101780000000  0.5301930000000  0.5672450000000 1.0
C      1  0.4010560000000  0.4524760000000  0.5024040000000 1.0
C      1  0.3819040000000  0.4932660000000  0.4457280000000 1.0
C      1  0.5690640000000  0.4159600000000  0.4781730000000 1.0
C      1  0.5767030000000  0.5640530000000  0.4945600000000 1.0
C      1  0.4469840000000  0.5828050000000  0.4544920000000 1.0
C      1  0.5214350000000  0.5100690000000  0.5422980000000 1.0
C      1  0.5372270000000  0.5068700000000  0.4895880000000 1.0
C      1  0.5773660000000  0.5067060000000  0.4282280000000 1.0
C      1  0.4887180000000  0.3898580000000  0.5196690000000 1.0
C      1  0.4106920000000  0.4320690000000  0.4590870000000 1.0
C      1  0.4878110000000  0.5048930000000  0.4420030000000 1.0
C      1  0.5890190000000  0.5158640000000  0.4849880000000 1.0
C      1  0.4833810000000  0.4940820000000  0.5685090000000 1.0
C      1  0.5388710000000  0.3824290000000  0.5131100000000 1.0
C      1  0.5337550000000  0.4563010000000  0.4585750000000 1.0
C      1  0.4124070000000  0.4801230000000  0.4468530000000 1.0
C      1  0.4605650000000  0.4902370000000  0.4336010000000 1.0
C      1  0.4458810000000  0.4224470000000  0.5229250000000 1.0
C      1  0.4733860000000  0.4360530000000  0.3829500000000 1.0
C      1  0.5213680000000  0.5458980000000  0.5853530000000 1.0
C      1  0.5043560000000  0.4267800000000  0.5252920000000 1.0
C      1  0.3822840000000  0.4647970000000  0.5688250000000 1.0
C      1  0.4257490000000  0.5524390000000  0.4693550000000 1.0
C      1  0.4044400000000  0.5062220000000  0.5516890000000 1.0
C      1  0.4445680000000  0.3926130000000  0.4860850000000 1.0
C      1  0.5085040000000  0.4855600000000  0.5289500000000 1.0
C      1  0.5147910000000  0.5793890000000  0.4292040000000 1.0
C      1  0.5003850000000  0.6074250000000  0.5034640000000 1.0
C      1  0.4495650000000  0.4507380000000  0.4226040000000 1.0
C      1  0.4618590000000  0.5436190000000  0.5517460000000 1.0
C      1  0.6135930000000  0.4783310000000  0.5139110000000 1.0
C      1  0.4936150000000  0.5411380000000  0.5003970000000 1.0
C      1  0.5264660000000  0.5365480000000  0.4928580000000 1.0
C      1  0.4896710000000  0.5434000000000  0.5974000000000 1.0
C      1  0.5590630000000  0.4785740000000  0.4227360000000 1.0
C      1  0.5961370000000  0.4342250000000  0.5077940000000 1.0
C      1  0.5851670000000  0.5824240000000  0.5210590000000 1.0
C      1  0.3894010000000  0.5349840000000  0.5415520000000 1.0
C      1  0.5494640000000  0.5238580000000  0.4627920000000 1.0
C      1  0.5211670000000  0.5047800000000  0.3994800000000 1.0
C      1  0.5294100000000  0.5359610000000  0.4449720000000 1.0
C      1  0.6148220000000  0.5240720000000  0.5007570000000 1.0
C      1  0.4374210000000  0.4980750000000  0.5086460000000 1.0
C      1  0.4594130000000  0.5769890000000  0.5456320000000 1.0
C      1  0.4496850000000  0.5853650000000  0.5141220000000 1.0
C      1  0.4321490000000  0.4255680000000  0.4385940000000 1.0
C      1  0.5097510000000  0.5703500000000  0.5053260000000 1.0
C      1  0.4733420000000  0.5738920000000  0.4740350000000 1.0
C      1  0.4770380000000  0.4860090000000  0.5300620000000 1.0
C      1  0.4858240000000  0.4389130000000  0.5910570000000 1.0
C      1  0.4102050000000  0.4577110000000  0.5282060000000 1.0
C      1  0.4978480000000  0.5427540000000  0.4499330000000 1.0
C      1  0.5180190000000  0.4369820000000  0.5979280000000 1.0
C      1  0.5637080000000  0.5272650000000  0.4055540000000 1.0
C      1  0.4943400000000  0.4863270000000  0.4697330000000 1.0
C      1  0.4537950000000  0.5170490000000  0.6182490000000 1.0
C      1  0.5694480000000  0.5960090000000  0.5350180000000 1.0
C      1  0.5145940000000  0.5617040000000  0.4728020000000 1.0
C      1  0.6078810000000  0.5509560000000  0.4878420000000 1.0
C      1  0.5389870000000  0.5917990000000  0.5453230000000 1.0
C      1  0.5527780000000  0.5392090000000  0.5608590000000 1.0
C      1  0.5329380000000  0.4647950000000  0.5887480000000 1.0
C      1  0.4172400000000  0.5371060000000  0.5607190000000 1.0
C      1  0.5771250000000  0.4451220000000  0.4746980000000 1.0
C      1  0.5392740000000  0.5694280000000  0.5684230000000 1.0
C      1  0.5468340000000  0.4875400000000  0.5396290000000 1.0
C      1  0.5475180000000  0.6002260000000  0.4626210000000 1.0
C      1  0.4164090000000  0.5293460000000  0.5216790000000 1.0
C      1  0.5232130000000  0.4025110000000  0.4717720000000 1.0
C      1  0.4678880000000  0.4523070000000  0.4972020000000 1.0
C      1  0.4446490000000  0.4976220000000  0.6000570000000 1.0
C      1  0.6056130000000  0.4593030000000  0.4868720000000 1.0
C      1  0.4086490000000  0.5103030000000  0.4952530000000 1.0
C      1  0.4372890000000  0.4500010000000  0.5298690000000 1.0
C      1  0.4846910000000  0.5143000000000  0.5168260000000 1.0
C      1  0.4351120000000  0.5071480000000  0.5413390000000 1.0
C      1  0.5219470000000  0.5979120000000  0.4500800000000 1.0
C      1  0.5799660000000  0.4572500000000  0.5173300000000 1.0
C      1  0.4395160000000  0.4806310000000  0.4798860000000 1.0
C      1  0.4614040000000  0.5555400000000  0.4401360000000 1.0
C      1  0.5382130000000  0.5875320000000  0.5115940000000 1.0
C      1  0.4599290000000  0.5218930000000  0.3756130000000 1.0
C      1  0.5669580000000  0.5073350000000  0.5045570000000 1.0
C      1  0.4319190000000  0.4795740000000  0.4189620000000 1.0
C      1  0.5674760000000  0.5256260000000  0.5332370000000 1.0
C      1  0.4275080000000  0.5124930000000  0.4114540000000 1.0
C      1  0.4746440000000  0.4586110000000  0.4693460000000 1.0
END
