TITL C-2847947-6848-419 0.000137825606828043 125000 -176.823021890341 0 0 32 (C1) n - 1
REM
REM in /home/bkarasulu/work/CARBON/AIRSS/Generating-Clusters/AIREBO/with-SteepDescent/Only-C1/SD-CG-opt/Try1-1.4A-POS3A/HFTN-CG
REM
REM
REM
REM
REM
REM ./C.cell (11c1c37f851c82e70ff6c80c92926a4b)
REM
REM compiler GCC version 9.2.1 20190827 (Red Hat 9.2.1-1)
REM options -cpp -mtune=generic -march=x86-64 -g -O0 -fpre-include=/usr/include/finclude/math-vector-fortran.h
REM seed -1632702736 282853774 1668934657 117410513 -265842269 -1128995788 -111127396 -92601457 2021284702 -986152656 1723377205 932097864 -1513813012 208651636 771870169 1335965655 190770823 1910452579 -1204526970 -785874203 1006971635 1273520866 -98455521 37640822 -817864714 2123341564 -114948923 1640865265 899604260 1840837526 -1487465160 -273117802 -845163510
REM
CELL 1.54180   50.00000   50.00000   50.00000   90.00000   90.00000   90.00000
LATT -1
SFAC C  
C      1  0.5666720000000  0.5109370000000  0.4766280000000 1.0
C      1  0.5051430000000  0.4966510000000  0.5476800000000 1.0
C      1  0.5321010000000  0.4890870000000  0.5425260000000 1.0
C      1  0.4748620000000  0.4888470000000  0.4402070000000 1.0
C      1  0.4897240000000  0.4678940000000  0.4801800000000 1.0
C      1  0.4917290000000  0.5100820000000  0.4485180000000 1.0
C      1  0.4806850000000  0.5209040000000  0.4963340000000 1.0
C      1  0.5155330000000  0.5019830000000  0.4609970000000 1.0
C      1  0.5326420000000  0.4774660000000  0.4645700000000 1.0
C      1  0.5163410000000  0.4574440000000  0.4780670000000 1.0
C      1  0.4540940000000  0.5301000000000  0.4766020000000 1.0
C      1  0.5379040000000  0.4584380000000  0.5378950000000 1.0
C      1  0.4972950000000  0.5515410000000  0.4703920000000 1.0
C      1  0.4924020000000  0.5169580000000  0.5622310000000 1.0
C      1  0.4633540000000  0.4418280000000  0.5423490000000 1.0
C      1  0.4801230000000  0.5337020000000  0.4585220000000 1.0
C      1  0.5183890000000  0.5578790000000  0.5204540000000 1.0
C      1  0.5106580000000  0.4425880000000  0.5301730000000 1.0
C      1  0.4739770000000  0.5359490000000  0.5552870000000 1.0
C      1  0.5190060000000  0.5099130000000  0.4938840000000 1.0
C      1  0.4295310000000  0.5307200000000  0.4645830000000 1.0
C      1  0.4714660000000  0.4685840000000  0.4588630000000 1.0
C      1  0.4857620000000  0.4544410000000  0.5347430000000 1.0
C      1  0.5558390000000  0.4848270000000  0.4816830000000 1.0
C      1  0.4900570000000  0.4916560000000  0.5006630000000 1.0
C      1  0.4548580000000  0.5393130000000  0.5359880000000 1.0
C      1  0.4545530000000  0.5338370000000  0.5102190000000 1.0
C      1  0.5061790000000  0.5409500000000  0.4992210000000 1.0
C      1  0.5460430000000  0.5283090000000  0.4845300000000 1.0
C      1  0.5384740000000  0.4875430000000  0.5105580000000 1.0
C      1  0.5268600000000  0.4572210000000  0.5057720000000 1.0
C      1  0.4877430000000  0.4824100000000  0.5296810000000 1.0
END
