TITL C-2848508-1660-56 615.074236484899 125000 -212.162826029017 0 0 41 (C1) n - 1
REM
REM in /home/bkarasulu/work/CARBON/AIRSS/Generating-Clusters/AIREBO/with-SteepDescent/Only-C1/SD-CG-opt/Try1-1.4A-POS3A/HFTN-CG
REM
REM
REM
REM
REM
REM ./C.cell (11c1c37f851c82e70ff6c80c92926a4b)
REM
REM compiler GCC version 9.2.1 20190827 (Red Hat 9.2.1-1)
REM options -cpp -mtune=generic -march=x86-64 -g -O0 -fpre-include=/usr/include/finclude/math-vector-fortran.h
REM seed -1070085410 -1018923434 -698024424 -1029049636 2100852773 515959862 -244408418 -1673117103 691894803 -1761913785 -146739090 -1145594316 2042811557 -729521601 295472090 -1704781113 1306615390 1807369279 880307223 -615521398 1223143711 1473587844 -1029467173 -781866250 1146188291 -1949535923 1611408031 453116389 359759235 1041145771 2044888872 -1598478171 774922523
REM
CELL 1.54180   50.00000   50.00000   50.00000   90.00000   90.00000   90.00000
LATT -1
SFAC C  
C      1  0.3806730000000  0.6186550000000  0.5488020000000 1.0
C      1  0.4347540000000  0.4699170000000  0.5022380000000 1.0
C      1  0.4140250000000  0.5228390000000  0.5075350000000 1.0
C      1  0.5060880000000  0.4300900000000  0.4627750000000 1.0
C      1  0.3913970000000  0.5674080000000  0.5257860000000 1.0
C      1  0.4924790000000  0.4281380000000  0.5388630000000 1.0
C      1  0.5828610000000  0.4548390000000  0.4431350000000 1.0
C      1  0.5546490000000  0.4663460000000  0.5403160000000 1.0
C      1  0.5061510000000  0.4377450000000  0.4942760000000 1.0
C      1  0.5779910000000  0.4539190000000  0.5014460000000 1.0
C      1  0.5679620000000  0.5211950000000  0.5051510000000 1.0
C      1  0.3792600000000  0.5890370000000  0.5360610000000 1.0
C      1  0.4029610000000  0.5447440000000  0.5178960000000 1.0
C      1  0.4272160000000  0.5012020000000  0.4987410000000 1.0
C      1  0.5796430000000  0.5367090000000  0.5252690000000 1.0
C      1  0.4055980000000  0.6558430000000  0.5771610000000 1.0
C      1  0.5878200000000  0.5001610000000  0.4886910000000 1.0
C      1  0.3928820000000  0.6368980000000  0.5642580000000 1.0
C      1  0.4973020000000  0.4802750000000  0.4592370000000 1.0
C      1  0.5355860000000  0.4308180000000  0.4481060000000 1.0
C      1  0.5881060000000  0.4432580000000  0.5231600000000 1.0
C      1  0.4490050000000  0.4878780000000  0.4796970000000 1.0
C      1  0.5255480000000  0.5080270000000  0.5596530000000 1.0
C      1  0.5252900000000  0.4614680000000  0.5304560000000 1.0
C      1  0.4518560000000  0.4809980000000  0.4319370000000 1.0
C      1  0.3528360000000  0.6076230000000  0.5366570000000 1.0
C      1  0.5351770000000  0.4937120000000  0.5347660000000 1.0
C      1  0.5870080000000  0.4816740000000  0.4599900000000 1.0
C      1  0.5403240000000  0.5110640000000  0.5111560000000 1.0
C      1  0.5897770000000  0.5146390000000  0.4583820000000 1.0
C      1  0.4867640000000  0.4139790000000  0.4518520000000 1.0
C      1  0.5412200000000  0.4639250000000  0.4705380000000 1.0
C      1  0.4902310000000  0.5103350000000  0.4540990000000 1.0
C      1  0.5200320000000  0.5199350000000  0.4970070000000 1.0
C      1  0.5668200000000  0.4673120000000  0.4801370000000 1.0
C      1  0.5715260000000  0.5327380000000  0.4734160000000 1.0
C      1  0.5151840000000  0.5202850000000  0.5794950000000 1.0
C      1  0.5585240000000  0.4430610000000  0.4411840000000 1.0
C      1  0.5148600000000  0.4613950000000  0.4634050000000 1.0
C      1  0.4647900000000  0.4877540000000  0.4556250000000 1.0
C      1  0.5078240000000  0.4421650000000  0.5216470000000 1.0
END
