TITL C-2848502-4955-708 -8.49248346840438e-05 125000 -298.797457212717 0 0 53 (C1) n - 1
REM
REM in /home/bkarasulu/work/CARBON/AIRSS/Generating-Clusters/AIREBO/with-SteepDescent/Only-C1/SD-CG-opt/Try1-1.4A-POS3A/HFTN-CG
REM
REM
REM
REM
REM
REM ./C.cell (11c1c37f851c82e70ff6c80c92926a4b)
REM
REM compiler GCC version 9.2.1 20190827 (Red Hat 9.2.1-1)
REM options -cpp -mtune=generic -march=x86-64 -g -O0 -fpre-include=/usr/include/finclude/math-vector-fortran.h
REM seed -1452854913 -2105839402 1922801465 1687250637 -50193513 -1929820383 -1622269747 332896946 -1008055239 339834610 306815512 1355736219 919825633 2016607306 -449005971 195780943 -876267215 -1641573507 -852473841 1224968894 259060711 494473087 588278293 -73373750 -154430557 -1432712124 1590309048 296422467 1806429000 -1313384512 -1542928297 -1338959730 -2055343727
REM
CELL 1.54180   50.00000   50.00000   50.00000   90.00000   90.00000   90.00000
LATT -1
SFAC C  
C      1  0.5357300000000  0.4936990000000  0.5079510000000 1.0
C      1  0.4613420000000  0.5143360000000  0.5743780000000 1.0
C      1  0.4368000000000  0.5176440000000  0.4710720000000 1.0
C      1  0.5790050000000  0.4789740000000  0.5278480000000 1.0
C      1  0.4941480000000  0.4881200000000  0.5319160000000 1.0
C      1  0.4765510000000  0.4896090000000  0.4614410000000 1.0
C      1  0.4847500000000  0.5546770000000  0.4368660000000 1.0
C      1  0.4451110000000  0.5336420000000  0.4984130000000 1.0
C      1  0.5191300000000  0.4459050000000  0.4740410000000 1.0
C      1  0.4901990000000  0.5057190000000  0.4885940000000 1.0
C      1  0.4972660000000  0.4682100000000  0.4766920000000 1.0
C      1  0.4728730000000  0.4890420000000  0.5714520000000 1.0
C      1  0.5432340000000  0.5254350000000  0.5107230000000 1.0
C      1  0.4787880000000  0.4900640000000  0.4114440000000 1.0
C      1  0.5561600000000  0.5190010000000  0.4633220000000 1.0
C      1  0.4776950000000  0.4521180000000  0.4958920000000 1.0
C      1  0.4387640000000  0.4744150000000  0.4898720000000 1.0
C      1  0.5115610000000  0.5137590000000  0.4397070000000 1.0
C      1  0.4448970000000  0.4833350000000  0.5206740000000 1.0
C      1  0.4367320000000  0.5121140000000  0.5225940000000 1.0
C      1  0.4927480000000  0.5394380000000  0.4848000000000 1.0
C      1  0.4909170000000  0.5178310000000  0.5205320000000 1.0
C      1  0.4653470000000  0.5493790000000  0.4794330000000 1.0
C      1  0.5215270000000  0.5508120000000  0.4721530000000 1.0
C      1  0.5655080000000  0.5008270000000  0.5184570000000 1.0
C      1  0.4817440000000  0.4450510000000  0.5409720000000 1.0
C      1  0.5032280000000  0.5673500000000  0.5325350000000 1.0
C      1  0.5625150000000  0.4562690000000  0.5325910000000 1.0
C      1  0.5446300000000  0.4728540000000  0.4425730000000 1.0
C      1  0.5088290000000  0.4456370000000  0.5484090000000 1.0
C      1  0.4758300000000  0.4340400000000  0.5156410000000 1.0
C      1  0.4743640000000  0.4815640000000  0.5065460000000 1.0
C      1  0.4883890000000  0.4985120000000  0.4355630000000 1.0
C      1  0.5337760000000  0.4989900000000  0.4553390000000 1.0
C      1  0.5106390000000  0.5645320000000  0.4992500000000 1.0
C      1  0.6056150000000  0.4781910000000  0.5318260000000 1.0
C      1  0.5199490000000  0.4918130000000  0.4827070000000 1.0
C      1  0.4667330000000  0.4732280000000  0.5448190000000 1.0
C      1  0.4374500000000  0.5351440000000  0.4484440000000 1.0
C      1  0.5260160000000  0.4348410000000  0.4977670000000 1.0
C      1  0.4631930000000  0.5307710000000  0.5274640000000 1.0
C      1  0.5150620000000  0.5356170000000  0.5262250000000 1.0
C      1  0.4603810000000  0.5522300000000  0.4514350000000 1.0
C      1  0.5346870000000  0.4486910000000  0.4509200000000 1.0
C      1  0.4987960000000  0.4829280000000  0.5809840000000 1.0
C      1  0.5353330000000  0.5626750000000  0.5225520000000 1.0
C      1  0.5230580000000  0.4782560000000  0.5305640000000 1.0
C      1  0.4470780000000  0.4915920000000  0.4701310000000 1.0
C      1  0.5080890000000  0.5407180000000  0.4454540000000 1.0
C      1  0.5325580000000  0.4461190000000  0.5257030000000 1.0
C      1  0.5166200000000  0.4710120000000  0.5632110000000 1.0
C      1  0.5466390000000  0.5369890000000  0.4821670000000 1.0
C      1  0.4620140000000  0.5362810000000  0.5579400000000 1.0
END
