TITL C-2848507-1641-321 0.000486683111993556 125000 -538.645259259322 0 0 99 (C1) n - 1
REM
REM in /home/bkarasulu/work/CARBON/AIRSS/Generating-Clusters/AIREBO/with-SteepDescent/Only-C1/SD-CG-opt/Try1-1.4A-POS3A/HFTN-CG
REM
REM
REM
REM
REM
REM ./C.cell (11c1c37f851c82e70ff6c80c92926a4b)
REM
REM compiler GCC version 9.2.1 20190827 (Red Hat 9.2.1-1)
REM options -cpp -mtune=generic -march=x86-64 -g -O0 -fpre-include=/usr/include/finclude/math-vector-fortran.h
REM seed -945965179 1797729669 1848879567 637800668 349042982 -1385457591 865613188 -894645566 1117347016 -624663679 -908669771 581114531 1114197402 1644419786 197891217 30827477 -528567828 -40843758 -400719410 1637002242 -1483766821 -1379538245 1186649258 -1433343766 -1148241567 -379103795 40721563 500484454 -1514866307 -1587239626 975982054 -1164224268 -1081028094
REM
CELL 1.54180   50.00000   50.00000   50.00000   90.00000   90.00000   90.00000
LATT -1
SFAC C  
C      1  0.4956260000000  0.5678980000000  0.4897590000000 1.0
C      1  0.4945640000000  0.5663340000000  0.4499640000000 1.0
C      1  0.5054930000000  0.5167980000000  0.4700790000000 1.0
C      1  0.4730730000000  0.5157330000000  0.5529730000000 1.0
C      1  0.5238620000000  0.4679770000000  0.5365480000000 1.0
C      1  0.5448880000000  0.4860770000000  0.4874170000000 1.0
C      1  0.5194830000000  0.4571820000000  0.4983310000000 1.0
C      1  0.5041600000000  0.4632820000000  0.4684400000000 1.0
C      1  0.4267270000000  0.5087670000000  0.5543980000000 1.0
C      1  0.5213750000000  0.4338400000000  0.4659540000000 1.0
C      1  0.5224050000000  0.5254040000000  0.4200550000000 1.0
C      1  0.5554400000000  0.5166140000000  0.5384240000000 1.0
C      1  0.5572040000000  0.5245090000000  0.4847000000000 1.0
C      1  0.5267850000000  0.4581080000000  0.5751350000000 1.0
C      1  0.4808610000000  0.4512510000000  0.4901110000000 1.0
C      1  0.4569510000000  0.4916420000000  0.5351380000000 1.0
C      1  0.4823510000000  0.5054020000000  0.5902240000000 1.0
C      1  0.4305960000000  0.4423300000000  0.4808970000000 1.0
C      1  0.4840590000000  0.4904750000000  0.4721510000000 1.0
C      1  0.4411770000000  0.4519350000000  0.5277130000000 1.0
C      1  0.4246580000000  0.4809770000000  0.5345020000000 1.0
C      1  0.4177300000000  0.4868940000000  0.5045260000000 1.0
C      1  0.5417860000000  0.5091040000000  0.4402900000000 1.0
C      1  0.4985180000000  0.4566150000000  0.5726910000000 1.0
C      1  0.4651720000000  0.5613430000000  0.5238300000000 1.0
C      1  0.5802740000000  0.5031290000000  0.4948370000000 1.0
C      1  0.4304020000000  0.5340080000000  0.5406940000000 1.0
C      1  0.5609870000000  0.4813110000000  0.4364030000000 1.0
C      1  0.4794900000000  0.5226420000000  0.4489100000000 1.0
C      1  0.4835200000000  0.4385720000000  0.5537190000000 1.0
C      1  0.4589490000000  0.5097870000000  0.4264270000000 1.0
C      1  0.4111570000000  0.5132600000000  0.4906140000000 1.0
C      1  0.5617340000000  0.5558590000000  0.4970800000000 1.0
C      1  0.4473310000000  0.5776120000000  0.5094830000000 1.0
C      1  0.4905140000000  0.5331530000000  0.4199790000000 1.0
C      1  0.4727640000000  0.5442570000000  0.5673970000000 1.0
C      1  0.5102630000000  0.4594600000000  0.4351860000000 1.0
C      1  0.5289220000000  0.4133420000000  0.5110670000000 1.0
C      1  0.4532590000000  0.5498090000000  0.5465180000000 1.0
C      1  0.4827860000000  0.4459120000000  0.4291130000000 1.0
C      1  0.5626600000000  0.4583100000000  0.5310720000000 1.0
C      1  0.4982080000000  0.5555940000000  0.5713170000000 1.0
C      1  0.4319710000000  0.5611550000000  0.4925350000000 1.0
C      1  0.5725230000000  0.5640700000000  0.5280130000000 1.0
C      1  0.4715120000000  0.5167810000000  0.4905170000000 1.0
C      1  0.4544020000000  0.4420580000000  0.5535650000000 1.0
C      1  0.4339450000000  0.4987320000000  0.4699750000000 1.0
C      1  0.4956810000000  0.4567390000000  0.5328800000000 1.0
C      1  0.5641230000000  0.5592260000000  0.4498340000000 1.0
C      1  0.5784080000000  0.5011050000000  0.5249870000000 1.0
C      1  0.4850350000000  0.5417270000000  0.5068270000000 1.0
C      1  0.5006580000000  0.4290940000000  0.5019610000000 1.0
C      1  0.4703310000000  0.5705620000000  0.4670130000000 1.0
C      1  0.5294260000000  0.4844650000000  0.4600900000000 1.0
C      1  0.5889270000000  0.5132620000000  0.4635400000000 1.0
C      1  0.5728740000000  0.4830090000000  0.4684210000000 1.0
C      1  0.4527990000000  0.5267780000000  0.4661270000000 1.0
C      1  0.5427500000000  0.4439250000000  0.5501320000000 1.0
C      1  0.5716890000000  0.4501120000000  0.4762950000000 1.0
C      1  0.5351210000000  0.4749600000000  0.4207800000000 1.0
C      1  0.4497680000000  0.4438110000000  0.5017250000000 1.0
C      1  0.5505970000000  0.5698520000000  0.4723240000000 1.0
C      1  0.5535680000000  0.5491210000000  0.5487580000000 1.0
C      1  0.4631620000000  0.4650320000000  0.4299810000000 1.0
C      1  0.4702970000000  0.4871950000000  0.4135020000000 1.0
C      1  0.5281500000000  0.4102790000000  0.4803190000000 1.0
C      1  0.5426790000000  0.4534940000000  0.4647250000000 1.0
C      1  0.5344490000000  0.4979070000000  0.5487560000000 1.0
C      1  0.5155680000000  0.5395560000000  0.4500420000000 1.0
C      1  0.5527410000000  0.4572570000000  0.5032280000000 1.0
C      1  0.5331190000000  0.4862940000000  0.5789940000000 1.0
C      1  0.5008610000000  0.4996270000000  0.5440590000000 1.0
C      1  0.5622140000000  0.5282050000000  0.4525510000000 1.0
C      1  0.4980160000000  0.4829440000000  0.4097160000000 1.0
C      1  0.4745170000000  0.4715760000000  0.5158840000000 1.0
C      1  0.4468880000000  0.5556190000000  0.4696310000000 1.0
C      1  0.5249580000000  0.4881100000000  0.5113700000000 1.0
C      1  0.4469970000000  0.5133610000000  0.5108660000000 1.0
C      1  0.4528820000000  0.4996040000000  0.5741240000000 1.0
C      1  0.5262540000000  0.5660970000000  0.5551980000000 1.0
C      1  0.5218350000000  0.5660780000000  0.4689990000000 1.0
C      1  0.5233970000000  0.4978640000000  0.4055750000000 1.0
C      1  0.4576440000000  0.4782360000000  0.4567420000000 1.0
C      1  0.5251480000000  0.5192560000000  0.4977320000000 1.0
C      1  0.5142340000000  0.5116810000000  0.5802180000000 1.0
C      1  0.5822140000000  0.4762740000000  0.5354390000000 1.0
C      1  0.4332960000000  0.5062480000000  0.4368100000000 1.0
C      1  0.4502840000000  0.4832880000000  0.4956260000000 1.0
C      1  0.5040150000000  0.5870980000000  0.5131560000000 1.0
C      1  0.4850420000000  0.4018430000000  0.5025370000000 1.0
C      1  0.5182860000000  0.5863380000000  0.5334200000000 1.0
C      1  0.4889940000000  0.4831080000000  0.5694390000000 1.0
C      1  0.4524150000000  0.4703130000000  0.5612330000000 1.0
C      1  0.5057250000000  0.5267080000000  0.5246460000000 1.0
C      1  0.4230810000000  0.5362490000000  0.5080660000000 1.0
C      1  0.5173850000000  0.5337240000000  0.5558470000000 1.0
C      1  0.4281760000000  0.4649380000000  0.4663980000000 1.0
C      1  0.5430240000000  0.5392900000000  0.5185970000000 1.0
C      1  0.5377790000000  0.4162560000000  0.5362130000000 1.0
END
