TITL C-2848495-5024-91 3.2330850635562e-06 125000 -1118.33212834831 0 0 196 (C1) n - 1
REM
REM in /home/bkarasulu/work/CARBON/AIRSS/Generating-Clusters/AIREBO/with-SteepDescent/Only-C1/SD-CG-opt/Try1-1.4A-POS3A/HFTN-CG
REM
REM
REM
REM
REM
REM ./C.cell (11c1c37f851c82e70ff6c80c92926a4b)
REM
REM compiler GCC version 9.2.1 20190827 (Red Hat 9.2.1-1)
REM options -cpp -mtune=generic -march=x86-64 -g -O0 -fpre-include=/usr/include/finclude/math-vector-fortran.h
REM seed -343887121 1074741144 -264043582 -143947991 -1329950154 -149044543 1997522404 -1580352040 -1423963368 -1176135368 1893719158 -362752122 -2136537512 1682229796 -2139249673 -957865961 -506305230 -1794945881 -427679996 -983741619 -1308627328 486291184 -1691712458 -1773292805 176304784 828678813 -989437295 1784207527 -236818120 248591718 -1837368909 -1531740424 -1296873204
REM
CELL 1.54180   50.00000   50.00000   50.00000   90.00000   90.00000   90.00000
LATT -1
SFAC C  
C      1  0.4987770000000  0.4641030000000  0.3957570000000 1.0
C      1  0.4509270000000  0.4145600000000  0.4541870000000 1.0
C      1  0.4415370000000  0.3916890000000  0.4646570000000 1.0
C      1  0.5011530000000  0.5224930000000  0.4424080000000 1.0
C      1  0.5228070000000  0.3943520000000  0.4917790000000 1.0
C      1  0.4345490000000  0.5493310000000  0.5659220000000 1.0
C      1  0.3882730000000  0.4857920000000  0.4474520000000 1.0
C      1  0.5383930000000  0.4037930000000  0.5164980000000 1.0
C      1  0.4504860000000  0.4320660000000  0.4043700000000 1.0
C      1  0.5167120000000  0.5261280000000  0.5421210000000 1.0
C      1  0.5015730000000  0.5555810000000  0.4042690000000 1.0
C      1  0.4510070000000  0.4851400000000  0.3967750000000 1.0
C      1  0.5522960000000  0.4642130000000  0.5392450000000 1.0
C      1  0.4217800000000  0.5039220000000  0.5742200000000 1.0
C      1  0.4553170000000  0.5621330000000  0.4286630000000 1.0
C      1  0.4083160000000  0.5254590000000  0.4734230000000 1.0
C      1  0.5590800000000  0.4253690000000  0.4764300000000 1.0
C      1  0.4725300000000  0.4453320000000  0.6014630000000 1.0
C      1  0.5630730000000  0.5308970000000  0.5962760000000 1.0
C      1  0.4561460000000  0.6151260000000  0.5070980000000 1.0
C      1  0.4803830000000  0.4709920000000  0.6041860000000 1.0
C      1  0.5308650000000  0.4512610000000  0.5947890000000 1.0
C      1  0.5331430000000  0.5154500000000  0.4700240000000 1.0
C      1  0.5660130000000  0.4582000000000  0.4056930000000 1.0
C      1  0.6109000000000  0.5324480000000  0.4912220000000 1.0
C      1  0.5879370000000  0.4708340000000  0.4194830000000 1.0
C      1  0.5038200000000  0.5483440000000  0.4563890000000 1.0
C      1  0.4722510000000  0.6057130000000  0.4561590000000 1.0
C      1  0.5486830000000  0.4781560000000  0.6055310000000 1.0
C      1  0.4750510000000  0.4080220000000  0.5569300000000 1.0
C      1  0.4049450000000  0.5565640000000  0.4807150000000 1.0
C      1  0.4477060000000  0.5926840000000  0.4418440000000 1.0
C      1  0.5489720000000  0.6202810000000  0.5581920000000 1.0
C      1  0.3795130000000  0.4726570000000  0.4775640000000 1.0
C      1  0.5430810000000  0.5872360000000  0.5513730000000 1.0
C      1  0.5498980000000  0.4449360000000  0.5671760000000 1.0
C      1  0.4887490000000  0.6003010000000  0.5452990000000 1.0
C      1  0.5722660000000  0.5998790000000  0.5595050000000 1.0
C      1  0.5547200000000  0.4362020000000  0.4241940000000 1.0
C      1  0.4566840000000  0.5353290000000  0.4148640000000 1.0
C      1  0.5841550000000  0.4698480000000  0.5366010000000 1.0
C      1  0.6095440000000  0.4501050000000  0.4908290000000 1.0
C      1  0.4413020000000  0.4345660000000  0.4322490000000 1.0
C      1  0.5101300000000  0.6017180000000  0.4993240000000 1.0
C      1  0.4548190000000  0.4771800000000  0.5371590000000 1.0
C      1  0.5141470000000  0.4924120000000  0.5385390000000 1.0
C      1  0.4677680000000  0.4582130000000  0.3927140000000 1.0
C      1  0.5833230000000  0.5553720000000  0.5593290000000 1.0
C      1  0.4986510000000  0.4159350000000  0.4814050000000 1.0
C      1  0.5070880000000  0.5751410000000  0.4271550000000 1.0
C      1  0.3819930000000  0.5689640000000  0.4806580000000 1.0
C      1  0.4429620000000  0.5545160000000  0.5146820000000 1.0
C      1  0.5099860000000  0.4194570000000  0.4489650000000 1.0
C      1  0.5446250000000  0.5351150000000  0.4447470000000 1.0
C      1  0.5414200000000  0.4523860000000  0.4717710000000 1.0
C      1  0.4618950000000  0.5529650000000  0.5799340000000 1.0
C      1  0.4973340000000  0.5150400000000  0.5671100000000 1.0
C      1  0.5632640000000  0.4244770000000  0.5073000000000 1.0
C      1  0.5487950000000  0.5630770000000  0.4730110000000 1.0
C      1  0.4967300000000  0.6045570000000  0.4361020000000 1.0
C      1  0.4497300000000  0.5089740000000  0.5375220000000 1.0
C      1  0.4901440000000  0.4625580000000  0.4619820000000 1.0
C      1  0.5580170000000  0.4620690000000  0.4445100000000 1.0
C      1  0.5157510000000  0.4518650000000  0.4494730000000 1.0
C      1  0.4319950000000  0.4636620000000  0.4727880000000 1.0
C      1  0.5103570000000  0.5104420000000  0.3894400000000 1.0
C      1  0.4350160000000  0.5955830000000  0.5437170000000 1.0
C      1  0.5962470000000  0.5768250000000  0.4857240000000 1.0
C      1  0.4696220000000  0.5704390000000  0.4745490000000 1.0
C      1  0.4781960000000  0.4922660000000  0.4144360000000 1.0
C      1  0.5217680000000  0.4752720000000  0.5644880000000 1.0
C      1  0.5482350000000  0.5350110000000  0.4934100000000 1.0
C      1  0.5436430000000  0.5074420000000  0.5965590000000 1.0
C      1  0.5642910000000  0.4877490000000  0.4658930000000 1.0
C      1  0.5909440000000  0.5805200000000  0.5647180000000 1.0
C      1  0.4117120000000  0.4562160000000  0.5486710000000 1.0
C      1  0.4804390000000  0.5677070000000  0.4469180000000 1.0
C      1  0.4486580000000  0.5074980000000  0.3751390000000 1.0
C      1  0.4620990000000  0.4915810000000  0.6024630000000 1.0
C      1  0.4276360000000  0.4921330000000  0.4174500000000 1.0
C      1  0.4849350000000  0.4516990000000  0.5317030000000 1.0
C      1  0.5477700000000  0.5218300000000  0.5493880000000 1.0
C      1  0.4096320000000  0.4781680000000  0.4923520000000 1.0
C      1  0.4103390000000  0.4782420000000  0.5672060000000 1.0
C      1  0.5169200000000  0.4421580000000  0.4930150000000 1.0
C      1  0.4497830000000  0.5314160000000  0.3838760000000 1.0
C      1  0.5470750000000  0.4953620000000  0.5664820000000 1.0
C      1  0.5132630000000  0.5161940000000  0.5906960000000 1.0
C      1  0.5724540000000  0.5794060000000  0.4662280000000 1.0
C      1  0.5894950000000  0.5343150000000  0.4267640000000 1.0
C      1  0.4888160000000  0.5244570000000  0.4117140000000 1.0
C      1  0.5489400000000  0.5415270000000  0.3980510000000 1.0
C      1  0.5118490000000  0.5512360000000  0.4856720000000 1.0
C      1  0.4097980000000  0.4759370000000  0.4323060000000 1.0
C      1  0.4835910000000  0.5955090000000  0.5779670000000 1.0
C      1  0.5187560000000  0.4150760000000  0.5385620000000 1.0
C      1  0.6168720000000  0.5080760000000  0.5033700000000 1.0
C      1  0.6128050000000  0.5109170000000  0.5311760000000 1.0
C      1  0.4181200000000  0.5410350000000  0.4466340000000 1.0
C      1  0.4390580000000  0.5132390000000  0.4650630000000 1.0
C      1  0.4368950000000  0.3873610000000  0.4922250000000 1.0
C      1  0.4796540000000  0.5693800000000  0.5481040000000 1.0
C      1  0.5386090000000  0.3840880000000  0.4720190000000 1.0
C      1  0.5955900000000  0.6027490000000  0.4668790000000 1.0
C      1  0.4147210000000  0.5294450000000  0.5630620000000 1.0
C      1  0.4948870000000  0.5601120000000  0.5126720000000 1.0
C      1  0.3809580000000  0.5199900000000  0.5246600000000 1.0
C      1  0.5533750000000  0.5126780000000  0.5185530000000 1.0
C      1  0.4713910000000  0.5160600000000  0.4894290000000 1.0
C      1  0.5082370000000  0.5345990000000  0.6176540000000 1.0
C      1  0.4398700000000  0.5087810000000  0.4987630000000 1.0
C      1  0.4841940000000  0.4306780000000  0.5761410000000 1.0
C      1  0.4350160000000  0.5176830000000  0.4315770000000 1.0
C      1  0.4476940000000  0.5674970000000  0.5422310000000 1.0
C      1  0.5962860000000  0.5545650000000  0.5011900000000 1.0
C      1  0.4818950000000  0.5698620000000  0.5879310000000 1.0
C      1  0.3765620000000  0.4694540000000  0.5121800000000 1.0
C      1  0.5676560000000  0.5498530000000  0.5170870000000 1.0
C      1  0.4355200000000  0.4375230000000  0.5498340000000 1.0
C      1  0.4475030000000  0.4072780000000  0.5566000000000 1.0
C      1  0.5189390000000  0.4840770000000  0.3876890000000 1.0
C      1  0.5180040000000  0.4933270000000  0.4892250000000 1.0
C      1  0.5301180000000  0.5629380000000  0.4474410000000 1.0
C      1  0.4889060000000  0.5140150000000  0.5163290000000 1.0
C      1  0.5877930000000  0.4884550000000  0.4416810000000 1.0
C      1  0.4689680000000  0.5494870000000  0.4960350000000 1.0
C      1  0.5216090000000  0.5373650000000  0.3926760000000 1.0
C      1  0.5410330000000  0.4152790000000  0.4357480000000 1.0
C      1  0.4231360000000  0.4553950000000  0.4456170000000 1.0
C      1  0.4488610000000  0.5047500000000  0.5823550000000 1.0
C      1  0.5097110000000  0.5559200000000  0.5926520000000 1.0
C      1  0.4781930000000  0.5390280000000  0.5335070000000 1.0
C      1  0.5893370000000  0.5331840000000  0.5375190000000 1.0
C      1  0.4392220000000  0.4796190000000  0.5090350000000 1.0
C      1  0.4343240000000  0.5656570000000  0.4551770000000 1.0
C      1  0.5706420000000  0.5097920000000  0.4890250000000 1.0
C      1  0.4830780000000  0.4035890000000  0.5090420000000 1.0
C      1  0.5160350000000  0.4485870000000  0.5439440000000 1.0
C      1  0.5183220000000  0.5284370000000  0.5082300000000 1.0
C      1  0.4045400000000  0.5280470000000  0.5365610000000 1.0
C      1  0.3990790000000  0.4559440000000  0.5236750000000 1.0
C      1  0.5946270000000  0.4287280000000  0.5043700000000 1.0
C      1  0.5098170000000  0.4768730000000  0.5963180000000 1.0
C      1  0.6135620000000  0.4812500000000  0.4970080000000 1.0
C      1  0.4914300000000  0.4560880000000  0.5013310000000 1.0
C      1  0.4631610000000  0.4524440000000  0.4485270000000 1.0
C      1  0.5050090000000  0.4752890000000  0.4272610000000 1.0
C      1  0.3758740000000  0.4998900000000  0.5060490000000 1.0
C      1  0.6013090000000  0.5128180000000  0.4388240000000 1.0
C      1  0.5297360000000  0.5774630000000  0.4931890000000 1.0
C      1  0.5336990000000  0.5659660000000  0.5706580000000 1.0
C      1  0.4537930000000  0.4015000000000  0.5090470000000 1.0
C      1  0.4850970000000  0.4850810000000  0.4862080000000 1.0
C      1  0.5633450000000  0.4010790000000  0.5394430000000 1.0
C      1  0.4988770000000  0.4160330000000  0.4185940000000 1.0
C      1  0.4301580000000  0.5278620000000  0.5203350000000 1.0
C      1  0.5436700000000  0.5737240000000  0.5223100000000 1.0
C      1  0.6117560000000  0.4863690000000  0.5435420000000 1.0
C      1  0.4645520000000  0.4526610000000  0.5590010000000 1.0
C      1  0.4854730000000  0.4856790000000  0.5305200000000 1.0
C      1  0.5573930000000  0.4140170000000  0.5629170000000 1.0
C      1  0.4911050000000  0.6121180000000  0.4831330000000 1.0
C      1  0.5590710000000  0.4715310000000  0.4936400000000 1.0
C      1  0.4527480000000  0.5970240000000  0.4826320000000 1.0
C      1  0.5666460000000  0.4656000000000  0.5844800000000 1.0
C      1  0.5619910000000  0.5363880000000  0.4225100000000 1.0
C      1  0.3866660000000  0.5058050000000  0.4750430000000 1.0
C      1  0.4323990000000  0.5702100000000  0.4885540000000 1.0
C      1  0.4197090000000  0.4464490000000  0.4994130000000 1.0
C      1  0.4818200000000  0.4287130000000  0.4031530000000 1.0
C      1  0.5112350000000  0.5830710000000  0.5277460000000 1.0
C      1  0.4589950000000  0.4303860000000  0.5262830000000 1.0
C      1  0.5053320000000  0.5533560000000  0.5590250000000 1.0
C      1  0.5896710000000  0.5245930000000  0.5900630000000 1.0
C      1  0.5853040000000  0.4675080000000  0.5066360000000 1.0
C      1  0.4671030000000  0.5245850000000  0.5622310000000 1.0
C      1  0.4542620000000  0.4834540000000  0.4719420000000 1.0
C      1  0.4505600000000  0.4390560000000  0.4976690000000 1.0
C      1  0.5284310000000  0.4112380000000  0.5673760000000 1.0
C      1  0.5139250000000  0.4271050000000  0.5846470000000 1.0
C      1  0.4689340000000  0.4310780000000  0.4743700000000 1.0
C      1  0.5119660000000  0.5011390000000  0.6200850000000 1.0
C      1  0.4781110000000  0.5115270000000  0.4571360000000 1.0
C      1  0.5456030000000  0.4846740000000  0.4276220000000 1.0
C      1  0.5919890000000  0.5134330000000  0.5651090000000 1.0
C      1  0.5534330000000  0.4043250000000  0.4590710000000 1.0
C      1  0.4918790000000  0.4042740000000  0.5349990000000 1.0
C      1  0.5772650000000  0.4864840000000  0.5632900000000 1.0
C      1  0.5371930000000  0.4436460000000  0.5177430000000 1.0
C      1  0.4652500000000  0.4859220000000  0.4417320000000 1.0
C      1  0.5368450000000  0.4835930000000  0.5159330000000 1.0
C      1  0.5232230000000  0.5003990000000  0.4411850000000 1.0
C      1  0.4167850000000  0.3717900000000  0.5010570000000 1.0
C      1  0.5558690000000  0.5450800000000  0.5695190000000 1.0
C      1  0.4707580000000  0.6171340000000  0.5269590000000 1.0
C      1  0.5442090000000  0.4783440000000  0.3988100000000 1.0
END
