TITL C-2848499-1157-72 -0.00309855693129323 125000 -512.662414628734 0 0 95 (C1) n - 1
REM
REM in /home/bkarasulu/work/CARBON/AIRSS/Generating-Clusters/AIREBO/with-SteepDescent/Only-C1/SD-CG-opt/Try1-1.4A-POS3A/HFTN-CG
REM
REM
REM
REM
REM
REM ./C.cell (11c1c37f851c82e70ff6c80c92926a4b)
REM
REM compiler GCC version 9.2.1 20190827 (Red Hat 9.2.1-1)
REM options -cpp -mtune=generic -march=x86-64 -g -O0 -fpre-include=/usr/include/finclude/math-vector-fortran.h
REM seed 1187652733 1631542843 1846181492 1747628476 1612219327 -397119692 1132500004 -1054891246 -1761985488 -733466754 -17931585 -38551528 -1909964515 -877705794 605383727 -348336562 696197140 -1666268012 -156176185 -48674121 1303398071 2098942246 -1018596125 249487102 609571122 1288798496 -1938872778 -1837816774 -348228758 641581997 1554654759 -306648923 961232580
REM
CELL 1.54180   50.00000   50.00000   50.00000   90.00000   90.00000   90.00000
LATT -1
SFAC C  
C      1  0.4274630000000  0.5571970000000  0.5263800000000 1.0
C      1  0.5080240000000  0.4959890000000  0.4577920000000 1.0
C      1  0.5281280000000  0.4315350000000  0.5548680000000 1.0
C      1  0.5161920000000  0.4950170000000  0.4095180000000 1.0
C      1  0.5503510000000  0.5067900000000  0.4970170000000 1.0
C      1  0.5179400000000  0.5087550000000  0.5467370000000 1.0
C      1  0.4324470000000  0.5039570000000  0.4716370000000 1.0
C      1  0.5491010000000  0.4658960000000  0.4624490000000 1.0
C      1  0.5198690000000  0.4522850000000  0.5149660000000 1.0
C      1  0.4804100000000  0.4346860000000  0.4819790000000 1.0
C      1  0.4431430000000  0.4246490000000  0.5146810000000 1.0
C      1  0.5747070000000  0.5020210000000  0.4504670000000 1.0
C      1  0.5043220000000  0.4546080000000  0.4872580000000 1.0
C      1  0.4684390000000  0.4221850000000  0.5285660000000 1.0
C      1  0.4684990000000  0.5705590000000  0.4796260000000 1.0
C      1  0.5322490000000  0.5557130000000  0.4876960000000 1.0
C      1  0.4597380000000  0.5313570000000  0.4318300000000 1.0
C      1  0.5044320000000  0.5744650000000  0.5586750000000 1.0
C      1  0.5203960000000  0.4201660000000  0.5261060000000 1.0
C      1  0.5175650000000  0.5776490000000  0.4675060000000 1.0
C      1  0.4792570000000  0.4991000000000  0.5437760000000 1.0
C      1  0.4728540000000  0.4761200000000  0.4757000000000 1.0
C      1  0.4843940000000  0.5154460000000  0.5167270000000 1.0
C      1  0.5244080000000  0.4917630000000  0.5111910000000 1.0
C      1  0.5449760000000  0.5361520000000  0.4337340000000 1.0
C      1  0.4248190000000  0.4686960000000  0.5420370000000 1.0
C      1  0.4973760000000  0.5189940000000  0.4351280000000 1.0
C      1  0.5792750000000  0.4895460000000  0.5507840000000 1.0
C      1  0.5186630000000  0.4175090000000  0.4863930000000 1.0
C      1  0.4792390000000  0.4693740000000  0.5332500000000 1.0
C      1  0.4554560000000  0.5020740000000  0.5663990000000 1.0
C      1  0.4701460000000  0.4989760000000  0.4312910000000 1.0
C      1  0.4495550000000  0.5728500000000  0.5234780000000 1.0
C      1  0.5160650000000  0.4273110000000  0.4605280000000 1.0
C      1  0.5242750000000  0.5384340000000  0.5309550000000 1.0
C      1  0.4419760000000  0.4557990000000  0.4598350000000 1.0
C      1  0.4696740000000  0.4446920000000  0.5499990000000 1.0
C      1  0.4775970000000  0.5588690000000  0.5102570000000 1.0
C      1  0.5689930000000  0.4747160000000  0.4451240000000 1.0
C      1  0.4500620000000  0.4860070000000  0.4542370000000 1.0
C      1  0.5458190000000  0.5518080000000  0.5566570000000 1.0
C      1  0.5095200000000  0.5306070000000  0.5787890000000 1.0
C      1  0.4969460000000  0.4793920000000  0.4232330000000 1.0
C      1  0.4268560000000  0.4544390000000  0.5159530000000 1.0
C      1  0.4536200000000  0.5428490000000  0.4089310000000 1.0
C      1  0.4798710000000  0.5083350000000  0.4686600000000 1.0
C      1  0.5599880000000  0.4750290000000  0.4895990000000 1.0
C      1  0.4291810000000  0.5372680000000  0.4740480000000 1.0
C      1  0.4722350000000  0.4566970000000  0.5807300000000 1.0
C      1  0.5624890000000  0.5149830000000  0.5605420000000 1.0
C      1  0.4385900000000  0.4508140000000  0.5602290000000 1.0
C      1  0.4543850000000  0.5486180000000  0.4602880000000 1.0
C      1  0.5353480000000  0.5120940000000  0.5712300000000 1.0
C      1  0.4164720000000  0.5279510000000  0.5403830000000 1.0
C      1  0.5479190000000  0.5393420000000  0.5065340000000 1.0
C      1  0.4230470000000  0.5338150000000  0.5044730000000 1.0
C      1  0.5121870000000  0.4765000000000  0.5375880000000 1.0
C      1  0.4815650000000  0.5247110000000  0.5660190000000 1.0
C      1  0.5233180000000  0.5259990000000  0.4174100000000 1.0
C      1  0.5799540000000  0.5235990000000  0.4762530000000 1.0
C      1  0.5180490000000  0.4672590000000  0.4606620000000 1.0
C      1  0.4527330000000  0.4374440000000  0.4422980000000 1.0
C      1  0.4078170000000  0.5194530000000  0.4566700000000 1.0
C      1  0.4940670000000  0.5866890000000  0.4809350000000 1.0
C      1  0.5661410000000  0.4982680000000  0.5245970000000 1.0
C      1  0.5871750000000  0.4920810000000  0.4868240000000 1.0
C      1  0.4927260000000  0.4176950000000  0.5084660000000 1.0
C      1  0.5640390000000  0.5365890000000  0.5347300000000 1.0
C      1  0.5353600000000  0.4582290000000  0.5544760000000 1.0
C      1  0.5536040000000  0.4554820000000  0.5117630000000 1.0
C      1  0.4617800000000  0.4789510000000  0.5868840000000 1.0
C      1  0.4987880000000  0.4852430000000  0.4950050000000 1.0
C      1  0.5030730000000  0.4494010000000  0.4381360000000 1.0
C      1  0.5273260000000  0.5123880000000  0.4742140000000 1.0
C      1  0.4495320000000  0.4469510000000  0.4898190000000 1.0
C      1  0.4458300000000  0.5218330000000  0.5261470000000 1.0
C      1  0.5699600000000  0.5476980000000  0.4537960000000 1.0
C      1  0.5838780000000  0.5234810000000  0.5101130000000 1.0
C      1  0.4783580000000  0.4310680000000  0.4498940000000 1.0
C      1  0.5616910000000  0.4634750000000  0.5428130000000 1.0
C      1  0.5002080000000  0.5477250000000  0.4874090000000 1.0
C      1  0.4272110000000  0.4973470000000  0.5506810000000 1.0
C      1  0.4399590000000  0.4978180000000  0.5026370000000 1.0
C      1  0.5119900000000  0.5220910000000  0.5037740000000 1.0
C      1  0.5486010000000  0.5145660000000  0.4532810000000 1.0
C      1  0.5486690000000  0.5670620000000  0.4619710000000 1.0
C      1  0.6113560000000  0.4821260000000  0.4871350000000 1.0
C      1  0.4713920000000  0.5374060000000  0.5359140000000 1.0
C      1  0.5000040000000  0.5922690000000  0.5085420000000 1.0
C      1  0.5448050000000  0.4239750000000  0.5027460000000 1.0
C      1  0.4861690000000  0.5385500000000  0.4609730000000 1.0
C      1  0.5213400000000  0.5561560000000  0.5722450000000 1.0
C      1  0.4623420000000  0.4731330000000  0.5073280000000 1.0
C      1  0.4669950000000  0.5106670000000  0.4945510000000 1.0
C      1  0.5052470000000  0.5666750000000  0.5284470000000 1.0
END
