TITL C-2848501-3133-38 -0.0018927647954937 125000 -537.84351675573 0 0 97 (C1) n - 1
REM
REM in /home/bkarasulu/work/CARBON/AIRSS/Generating-Clusters/AIREBO/with-SteepDescent/Only-C1/SD-CG-opt/Try1-1.4A-POS3A/HFTN-CG
REM
REM
REM
REM
REM
REM ./C.cell (11c1c37f851c82e70ff6c80c92926a4b)
REM
REM compiler GCC version 9.2.1 20190827 (Red Hat 9.2.1-1)
REM options -cpp -mtune=generic -march=x86-64 -g -O0 -fpre-include=/usr/include/finclude/math-vector-fortran.h
REM seed 152993612 -2039040115 -618962062 -140791923 -305101660 -870719596 -1098611167 -323496203 633295318 1575958590 -1634595895 1402889663 2104186569 1932331007 -177588118 1397353261 -835264669 581304739 1428744675 772272019 -1096175052 -2130517936 -330636744 -1368891516 -649059710 1586579002 807805651 1445871719 230639362 -258803405 1090542161 1747507285 462345369
REM
CELL 1.54180   50.00000   50.00000   50.00000   90.00000   90.00000   90.00000
LATT -1
SFAC C  
C      1  0.5217700000000  0.5289320000000  0.5339310000000 1.0
C      1  0.5595510000000  0.5229340000000  0.5720920000000 1.0
C      1  0.4367290000000  0.5023300000000  0.5036730000000 1.0
C      1  0.5867930000000  0.5236650000000  0.4947720000000 1.0
C      1  0.4871410000000  0.5688670000000  0.5295190000000 1.0
C      1  0.4809340000000  0.5065650000000  0.5250000000000 1.0
C      1  0.5471560000000  0.5588000000000  0.4806750000000 1.0
C      1  0.4766030000000  0.5385990000000  0.5334090000000 1.0
C      1  0.4666760000000  0.4647650000000  0.5453700000000 1.0
C      1  0.5293370000000  0.5500070000000  0.5082720000000 1.0
C      1  0.4527870000000  0.5142810000000  0.5747040000000 1.0
C      1  0.5226510000000  0.4389880000000  0.4652400000000 1.0
C      1  0.5107320000000  0.5552300000000  0.4329310000000 1.0
C      1  0.4136380000000  0.5239140000000  0.4960070000000 1.0
C      1  0.5204370000000  0.4917570000000  0.4279250000000 1.0
C      1  0.5516050000000  0.4530320000000  0.4762530000000 1.0
C      1  0.4666860000000  0.4969130000000  0.4956300000000 1.0
C      1  0.5200260000000  0.4778330000000  0.5810850000000 1.0
C      1  0.5280150000000  0.5829310000000  0.4670280000000 1.0
C      1  0.5443060000000  0.5166230000000  0.4480830000000 1.0
C      1  0.5750030000000  0.5064390000000  0.4420420000000 1.0
C      1  0.4184810000000  0.4631180000000  0.4495570000000 1.0
C      1  0.5400400000000  0.5435920000000  0.5769240000000 1.0
C      1  0.4639250000000  0.4435590000000  0.4982700000000 1.0
C      1  0.5005850000000  0.4978320000000  0.5904270000000 1.0
C      1  0.3883200000000  0.5126940000000  0.4920670000000 1.0
C      1  0.4480270000000  0.4574610000000  0.5192940000000 1.0
C      1  0.4546840000000  0.5709330000000  0.5400570000000 1.0
C      1  0.5185800000000  0.4308460000000  0.5181450000000 1.0
C      1  0.5258120000000  0.4770340000000  0.5368160000000 1.0
C      1  0.5500770000000  0.4349280000000  0.5211090000000 1.0
C      1  0.5360600000000  0.4463850000000  0.4357350000000 1.0
C      1  0.4899630000000  0.4338510000000  0.4568340000000 1.0
C      1  0.4829420000000  0.4691610000000  0.5032930000000 1.0
C      1  0.4457050000000  0.5344850000000  0.4262370000000 1.0
C      1  0.4224580000000  0.5509390000000  0.4935980000000 1.0
C      1  0.5114030000000  0.4529440000000  0.4941450000000 1.0
C      1  0.5226730000000  0.5120330000000  0.5606180000000 1.0
C      1  0.5032760000000  0.5706680000000  0.4753540000000 1.0
C      1  0.4657870000000  0.4683720000000  0.5785340000000 1.0
C      1  0.4711760000000  0.4603450000000  0.4525150000000 1.0
C      1  0.4272530000000  0.4749270000000  0.5127840000000 1.0
C      1  0.5604310000000  0.4829630000000  0.4622630000000 1.0
C      1  0.5199640000000  0.4522390000000  0.5675700000000 1.0
C      1  0.5812670000000  0.4681830000000  0.5088190000000 1.0
C      1  0.4784610000000  0.4342650000000  0.5472650000000 1.0
C      1  0.4001860000000  0.4695170000000  0.5085420000000 1.0
C      1  0.5133330000000  0.4056620000000  0.5004370000000 1.0
C      1  0.5687440000000  0.5518100000000  0.5016920000000 1.0
C      1  0.5285500000000  0.4085180000000  0.4771510000000 1.0
C      1  0.5804560000000  0.4925100000000  0.4880520000000 1.0
C      1  0.4959780000000  0.4769180000000  0.5321430000000 1.0
C      1  0.5096950000000  0.5767000000000  0.5498770000000 1.0
C      1  0.4739870000000  0.4238400000000  0.4820970000000 1.0
C      1  0.5859300000000  0.5341520000000  0.5251200000000 1.0
C      1  0.4836480000000  0.4935540000000  0.4701380000000 1.0
C      1  0.5053480000000  0.5182370000000  0.5061420000000 1.0
C      1  0.5793300000000  0.4751780000000  0.5353590000000 1.0
C      1  0.4434480000000  0.5547650000000  0.4702670000000 1.0
C      1  0.5339620000000  0.5569020000000  0.5486830000000 1.0
C      1  0.4730940000000  0.4937160000000  0.5862990000000 1.0
C      1  0.4951290000000  0.4813220000000  0.4405540000000 1.0
C      1  0.4437840000000  0.4675440000000  0.4435610000000 1.0
C      1  0.5364000000000  0.5182850000000  0.4982720000000 1.0
C      1  0.4851630000000  0.4372280000000  0.4232390000000 1.0
C      1  0.5036430000000  0.5670650000000  0.5037810000000 1.0
C      1  0.4790050000000  0.5673300000000  0.4349830000000 1.0
C      1  0.5534190000000  0.4964090000000  0.5411820000000 1.0
C      1  0.5333490000000  0.5002590000000  0.4733780000000 1.0
C      1  0.5431960000000  0.4733800000000  0.4346290000000 1.0
C      1  0.5131960000000  0.5273960000000  0.5878960000000 1.0
C      1  0.4550410000000  0.5421300000000  0.5566940000000 1.0
C      1  0.4555580000000  0.4965390000000  0.5448430000000 1.0
C      1  0.4313590000000  0.5200460000000  0.5479600000000 1.0
C      1  0.4601190000000  0.5388160000000  0.4897490000000 1.0
C      1  0.4594470000000  0.4842080000000  0.4227830000000 1.0
C      1  0.5738320000000  0.5234800000000  0.5464610000000 1.0
C      1  0.4333480000000  0.5625440000000  0.5195970000000 1.0
C      1  0.5108820000000  0.4811410000000  0.4773070000000 1.0
C      1  0.5639240000000  0.4477980000000  0.5005590000000 1.0
C      1  0.3808930000000  0.4881330000000  0.5021860000000 1.0
C      1  0.4819850000000  0.4640550000000  0.4144980000000 1.0
C      1  0.5578670000000  0.5006160000000  0.5094390000000 1.0
C      1  0.5055870000000  0.4338930000000  0.5461420000000 1.0
C      1  0.4625540000000  0.5120620000000  0.4296400000000 1.0
C      1  0.5375230000000  0.5473890000000  0.4523780000000 1.0
C      1  0.5414170000000  0.4511800000000  0.5438560000000 1.0
C      1  0.4532230000000  0.5565800000000  0.4430370000000 1.0
C      1  0.5226830000000  0.5253900000000  0.4234480000000 1.0
C      1  0.4863930000000  0.5328180000000  0.4866600000000 1.0
C      1  0.4859200000000  0.4016330000000  0.4948800000000 1.0
C      1  0.4978540000000  0.5424350000000  0.4597000000000 1.0
C      1  0.4810840000000  0.5171990000000  0.4502660000000 1.0
C      1  0.5472010000000  0.4929330000000  0.5744310000000 1.0
C      1  0.5205660000000  0.5069160000000  0.3973420000000 1.0
C      1  0.5597280000000  0.5636880000000  0.5314480000000 1.0
C      1  0.4461100000000  0.5310150000000  0.5193480000000 1.0
END
