TITL C-2847953-8112-342 -0.00146095576899349 125000 -827.536504807056 0 0 154 (C1) n - 1
REM
REM in /home/bkarasulu/work/CARBON/AIRSS/Generating-Clusters/AIREBO/with-SteepDescent/Only-C1/SD-CG-opt/Try1-1.4A-POS3A/HFTN-CG
REM
REM
REM
REM
REM
REM ./C.cell (11c1c37f851c82e70ff6c80c92926a4b)
REM
REM compiler GCC version 9.2.1 20190827 (Red Hat 9.2.1-1)
REM options -cpp -mtune=generic -march=x86-64 -g -O0 -fpre-include=/usr/include/finclude/math-vector-fortran.h
REM seed 208364132 -1839986765 -1065296801 1309787325 -1955324843 1070452564 -68418772 -1338338515 708469656 898052774 -1519961434 -532846381 -798112859 -1391423849 1491850253 671729232 1921682453 -1454981672 -967837123 1230839050 -1101378902 1393246776 1355279957 1263032970 693436582 -2019607558 -339822088 1316098120 -1110031445 -1086810455 1037078280 -1698603488 -1200225935
REM
CELL 1.54180   50.00000   50.00000   50.00000   90.00000   90.00000   90.00000
LATT -1
SFAC C  
C      1  0.4396290000000  0.5011770000000  0.4226240000000 1.0
C      1  0.5300260000000  0.4707650000000  0.5793440000000 1.0
C      1  0.4984880000000  0.5505850000000  0.4563490000000 1.0
C      1  0.5008570000000  0.4508550000000  0.4187190000000 1.0
C      1  0.4594860000000  0.3833540000000  0.4957460000000 1.0
C      1  0.5261700000000  0.4938300000000  0.4753420000000 1.0
C      1  0.5548210000000  0.5154610000000  0.5447990000000 1.0
C      1  0.4871410000000  0.4639710000000  0.4671740000000 1.0
C      1  0.5583130000000  0.5537450000000  0.5607870000000 1.0
C      1  0.4347200000000  0.4200240000000  0.5075690000000 1.0
C      1  0.5611710000000  0.4765130000000  0.4836800000000 1.0
C      1  0.5404450000000  0.5210010000000  0.5748760000000 1.0
C      1  0.4010110000000  0.4916250000000  0.4788460000000 1.0
C      1  0.4444330000000  0.5801380000000  0.4938560000000 1.0
C      1  0.5773920000000  0.5362910000000  0.5698650000000 1.0
C      1  0.5577750000000  0.5040260000000  0.4969830000000 1.0
C      1  0.5537880000000  0.4511610000000  0.5647710000000 1.0
C      1  0.4770680000000  0.5666550000000  0.4218120000000 1.0
C      1  0.5210690000000  0.5135320000000  0.6010250000000 1.0
C      1  0.4727150000000  0.5943050000000  0.4879090000000 1.0
C      1  0.5339040000000  0.4117870000000  0.5318860000000 1.0
C      1  0.5719890000000  0.4224610000000  0.4880060000000 1.0
C      1  0.4662010000000  0.4499510000000  0.5110950000000 1.0
C      1  0.4408960000000  0.5335330000000  0.5316520000000 1.0
C      1  0.5366120000000  0.5070190000000  0.4508470000000 1.0
C      1  0.4993970000000  0.4842290000000  0.4250900000000 1.0
C      1  0.5250950000000  0.5511420000000  0.5539060000000 1.0
C      1  0.5404660000000  0.5994010000000  0.5454180000000 1.0
C      1  0.4561180000000  0.5184740000000  0.4468090000000 1.0
C      1  0.5321070000000  0.4578720000000  0.4272720000000 1.0
C      1  0.4872490000000  0.4741160000000  0.5515320000000 1.0
C      1  0.4562500000000  0.4355000000000  0.5374610000000 1.0
C      1  0.4689480000000  0.4426840000000  0.4513260000000 1.0
C      1  0.5359100000000  0.4627070000000  0.4760140000000 1.0
C      1  0.5016720000000  0.4215370000000  0.4268100000000 1.0
C      1  0.5627070000000  0.5256190000000  0.5185980000000 1.0
C      1  0.5065840000000  0.5913000000000  0.4874920000000 1.0
C      1  0.4692550000000  0.5008640000000  0.4938330000000 1.0
C      1  0.4682180000000  0.5373690000000  0.4117080000000 1.0
C      1  0.5539610000000  0.5892580000000  0.5094680000000 1.0
C      1  0.4603200000000  0.5127740000000  0.4025630000000 1.0
C      1  0.5047740000000  0.5669670000000  0.4170250000000 1.0
C      1  0.5458180000000  0.5502850000000  0.5119070000000 1.0
C      1  0.4268280000000  0.5217060000000  0.4806450000000 1.0
C      1  0.6082400000000  0.5176760000000  0.4660920000000 1.0
C      1  0.5664910000000  0.4946010000000  0.5972900000000 1.0
C      1  0.4913750000000  0.5684110000000  0.5665400000000 1.0
C      1  0.5695460000000  0.4389620000000  0.5385680000000 1.0
C      1  0.4420440000000  0.4522940000000  0.5629810000000 1.0
C      1  0.4448900000000  0.4450590000000  0.4294750000000 1.0
C      1  0.4259020000000  0.5613750000000  0.4771470000000 1.0
C      1  0.4164470000000  0.5201610000000  0.4492900000000 1.0
C      1  0.4862110000000  0.4216880000000  0.5711160000000 1.0
C      1  0.4732830000000  0.4495830000000  0.5707080000000 1.0
C      1  0.4597180000000  0.5178420000000  0.5552300000000 1.0
C      1  0.5248280000000  0.5921470000000  0.5094820000000 1.0
C      1  0.5100670000000  0.5481770000000  0.5842650000000 1.0
C      1  0.5151060000000  0.4853460000000  0.5553760000000 1.0
C      1  0.4213800000000  0.5458720000000  0.4344770000000 1.0
C      1  0.5673670000000  0.4967180000000  0.4405840000000 1.0
C      1  0.5752030000000  0.5023900000000  0.5683850000000 1.0
C      1  0.5456220000000  0.5427810000000  0.4234960000000 1.0
C      1  0.5171230000000  0.5182070000000  0.5502930000000 1.0
C      1  0.4525030000000  0.5205220000000  0.5884110000000 1.0
C      1  0.4533300000000  0.4016660000000  0.5165210000000 1.0
C      1  0.5114550000000  0.3976610000000  0.4975220000000 1.0
C      1  0.5422790000000  0.4332890000000  0.4485280000000 1.0
C      1  0.4153960000000  0.5287920000000  0.5536350000000 1.0
C      1  0.5229000000000  0.5712980000000  0.4662590000000 1.0
C      1  0.4643580000000  0.3976650000000  0.4732230000000 1.0
C      1  0.5357320000000  0.4730110000000  0.5353300000000 1.0
C      1  0.4329880000000  0.4838710000000  0.5585880000000 1.0
C      1  0.4650390000000  0.4884380000000  0.5690670000000 1.0
C      1  0.4527010000000  0.5848570000000  0.5359960000000 1.0
C      1  0.5734740000000  0.4467360000000  0.4466650000000 1.0
C      1  0.5180490000000  0.5367060000000  0.4093290000000 1.0
C      1  0.3938390000000  0.5103830000000  0.5001570000000 1.0
C      1  0.4513610000000  0.4949850000000  0.5322250000000 1.0
C      1  0.3977190000000  0.4963040000000  0.5262860000000 1.0
C      1  0.4809140000000  0.4655860000000  0.5977980000000 1.0
C      1  0.4849320000000  0.5822470000000  0.5372110000000 1.0
C      1  0.5576400000000  0.4418160000000  0.5073190000000 1.0
C      1  0.4646710000000  0.4311080000000  0.4828060000000 1.0
C      1  0.4930070000000  0.5312330000000  0.4306060000000 1.0
C      1  0.5163360000000  0.5049310000000  0.4041020000000 1.0
C      1  0.5146510000000  0.4159430000000  0.4577340000000 1.0
C      1  0.5817550000000  0.5515510000000  0.4948800000000 1.0
C      1  0.5396580000000  0.5479290000000  0.5956260000000 1.0
C      1  0.5390480000000  0.4886490000000  0.4235610000000 1.0
C      1  0.4476100000000  0.5667390000000  0.4283540000000 1.0
C      1  0.5023070000000  0.4311270000000  0.5173520000000 1.0
C      1  0.5658730000000  0.4075690000000  0.5260270000000 1.0
C      1  0.5957590000000  0.5264050000000  0.5106500000000 1.0
C      1  0.5784220000000  0.4653410000000  0.5179910000000 1.0
C      1  0.4257140000000  0.4568000000000  0.4522160000000 1.0
C      1  0.4836790000000  0.4968950000000  0.3978210000000 1.0
C      1  0.4081790000000  0.5023070000000  0.5518700000000 1.0
C      1  0.4275840000000  0.5608280000000  0.5163450000000 1.0
C      1  0.5685220000000  0.5760610000000  0.4896430000000 1.0
C      1  0.5715950000000  0.5468930000000  0.4313990000000 1.0
C      1  0.5151060000000  0.4618340000000  0.4542740000000 1.0
C      1  0.4813420000000  0.4124620000000  0.4516200000000 1.0
C      1  0.5716840000000  0.5272030000000  0.4791780000000 1.0
C      1  0.5310750000000  0.6075630000000  0.4286790000000 1.0
C      1  0.5432720000000  0.3987460000000  0.5018950000000 1.0
C      1  0.4115940000000  0.4628280000000  0.4868110000000 1.0
C      1  0.5245940000000  0.4438230000000  0.5389880000000 1.0
C      1  0.5518980000000  0.4092990000000  0.4706760000000 1.0
C      1  0.4791300000000  0.4135250000000  0.5326150000000 1.0
C      1  0.4078490000000  0.5412870000000  0.4978390000000 1.0
C      1  0.4339320000000  0.4913450000000  0.4702940000000 1.0
C      1  0.5563630000000  0.5772660000000  0.4647510000000 1.0
C      1  0.4249910000000  0.5916220000000  0.5304810000000 1.0
C      1  0.4733200000000  0.4963300000000  0.6001390000000 1.0
C      1  0.5270920000000  0.4465480000000  0.4998950000000 1.0
C      1  0.5201870000000  0.5831170000000  0.4344860000000 1.0
C      1  0.4470820000000  0.5478980000000  0.4566690000000 1.0
C      1  0.5798010000000  0.4729040000000  0.4583920000000 1.0
C      1  0.6047020000000  0.5070800000000  0.4914150000000 1.0
C      1  0.4791190000000  0.4803670000000  0.5191070000000 1.0
C      1  0.4567190000000  0.5572540000000  0.5501890000000 1.0
C      1  0.4672170000000  0.4908580000000  0.4633270000000 1.0
C      1  0.4316600000000  0.4389690000000  0.4805480000000 1.0
C      1  0.4801710000000  0.5680940000000  0.5065630000000 1.0
C      1  0.4742230000000  0.5577030000000  0.4746550000000 1.0
C      1  0.5069210000000  0.4103570000000  0.5511710000000 1.0
C      1  0.5812470000000  0.5238350000000  0.4487090000000 1.0
C      1  0.4197360000000  0.4767360000000  0.5136520000000 1.0
C      1  0.4917120000000  0.5225440000000  0.5927100000000 1.0
C      1  0.4955130000000  0.5054670000000  0.4513960000000 1.0
C      1  0.5093510000000  0.5197420000000  0.4789840000000 1.0
C      1  0.4323170000000  0.5081910000000  0.5102650000000 1.0
C      1  0.5929440000000  0.4790210000000  0.4904510000000 1.0
C      1  0.5281590000000  0.5361870000000  0.4479150000000 1.0
C      1  0.5158270000000  0.5776970000000  0.5365840000000 1.0
C      1  0.4555950000000  0.4767840000000  0.4347390000000 1.0
C      1  0.4295980000000  0.4550750000000  0.5313250000000 1.0
C      1  0.4698960000000  0.5471150000000  0.5802030000000 1.0
C      1  0.5231160000000  0.5472520000000  0.4903250000000 1.0
C      1  0.5663210000000  0.4775770000000  0.5473880000000 1.0
C      1  0.5733540000000  0.5725100000000  0.4428570000000 1.0
C      1  0.4681050000000  0.5256460000000  0.5128410000000 1.0
C      1  0.4716370000000  0.4581870000000  0.4129770000000 1.0
C      1  0.5027160000000  0.4700650000000  0.4969020000000 1.0
C      1  0.4976140000000  0.4233920000000  0.4862220000000 1.0
C      1  0.4863920000000  0.5430200000000  0.5444700000000 1.0
C      1  0.5308870000000  0.4857470000000  0.5080330000000 1.0
C      1  0.4155690000000  0.4869620000000  0.4419940000000 1.0
C      1  0.5246640000000  0.4325860000000  0.5698290000000 1.0
C      1  0.5397750000000  0.4898390000000  0.5997380000000 1.0
C      1  0.4962880000000  0.5090770000000  0.5253620000000 1.0
C      1  0.5549540000000  0.5703000000000  0.5354320000000 1.0
C      1  0.5076350000000  0.4515700000000  0.5910070000000 1.0
C      1  0.4984140000000  0.5405920000000  0.5127440000000 1.0
END
