TITL C-2847958-8115-427 -2253.70701026822 125000 -919.415068887524 0 0 175 (C1) n - 1
REM
REM in /home/bkarasulu/work/CARBON/AIRSS/Generating-Clusters/AIREBO/with-SteepDescent/Only-C1/SD-CG-opt/Try1-1.4A-POS3A/HFTN-CG
REM
REM
REM
REM
REM
REM ./C.cell (11c1c37f851c82e70ff6c80c92926a4b)
REM
REM compiler GCC version 9.2.1 20190827 (Red Hat 9.2.1-1)
REM options -cpp -mtune=generic -march=x86-64 -g -O0 -fpre-include=/usr/include/finclude/math-vector-fortran.h
REM seed 1724917842 376214281 1730563575 1469687064 1009281973 1953255978 1328840697 1762786606 -1546404585 1064186103 1578289963 -938851329 1456246891 2672381 -630152625 2101546480 -625794225 -110679968 1683267086 852230275 1949738299 -778545030 154911545 1837902589 2019576667 -693449185 1861690320 730960946 -878375540 -1131706253 1931231098 200551001 1501900044
REM
CELL 1.54180   50.00000   50.00000   50.00000   90.00000   90.00000   90.00000
LATT -1
SFAC C  
C      1  0.4492650000000  0.5076800000000  0.4856590000000 1.0
C      1  0.4317990000000  0.4450090000000  0.5399610000000 1.0
C      1  0.5305680000000  0.6057460000000  0.4567820000000 1.0
C      1  0.5519750000000  0.4771240000000  0.4213620000000 1.0
C      1  0.4233650000000  0.4677920000000  0.5637960000000 1.0
C      1  0.4446250000000  0.4064150000000  0.4900810000000 1.0
C      1  0.5294490000000  0.4840420000000  0.4008790000000 1.0
C      1  0.5619040000000  0.5443240000000  0.4872270000000 1.0
C      1  0.4927100000000  0.4675160000000  0.5932980000000 1.0
C      1  0.4522610000000  0.4881530000000  0.5687050000000 1.0
C      1  0.4469910000000  0.5216970000000  0.5668590000000 1.0
C      1  0.4935470000000  0.4290070000000  0.5404280000000 1.0
C      1  0.5114090000000  0.5794070000000  0.4798840000000 1.0
C      1  0.6136580000000  0.4932070000000  0.4950130000000 1.0
C      1  0.5193150000000  0.5942250000000  0.4376720000000 1.0
C      1  0.4888190000000  0.4260980000000  0.5826040000000 1.0
C      1  0.5776400000000  0.4815220000000  0.5635940000000 1.0
C      1  0.5054360000000  0.5231770000000  0.4528960000000 1.0
C      1  0.5289260000000  0.5090850000000  0.5962510000000 1.0
C      1  0.5245170000000  0.5428010000000  0.5951780000000 1.0
C      1  0.4731760000000  0.5656270000000  0.4343080000000 1.0
C      1  0.5744170000000  0.5140340000000  0.4781640000000 1.0
C      1  0.4955770000000  0.3936720000000  0.4820560000000 1.0
C      1  0.4919460000000  0.5211830000000  0.5875100000000 1.0
C      1  0.5387370000000  0.5140400000000  0.5156110000000 1.0
C      1  0.4410870000000  0.5231990000000  0.5345460000000 1.0
C      1  0.4722240000000  0.4172580000000  0.4354690000000 1.0
C      1  0.4507420000000  0.5430350000000  0.4223040000000 1.0
C      1  0.5439720000000  0.4705110000000  0.4537500000000 1.0
C      1  0.5332830000000  0.4810490000000  0.5520440000000 1.0
C      1  0.4834420000000  0.4514630000000  0.4657120000000 1.0
C      1  0.5864180000000  0.4984900000000  0.4504050000000 1.0
C      1  0.6034130000000  0.4771140000000  0.4318890000000 1.0
C      1  0.4257650000000  0.5490690000000  0.5328260000000 1.0
C      1  0.4312820000000  0.4450220000000  0.4463350000000 1.0
C      1  0.5558240000000  0.5851180000000  0.5146720000000 1.0
C      1  0.4098170000000  0.5072610000000  0.5677470000000 1.0
C      1  0.5565090000000  0.4356510000000  0.5608940000000 1.0
C      1  0.4764100000000  0.4862010000000  0.3926760000000 1.0
C      1  0.3854460000000  0.5216770000000  0.5096500000000 1.0
C      1  0.4902710000000  0.5244220000000  0.5343210000000 1.0
C      1  0.4322110000000  0.4319990000000  0.5091090000000 1.0
C      1  0.4940180000000  0.4528870000000  0.5627890000000 1.0
C      1  0.4724960000000  0.4245030000000  0.4926010000000 1.0
C      1  0.4474220000000  0.4830200000000  0.4544660000000 1.0
C      1  0.4055170000000  0.5357610000000  0.4869410000000 1.0
C      1  0.5102560000000  0.4986870000000  0.5698050000000 1.0
C      1  0.5417660000000  0.4442210000000  0.4752300000000 1.0
C      1  0.6117700000000  0.4837840000000  0.5215080000000 1.0
C      1  0.4338200000000  0.5520500000000  0.4812140000000 1.0
C      1  0.4778670000000  0.4913180000000  0.4417630000000 1.0
C      1  0.4484610000000  0.5764610000000  0.5645080000000 1.0
C      1  0.6017800000000  0.4365380000000  0.4990080000000 1.0
C      1  0.5876840000000  0.5494290000000  0.4561390000000 1.0
C      1  0.5091220000000  0.5472110000000  0.5174810000000 1.0
C      1  0.5138280000000  0.5001320000000  0.5037470000000 1.0
C      1  0.5281010000000  0.4992600000000  0.4444780000000 1.0
C      1  0.4808100000000  0.4973440000000  0.5526070000000 1.0
C      1  0.4336230000000  0.5137250000000  0.4202550000000 1.0
C      1  0.5598340000000  0.5040960000000  0.5828290000000 1.0
C      1  0.4692390000000  0.5218000000000  0.4364840000000 1.0
C      1  0.5933740000000  0.5574660000000  0.4877990000000 1.0
C      1  0.5305540000000  0.5622720000000  0.5343870000000 1.0
C      1  0.4693660000000  0.4847760000000  0.5979350000000 1.0
C      1  0.5208630000000  0.4420690000000  0.5025070000000 1.0
C      1  0.4157430000000  0.4741470000000  0.4458720000000 1.0
C      1  0.5508120000000  0.5280470000000  0.4024070000000 1.0
C      1  0.5740200000000  0.5242830000000  0.5313570000000 1.0
C      1  0.3941280000000  0.4655100000000  0.5062400000000 1.0
C      1  0.4063430000000  0.5849050000000  0.5057140000000 1.0
C      1  0.5404390000000  0.4602640000000  0.5779910000000 1.0
C      1  0.5092230000000  0.6034090000000  0.5227000000000 1.0
C      1  0.5194580000000  0.3922700000000  0.5205350000000 1.0
C      1  0.4713660000000  0.3851420000000  0.4872250000000 1.0
C      1  0.4689530000000  0.5391640000000  0.5773180000000 1.0
C      1  0.5401520000000  0.5937760000000  0.4851640000000 1.0
C      1  0.5291400000000  0.5366010000000  0.4920450000000 1.0
C      1  0.5373290000000  0.4570900000000  0.5282180000000 1.0
C      1  0.5206920000000  0.4351490000000  0.4501250000000 1.0
C      1  0.4649350000000  0.4608930000000  0.5553460000000 1.0
C      1  0.5317820000000  0.5936170000000  0.5353380000000 1.0
C      1  0.4751050000000  0.5020430000000  0.6182570000000 1.0
C      1  0.5240680000000  0.4761520000000  0.6032120000000 1.0
C      1  0.5737180000000  0.4554990000000  0.5831320000000 1.0
C      1  0.3975450000000  0.5022600000000  0.4438120000000 1.0
C      1  0.5289090000000  0.5465510000000  0.4207240000000 1.0
C      1  0.4007470000000  0.4588250000000  0.5389290000000 1.0
C      1  0.4738010000000  0.5411670000000  0.3865210000000 1.0
C      1  0.5257430000000  0.4803050000000  0.4794560000000 1.0
C      1  0.6050820000000  0.4796430000000  0.4717230000000 1.0
C      1  0.5024150000000  0.4744640000000  0.5396770000000 1.0
C      1  0.4695470000000  0.4144760000000  0.4602050000000 1.0
C      1  0.3972900000000  0.4623330000000  0.4719130000000 1.0
C      1  0.4723340000000  0.5419760000000  0.4845500000000 1.0
C      1  0.4823350000000  0.5584410000000  0.5532640000000 1.0
C      1  0.5022680000000  0.4712370000000  0.3987050000000 1.0
C      1  0.5635600000000  0.4730850000000  0.5202100000000 1.0
C      1  0.5429040000000  0.5296810000000  0.4410130000000 1.0
C      1  0.5616400000000  0.4107400000000  0.5137780000000 1.0
C      1  0.4187720000000  0.5331640000000  0.5787640000000 1.0
C      1  0.5444520000000  0.5827660000000  0.5709010000000 1.0
C      1  0.4490880000000  0.6087660000000  0.5051820000000 1.0
C      1  0.5015170000000  0.5592590000000  0.5951140000000 1.0
C      1  0.4952840000000  0.4765460000000  0.4754950000000 1.0
C      1  0.4771070000000  0.5766930000000  0.5366410000000 1.0
C      1  0.5359340000000  0.5336000000000  0.5645010000000 1.0
C      1  0.5174510000000  0.5507170000000  0.4633890000000 1.0
C      1  0.5050830000000  0.5370390000000  0.5608380000000 1.0
C      1  0.4839210000000  0.5836680000000  0.4610660000000 1.0
C      1  0.5004850000000  0.4687260000000  0.5081740000000 1.0
C      1  0.4941210000000  0.5765210000000  0.5089520000000 1.0
C      1  0.5248190000000  0.5118380000000  0.4020680000000 1.0
C      1  0.5459540000000  0.5121840000000  0.5462790000000 1.0
C      1  0.5411130000000  0.5081870000000  0.4746020000000 1.0
C      1  0.6038270000000  0.5193540000000  0.4927560000000 1.0
C      1  0.5261260000000  0.4333300000000  0.5491470000000 1.0
C      1  0.4467590000000  0.5704060000000  0.4556730000000 1.0
C      1  0.5997320000000  0.5394300000000  0.5150440000000 1.0
C      1  0.5348670000000  0.4114360000000  0.5072740000000 1.0
C      1  0.5550940000000  0.5593470000000  0.5656470000000 1.0
C      1  0.3977660000000  0.4968210000000  0.5192950000000 1.0
C      1  0.4668420000000  0.4653810000000  0.5118120000000 1.0
C      1  0.4452150000000  0.4751180000000  0.5315780000000 1.0
C      1  0.4995420000000  0.5194310000000  0.4211320000000 1.0
C      1  0.4498640000000  0.5909420000000  0.5337120000000 1.0
C      1  0.5630420000000  0.4131460000000  0.4580100000000 1.0
C      1  0.4009480000000  0.5546770000000  0.5131380000000 1.0
C      1  0.5924480000000  0.4521190000000  0.4383010000000 1.0
C      1  0.4212820000000  0.5591500000000  0.4440290000000 1.0
C      1  0.5159720000000  0.4428030000000  0.5945840000000 1.0
C      1  0.4569420000000  0.5950610000000  0.4767570000000 1.0
C      1  0.4371790000000  0.5708660000000  0.5093580000000 1.0
C      1  0.5031250000000  0.4265870000000  0.4779570000000 1.0
C      1  0.5792230000000  0.4540790000000  0.5435450000000 1.0
C      1  0.5795550000000  0.4284730000000  0.5210450000000 1.0
C      1  0.6076830000000  0.4562530000000  0.5250880000000 1.0
C      1  0.5623350000000  0.5562110000000  0.5325700000000 1.0
C      1  0.5071930000000  0.5652170000000  0.4343880000000 1.0
C      1  0.4620460000000  0.4545320000000  0.4453730000000 1.0
C      1  0.4537160000000  0.5316440000000  0.4626050000000 1.0
C      1  0.4170810000000  0.4870220000000  0.4960200000000 1.0
C      1  0.5033060000000  0.4808980000000  0.4307680000000 1.0
C      1  0.4552180000000  0.4227930000000  0.5497560000000 1.0
C      1  0.5969310000000  0.4500830000000  0.4693870000000 1.0
C      1  0.5667430000000  0.5760320000000  0.4861890000000 1.0
C      1  0.4183680000000  0.5083660000000  0.4714320000000 1.0
C      1  0.4909990000000  0.5189780000000  0.4957220000000 1.0
C      1  0.4316310000000  0.4852300000000  0.4178990000000 1.0
C      1  0.4806940000000  0.5149880000000  0.3955330000000 1.0
C      1  0.5727740000000  0.4319060000000  0.4817870000000 1.0
C      1  0.4701280000000  0.4343030000000  0.5213990000000 1.0
C      1  0.5023400000000  0.5131850000000  0.6175130000000 1.0
C      1  0.4702800000000  0.5710800000000  0.5887300000000 1.0
C      1  0.4754690000000  0.5653970000000  0.4003750000000 1.0
C      1  0.5803400000000  0.5210950000000  0.5646250000000 1.0
C      1  0.4676830000000  0.5688610000000  0.4944700000000 1.0
C      1  0.4183830000000  0.5291250000000  0.4444890000000 1.0
C      1  0.4713460000000  0.4451840000000  0.4160730000000 1.0
C      1  0.5957660000000  0.5002670000000  0.5417130000000 1.0
C      1  0.4526820000000  0.4707450000000  0.4034700000000 1.0
C      1  0.4629940000000  0.5181370000000  0.5149910000000 1.0
C      1  0.4271030000000  0.5572770000000  0.5622370000000 1.0
C      1  0.4274870000000  0.4262950000000  0.4699800000000 1.0
C      1  0.4668360000000  0.4132800000000  0.5725310000000 1.0
C      1  0.4277170000000  0.4563550000000  0.4858870000000 1.0
C      1  0.4564900000000  0.4744200000000  0.4842860000000 1.0
C      1  0.5660530000000  0.4488930000000  0.4285360000000 1.0
C      1  0.5022780000000  0.4485490000000  0.4298190000000 1.0
C      1  0.5662790000000  0.5001810000000  0.5081340000000 1.0
C      1  0.5500280000000  0.4286240000000  0.4393810000000 1.0
C      1  0.5720080000000  0.5343030000000  0.4415040000000 1.0
C      1  0.5691620000000  0.5064630000000  0.4221740000000 1.0
C      1  0.5116620000000  0.4028920000000  0.5441240000000 1.0
C      1  0.4852510000000  0.5054940000000  0.4692580000000 1.0
C      1  0.4218240000000  0.4987300000000  0.5387430000000 1.0
END
