TITL C-2847947-6848-307 -0.000749289475768966 125000 -372.516635094345 0 0 70 (C1) n - 1
REM
REM in /home/bkarasulu/work/CARBON/AIRSS/Generating-Clusters/AIREBO/with-SteepDescent/Only-C1/SD-CG-opt/Try1-1.4A-POS3A/HFTN-CG
REM
REM
REM
REM
REM
REM ./C.cell (11c1c37f851c82e70ff6c80c92926a4b)
REM
REM compiler GCC version 9.2.1 20190827 (Red Hat 9.2.1-1)
REM options -cpp -mtune=generic -march=x86-64 -g -O0 -fpre-include=/usr/include/finclude/math-vector-fortran.h
REM seed 1229431213 477690721 -660193558 -87084316 -1718947474 827960561 1025506167 1296893446 -382433343 -621467813 2116899535 327482237 1323724137 -2033628702 -1838569292 1302044092 1782361916 1355269301 -1251225667 -1375236916 -1191472247 -598849116 -612505421 281295497 -865900826 -241702326 1279018391 341384232 -784441851 717780075 -1273406819 -1439089675 73415716
REM
CELL 1.54180   50.00000   50.00000   50.00000   90.00000   90.00000   90.00000
LATT -1
SFAC C  
C      1  0.5151370000000  0.5070450000000  0.5409740000000 1.0
C      1  0.5352910000000  0.4778370000000  0.4549300000000 1.0
C      1  0.4910430000000  0.5783950000000  0.4426870000000 1.0
C      1  0.4642570000000  0.4659120000000  0.5255200000000 1.0
C      1  0.4416850000000  0.5302040000000  0.4757750000000 1.0
C      1  0.4714290000000  0.5694580000000  0.4761010000000 1.0
C      1  0.4856970000000  0.5301490000000  0.4999640000000 1.0
C      1  0.5042540000000  0.5692540000000  0.4729100000000 1.0
C      1  0.4314250000000  0.5299900000000  0.5338630000000 1.0
C      1  0.4717870000000  0.5246530000000  0.5305170000000 1.0
C      1  0.4428720000000  0.5425860000000  0.5051580000000 1.0
C      1  0.5094500000000  0.4340630000000  0.4992970000000 1.0
C      1  0.4968070000000  0.4433260000000  0.5294750000000 1.0
C      1  0.4418770000000  0.4739620000000  0.4558100000000 1.0
C      1  0.5504500000000  0.4478900000000  0.4811610000000 1.0
C      1  0.4640040000000  0.5635780000000  0.5020910000000 1.0
C      1  0.5584980000000  0.4637840000000  0.5467010000000 1.0
C      1  0.5061010000000  0.4665260000000  0.5752250000000 1.0
C      1  0.4845060000000  0.5227620000000  0.5602820000000 1.0
C      1  0.5445070000000  0.5460840000000  0.4629540000000 1.0
C      1  0.5011090000000  0.4960470000000  0.5138430000000 1.0
C      1  0.5295770000000  0.4213910000000  0.5236170000000 1.0
C      1  0.5598110000000  0.5471410000000  0.5185730000000 1.0
C      1  0.5450160000000  0.5323130000000  0.5026540000000 1.0
C      1  0.4869390000000  0.5142690000000  0.4154330000000 1.0
C      1  0.4761470000000  0.5523060000000  0.4500530000000 1.0
C      1  0.4120980000000  0.5466570000000  0.5490410000000 1.0
C      1  0.4975140000000  0.4750110000000  0.4677120000000 1.0
C      1  0.4838310000000  0.4646070000000  0.5526230000000 1.0
C      1  0.5572440000000  0.4920290000000  0.4652250000000 1.0
C      1  0.4711980000000  0.4909450000000  0.4607040000000 1.0
C      1  0.5319050000000  0.4562240000000  0.5655710000000 1.0
C      1  0.5018190000000  0.4967250000000  0.5678990000000 1.0
C      1  0.5088140000000  0.4956550000000  0.4431720000000 1.0
C      1  0.4650150000000  0.4756840000000  0.4309560000000 1.0
C      1  0.5836900000000  0.4677810000000  0.5568760000000 1.0
C      1  0.4583040000000  0.4840120000000  0.5604430000000 1.0
C      1  0.5402190000000  0.4360060000000  0.5428400000000 1.0
C      1  0.4498290000000  0.5066680000000  0.5485880000000 1.0
C      1  0.4825500000000  0.4179230000000  0.5408040000000 1.0
C      1  0.4911910000000  0.4458990000000  0.4788070000000 1.0
C      1  0.5484460000000  0.4820020000000  0.5239960000000 1.0
C      1  0.4519690000000  0.4481550000000  0.5099260000000 1.0
C      1  0.5066330000000  0.5602690000000  0.5374820000000 1.0
C      1  0.4989340000000  0.4584200000000  0.6009750000000 1.0
C      1  0.5344070000000  0.5705990000000  0.4677610000000 1.0
C      1  0.5164260000000  0.4710230000000  0.5274840000000 1.0
C      1  0.4677600000000  0.4516030000000  0.4548050000000 1.0
C      1  0.5251730000000  0.5191770000000  0.4708660000000 1.0
C      1  0.5687070000000  0.5097490000000  0.4433290000000 1.0
C      1  0.4913440000000  0.5246430000000  0.4464490000000 1.0
C      1  0.5681340000000  0.5386980000000  0.4496620000000 1.0
C      1  0.5368320000000  0.5146040000000  0.4396220000000 1.0
C      1  0.5387450000000  0.4723070000000  0.4943670000000 1.0
C      1  0.4211310000000  0.5300220000000  0.4600190000000 1.0
C      1  0.4706260000000  0.5202050000000  0.4730610000000 1.0
C      1  0.5402380000000  0.3996150000000  0.4766940000000 1.0
C      1  0.5154020000000  0.5435480000000  0.4902650000000 1.0
C      1  0.5155780000000  0.4935720000000  0.4858760000000 1.0
C      1  0.4594750000000  0.4405190000000  0.4856060000000 1.0
C      1  0.5527760000000  0.5029830000000  0.4971120000000 1.0
C      1  0.5478230000000  0.5942070000000  0.4706050000000 1.0
C      1  0.4693850000000  0.4942780000000  0.5159170000000 1.0
C      1  0.4204470000000  0.4920070000000  0.4962940000000 1.0
C      1  0.5358210000000  0.4253060000000  0.4844830000000 1.0
C      1  0.4418260000000  0.5088260000000  0.5094710000000 1.0
C      1  0.5323770000000  0.5427310000000  0.5769440000000 1.0
C      1  0.4885060000000  0.5586730000000  0.5182690000000 1.0
C      1  0.4760160000000  0.4924280000000  0.4088870000000 1.0
C      1  0.5141680000000  0.5370830000000  0.5569420000000 1.0
END
