TITL C-2848498-1409-216 -0.000255341892116555 125000 -673.977075618227 0 0 121 (C1) n - 1
REM
REM in /home/bkarasulu/work/CARBON/AIRSS/Generating-Clusters/AIREBO/with-SteepDescent/Only-C1/SD-CG-opt/Try1-1.4A-POS3A/HFTN-CG
REM
REM
REM
REM
REM
REM ./C.cell (11c1c37f851c82e70ff6c80c92926a4b)
REM
REM compiler GCC version 9.2.1 20190827 (Red Hat 9.2.1-1)
REM options -cpp -mtune=generic -march=x86-64 -g -O0 -fpre-include=/usr/include/finclude/math-vector-fortran.h
REM seed 1919045598 -1084096627 -71441979 -1235865032 -1118281302 757476248 2101075898 290413947 -415665219 809998975 1324153179 497963018 -1739800520 498594474 -734202086 704212712 134165970 -767235910 1287745942 547621616 -1990122043 1647008612 833759096 -977227098 393393477 -1391865426 1984326359 1786659294 2048915416 -866973006 929874883 -1617387692 -513470563
REM
CELL 1.54180   50.00000   50.00000   50.00000   90.00000   90.00000   90.00000
LATT -1
SFAC C  
C      1  0.5784100000000  0.5074090000000  0.5103170000000 1.0
C      1  0.4315680000000  0.4687480000000  0.5028960000000 1.0
C      1  0.4020660000000  0.4783990000000  0.5167780000000 1.0
C      1  0.4574610000000  0.5317930000000  0.5536590000000 1.0
C      1  0.5339990000000  0.4743030000000  0.4455420000000 1.0
C      1  0.4500840000000  0.4241560000000  0.4452220000000 1.0
C      1  0.4811710000000  0.5194770000000  0.4729290000000 1.0
C      1  0.5279280000000  0.4625520000000  0.5888020000000 1.0
C      1  0.4850890000000  0.5422360000000  0.5412100000000 1.0
C      1  0.5951400000000  0.4511090000000  0.5002760000000 1.0
C      1  0.5369140000000  0.4617170000000  0.5111220000000 1.0
C      1  0.4998020000000  0.5069070000000  0.5791020000000 1.0
C      1  0.5376980000000  0.5288220000000  0.4793850000000 1.0
C      1  0.4685150000000  0.5067410000000  0.4121880000000 1.0
C      1  0.5608330000000  0.4643770000000  0.4357590000000 1.0
C      1  0.5294160000000  0.5445290000000  0.5955360000000 1.0
C      1  0.5280140000000  0.4569610000000  0.4718250000000 1.0
C      1  0.4155330000000  0.4913710000000  0.4701180000000 1.0
C      1  0.5263070000000  0.5006050000000  0.4164860000000 1.0
C      1  0.4425620000000  0.5738230000000  0.5725660000000 1.0
C      1  0.4511410000000  0.5475910000000  0.5782400000000 1.0
C      1  0.4503220000000  0.4470260000000  0.4224750000000 1.0
C      1  0.5102430000000  0.4802190000000  0.4872190000000 1.0
C      1  0.5176620000000  0.5365030000000  0.5491690000000 1.0
C      1  0.4540140000000  0.5863730000000  0.5501370000000 1.0
C      1  0.4612710000000  0.4534570000000  0.5589490000000 1.0
C      1  0.4608250000000  0.5351680000000  0.4506590000000 1.0
C      1  0.5717470000000  0.5597760000000  0.4545880000000 1.0
C      1  0.5548350000000  0.4123220000000  0.4771400000000 1.0
C      1  0.4837450000000  0.4132520000000  0.5489960000000 1.0
C      1  0.4855450000000  0.5986150000000  0.5187950000000 1.0
C      1  0.5219470000000  0.5588260000000  0.4824060000000 1.0
C      1  0.4672710000000  0.5775920000000  0.5067680000000 1.0
C      1  0.4866960000000  0.5875680000000  0.5501760000000 1.0
C      1  0.5366370000000  0.4955770000000  0.4722700000000 1.0
C      1  0.4726740000000  0.5331250000000  0.4220170000000 1.0
C      1  0.4395230000000  0.4431940000000  0.5250130000000 1.0
C      1  0.4609180000000  0.4551770000000  0.4539590000000 1.0
C      1  0.5207790000000  0.4935610000000  0.5284750000000 1.0
C      1  0.5822730000000  0.5012020000000  0.4577900000000 1.0
C      1  0.4628970000000  0.4452400000000  0.4931590000000 1.0
C      1  0.5012680000000  0.5364790000000  0.4944540000000 1.0
C      1  0.4161520000000  0.4626450000000  0.5391470000000 1.0
C      1  0.5594700000000  0.4832020000000  0.5249500000000 1.0
C      1  0.4720740000000  0.3975340000000  0.5027220000000 1.0
C      1  0.4926270000000  0.5600210000000  0.5692050000000 1.0
C      1  0.5799740000000  0.4840970000000  0.4329340000000 1.0
C      1  0.4924620000000  0.4017400000000  0.4835310000000 1.0
C      1  0.5095270000000  0.4638360000000  0.5292570000000 1.0
C      1  0.5012930000000  0.3817800000000  0.4677330000000 1.0
C      1  0.4881100000000  0.4579110000000  0.4742030000000 1.0
C      1  0.5639970000000  0.5278400000000  0.5306190000000 1.0
C      1  0.5721210000000  0.4262190000000  0.5029120000000 1.0
C      1  0.4306560000000  0.4914530000000  0.4396290000000 1.0
C      1  0.5590130000000  0.5663220000000  0.5222650000000 1.0
C      1  0.4988700000000  0.5356230000000  0.5918870000000 1.0
C      1  0.5350210000000  0.5780710000000  0.5246620000000 1.0
C      1  0.5658260000000  0.5294000000000  0.5606650000000 1.0
C      1  0.5468390000000  0.4257380000000  0.5252420000000 1.0
C      1  0.5109400000000  0.4494610000000  0.4053370000000 1.0
C      1  0.4837770000000  0.4844180000000  0.4312570000000 1.0
C      1  0.4791730000000  0.5057460000000  0.5561960000000 1.0
C      1  0.5116130000000  0.5233470000000  0.4582750000000 1.0
C      1  0.4580940000000  0.4264890000000  0.5481710000000 1.0
C      1  0.4002220000000  0.4980480000000  0.4942640000000 1.0
C      1  0.4813530000000  0.4886270000000  0.4612660000000 1.0
C      1  0.4919870000000  0.4597040000000  0.5581140000000 1.0
C      1  0.5632780000000  0.4365700000000  0.4344680000000 1.0
C      1  0.5017730000000  0.5061160000000  0.5045950000000 1.0
C      1  0.5335970000000  0.4322420000000  0.4944950000000 1.0
C      1  0.5884710000000  0.5172500000000  0.4856790000000 1.0
C      1  0.4581690000000  0.5305170000000  0.4955850000000 1.0
C      1  0.5851390000000  0.4777860000000  0.4813170000000 1.0
C      1  0.4414190000000  0.5011100000000  0.4989080000000 1.0
C      1  0.5025740000000  0.4280510000000  0.4822580000000 1.0
C      1  0.4437840000000  0.5807540000000  0.5249530000000 1.0
C      1  0.4557370000000  0.4174140000000  0.5098790000000 1.0
C      1  0.5617480000000  0.5272860000000  0.4553920000000 1.0
C      1  0.5246860000000  0.5043180000000  0.5586250000000 1.0
C      1  0.5334050000000  0.5240570000000  0.5234140000000 1.0
C      1  0.5067140000000  0.4311340000000  0.5518990000000 1.0
C      1  0.5350650000000  0.4348120000000  0.5489140000000 1.0
C      1  0.5428240000000  0.5419970000000  0.5713670000000 1.0
C      1  0.4411590000000  0.4713880000000  0.5531630000000 1.0
C      1  0.4431260000000  0.5100360000000  0.4652280000000 1.0
C      1  0.5960600000000  0.4884070000000  0.4112950000000 1.0
C      1  0.5166190000000  0.5222950000000  0.4311460000000 1.0
C      1  0.4537670000000  0.5634950000000  0.4597600000000 1.0
C      1  0.4607150000000  0.5798750000000  0.4769250000000 1.0
C      1  0.5155800000000  0.5702440000000  0.5454750000000 1.0
C      1  0.5244440000000  0.5609490000000  0.4256070000000 1.0
C      1  0.4525650000000  0.4945170000000  0.5410460000000 1.0
C      1  0.5043680000000  0.4747650000000  0.5814010000000 1.0
C      1  0.4818050000000  0.4612260000000  0.5134390000000 1.0
C      1  0.5703400000000  0.5038800000000  0.5702550000000 1.0
C      1  0.4791880000000  0.5497270000000  0.5124470000000 1.0
C      1  0.5550960000000  0.4808650000000  0.4919150000000 1.0
C      1  0.4997050000000  0.5433780000000  0.4184740000000 1.0
C      1  0.3996890000000  0.5256710000000  0.4982520000000 1.0
C      1  0.5061630000000  0.6052690000000  0.5013770000000 1.0
C      1  0.4264560000000  0.5374430000000  0.5058170000000 1.0
C      1  0.5079640000000  0.6277320000000  0.4868790000000 1.0
C      1  0.4683520000000  0.5430360000000  0.5989320000000 1.0
C      1  0.4388550000000  0.5187260000000  0.5282010000000 1.0
C      1  0.4374590000000  0.4660620000000  0.4695090000000 1.0
C      1  0.5375010000000  0.5621220000000  0.4563070000000 1.0
C      1  0.5236790000000  0.5835440000000  0.4999790000000 1.0
C      1  0.4417440000000  0.4266250000000  0.4740820000000 1.0
C      1  0.5604370000000  0.4150190000000  0.4511500000000 1.0
C      1  0.4176270000000  0.4431680000000  0.4849630000000 1.0
C      1  0.5852670000000  0.5470750000000  0.4808400000000 1.0
C      1  0.4524160000000  0.4786500000000  0.4225800000000 1.0
C      1  0.5453250000000  0.4561350000000  0.5664540000000 1.0
C      1  0.5515980000000  0.4839480000000  0.5543650000000 1.0
C      1  0.5609450000000  0.5420090000000  0.5004960000000 1.0
C      1  0.4810730000000  0.4914140000000  0.5254200000000 1.0
C      1  0.5109510000000  0.4739470000000  0.4229640000000 1.0
C      1  0.5732940000000  0.4474920000000  0.4762280000000 1.0
C      1  0.5552720000000  0.5467700000000  0.4278350000000 1.0
C      1  0.4226300000000  0.5665510000000  0.5163500000000 1.0
C      1  0.3784460000000  0.5419750000000  0.4926760000000 1.0
END
