TITL C-2847945-6269-62 0.00031714518163712 125000 -1048.93510591438 0 0 196 (C1) n - 1
REM
REM in /home/bkarasulu/work/CARBON/AIRSS/Generating-Clusters/AIREBO/with-SteepDescent/Only-C1/SD-CG-opt/Try1-1.4A-POS3A/HFTN-CG
REM
REM
REM
REM
REM
REM ./C.cell (11c1c37f851c82e70ff6c80c92926a4b)
REM
REM compiler GCC version 9.2.1 20190827 (Red Hat 9.2.1-1)
REM options -cpp -mtune=generic -march=x86-64 -g -O0 -fpre-include=/usr/include/finclude/math-vector-fortran.h
REM seed -372041418 -521440441 1563345329 545966706 -456134112 -1513936796 -1962018197 -17530813 85638943 1831026877 -110260929 -1250695424 -1862616863 -1510296244 894679062 228907323 -699239403 1600441051 2142092875 -1906491402 -141649308 -42358979 -693109049 -2134379492 176065203 -520485089 27516424 227938173 -734678490 796189840 405400872 -992872218 1210429514
REM
CELL 1.54180   50.00000   50.00000   50.00000   90.00000   90.00000   90.00000
LATT -1
SFAC C  
C      1  0.5740650000000  0.5706100000000  0.5077590000000 1.0
C      1  0.3870390000000  0.5502490000000  0.5554130000000 1.0
C      1  0.4600130000000  0.4566440000000  0.4047330000000 1.0
C      1  0.5218940000000  0.4680390000000  0.5000910000000 1.0
C      1  0.5506160000000  0.4945100000000  0.4917700000000 1.0
C      1  0.4711890000000  0.5640950000000  0.4127800000000 1.0
C      1  0.4968200000000  0.5264190000000  0.6203500000000 1.0
C      1  0.4673560000000  0.5743550000000  0.5959850000000 1.0
C      1  0.5829580000000  0.5413130000000  0.5697280000000 1.0
C      1  0.5636320000000  0.5193390000000  0.5810040000000 1.0
C      1  0.5968810000000  0.5117810000000  0.4372590000000 1.0
C      1  0.5368270000000  0.4473200000000  0.4774120000000 1.0
C      1  0.4866970000000  0.5387530000000  0.3712200000000 1.0
C      1  0.4420440000000  0.5316150000000  0.5984300000000 1.0
C      1  0.5893690000000  0.4495720000000  0.4967890000000 1.0
C      1  0.4241640000000  0.4736240000000  0.4519680000000 1.0
C      1  0.5104870000000  0.4950800000000  0.5172950000000 1.0
C      1  0.5985670000000  0.5014090000000  0.5055750000000 1.0
C      1  0.5486840000000  0.5014460000000  0.5994160000000 1.0
C      1  0.6050960000000  0.4750680000000  0.5346620000000 1.0
C      1  0.5571160000000  0.5601820000000  0.4087260000000 1.0
C      1  0.5857640000000  0.4557890000000  0.5405650000000 1.0
C      1  0.4906840000000  0.4724470000000  0.3816190000000 1.0
C      1  0.5300850000000  0.3933070000000  0.5258380000000 1.0
C      1  0.5609330000000  0.4081720000000  0.5260000000000 1.0
C      1  0.4842980000000  0.4047680000000  0.5489600000000 1.0
C      1  0.4981750000000  0.4585900000000  0.4781310000000 1.0
C      1  0.4639400000000  0.4038690000000  0.5266000000000 1.0
C      1  0.3979470000000  0.5109560000000  0.5062400000000 1.0
C      1  0.5024590000000  0.4847100000000  0.5486730000000 1.0
C      1  0.4236690000000  0.4923030000000  0.5520590000000 1.0
C      1  0.5230590000000  0.4508570000000  0.6099660000000 1.0
C      1  0.5828310000000  0.4360950000000  0.5748770000000 1.0
C      1  0.4779780000000  0.5874500000000  0.5065220000000 1.0
C      1  0.5701960000000  0.5243690000000  0.4738000000000 1.0
C      1  0.5103110000000  0.5954910000000  0.4516010000000 1.0
C      1  0.4965920000000  0.5972820000000  0.5330100000000 1.0
C      1  0.4464050000000  0.6061840000000  0.5257640000000 1.0
C      1  0.5521390000000  0.5984160000000  0.4727000000000 1.0
C      1  0.5283870000000  0.4160560000000  0.4250220000000 1.0
C      1  0.4176250000000  0.4768450000000  0.5883190000000 1.0
C      1  0.4366430000000  0.4805920000000  0.4794900000000 1.0
C      1  0.4425900000000  0.5444960000000  0.5265170000000 1.0
C      1  0.4398720000000  0.4242100000000  0.4271640000000 1.0
C      1  0.5309960000000  0.4600560000000  0.4474510000000 1.0
C      1  0.5154660000000  0.4582920000000  0.5647550000000 1.0
C      1  0.4919370000000  0.4615970000000  0.4134910000000 1.0
C      1  0.6088640000000  0.4626920000000  0.4719580000000 1.0
C      1  0.4279330000000  0.5071770000000  0.5821940000000 1.0
C      1  0.4395820000000  0.5406570000000  0.4239620000000 1.0
C      1  0.4165210000000  0.5587390000000  0.5157600000000 1.0
C      1  0.5292700000000  0.4878330000000  0.4662220000000 1.0
C      1  0.5786390000000  0.4432970000000  0.4393300000000 1.0
C      1  0.5017780000000  0.5786240000000  0.4094550000000 1.0
C      1  0.4266770000000  0.4671310000000  0.5081690000000 1.0
C      1  0.4484630000000  0.5955680000000  0.5520030000000 1.0
C      1  0.4502520000000  0.5813680000000  0.4681140000000 1.0
C      1  0.5768710000000  0.4871730000000  0.4249940000000 1.0
C      1  0.4473590000000  0.5716510000000  0.4356360000000 1.0
C      1  0.4978730000000  0.4697100000000  0.4459730000000 1.0
C      1  0.5579340000000  0.5782160000000  0.3905410000000 1.0
C      1  0.4905170000000  0.4387540000000  0.5046810000000 1.0
C      1  0.5544570000000  0.4185030000000  0.4719480000000 1.0
C      1  0.5514370000000  0.4676790000000  0.5084370000000 1.0
C      1  0.5727970000000  0.5798990000000  0.4754850000000 1.0
C      1  0.5174510000000  0.4957380000000  0.4361360000000 1.0
C      1  0.5093940000000  0.5890400000000  0.5633760000000 1.0
C      1  0.4602610000000  0.5044240000000  0.5762160000000 1.0
C      1  0.5717260000000  0.5338050000000  0.4156240000000 1.0
C      1  0.4954440000000  0.4707010000000  0.5891380000000 1.0
C      1  0.3959490000000  0.5110380000000  0.4722610000000 1.0
C      1  0.4230720000000  0.5691810000000  0.4845520000000 1.0
C      1  0.4596800000000  0.5333390000000  0.5019430000000 1.0
C      1  0.5623910000000  0.5121210000000  0.5477720000000 1.0
C      1  0.4993310000000  0.4142550000000  0.4327790000000 1.0
C      1  0.4235850000000  0.4992200000000  0.4214760000000 1.0
C      1  0.5064840000000  0.4410850000000  0.5302100000000 1.0
C      1  0.5565040000000  0.5454470000000  0.5405650000000 1.0
C      1  0.3915240000000  0.5394850000000  0.5172030000000 1.0
C      1  0.5581150000000  0.5069750000000  0.4046830000000 1.0
C      1  0.5010480000000  0.5408740000000  0.4249430000000 1.0
C      1  0.5213870000000  0.5183500000000  0.5999000000000 1.0
C      1  0.5368300000000  0.4411850000000  0.5344420000000 1.0
C      1  0.4747860000000  0.4490750000000  0.5984220000000 1.0
C      1  0.5242280000000  0.4179730000000  0.5699840000000 1.0
C      1  0.4561400000000  0.5370160000000  0.4532250000000 1.0
C      1  0.4628490000000  0.4885330000000  0.3931710000000 1.0
C      1  0.4488050000000  0.5951740000000  0.4991720000000 1.0
C      1  0.4870140000000  0.4057650000000  0.5016850000000 1.0
C      1  0.5409550000000  0.4880480000000  0.5585980000000 1.0
C      1  0.4722720000000  0.4899160000000  0.4364240000000 1.0
C      1  0.4713630000000  0.5019840000000  0.5309440000000 1.0
C      1  0.5702080000000  0.5014100000000  0.5164500000000 1.0
C      1  0.4901810000000  0.4361220000000  0.5596530000000 1.0
C      1  0.5445870000000  0.5445440000000  0.4714060000000 1.0
C      1  0.6122890000000  0.4734770000000  0.5038180000000 1.0
C      1  0.4025060000000  0.4606260000000  0.4851560000000 1.0
C      1  0.4613060000000  0.4538310000000  0.5566680000000 1.0
C      1  0.5211520000000  0.5344810000000  0.5554650000000 1.0
C      1  0.4084690000000  0.5664810000000  0.5461030000000 1.0
C      1  0.5083960000000  0.5021040000000  0.4840900000000 1.0
C      1  0.5302980000000  0.5955880000000  0.5371400000000 1.0
C      1  0.4240960000000  0.5040860000000  0.5215600000000 1.0
C      1  0.4934870000000  0.5173040000000  0.5523100000000 1.0
C      1  0.4812340000000  0.5524640000000  0.6072980000000 1.0
C      1  0.5909970000000  0.5462530000000  0.5165730000000 1.0
C      1  0.4486780000000  0.5109240000000  0.4377400000000 1.0
C      1  0.5155030000000  0.4959660000000  0.5779910000000 1.0
C      1  0.4696620000000  0.5129970000000  0.6057400000000 1.0
C      1  0.5805500000000  0.4880060000000  0.5634720000000 1.0
C      1  0.5971550000000  0.5334650000000  0.5449170000000 1.0
C      1  0.4140730000000  0.4327620000000  0.4925260000000 1.0
C      1  0.5746880000000  0.5627610000000  0.4527240000000 1.0
C      1  0.5374570000000  0.4367090000000  0.4076470000000 1.0
C      1  0.4976970000000  0.3999330000000  0.4635800000000 1.0
C      1  0.5919030000000  0.5276010000000  0.4955710000000 1.0
C      1  0.5316790000000  0.5472780000000  0.5193030000000 1.0
C      1  0.4719310000000  0.4273650000000  0.4168880000000 1.0
C      1  0.3925280000000  0.4964220000000  0.5448330000000 1.0
C      1  0.5969780000000  0.4817670000000  0.4525810000000 1.0
C      1  0.5432100000000  0.5629010000000  0.4963350000000 1.0
C      1  0.4859530000000  0.5651550000000  0.4433940000000 1.0
C      1  0.3751340000000  0.4862960000000  0.5115300000000 1.0
C      1  0.4531100000000  0.4018980000000  0.4412780000000 1.0
C      1  0.5044150000000  0.6048980000000  0.4964170000000 1.0
C      1  0.5567860000000  0.4679970000000  0.5385980000000 1.0
C      1  0.5260480000000  0.5284190000000  0.4399850000000 1.0
C      1  0.4286860000000  0.5773840000000  0.5614830000000 1.0
C      1  0.5653780000000  0.5680930000000  0.5640690000000 1.0
C      1  0.4103430000000  0.5380590000000  0.4781880000000 1.0
C      1  0.5815560000000  0.4252720000000  0.5460560000000 1.0
C      1  0.4777180000000  0.5958890000000  0.4540640000000 1.0
C      1  0.4425790000000  0.5161590000000  0.3989040000000 1.0
C      1  0.5345170000000  0.4857930000000  0.4122830000000 1.0
C      1  0.5150920000000  0.5302260000000  0.4719930000000 1.0
C      1  0.5917560000000  0.5415960000000  0.4410710000000 1.0
C      1  0.5699670000000  0.4645940000000  0.5761270000000 1.0
C      1  0.5422220000000  0.4078440000000  0.4976010000000 1.0
C      1  0.4739400000000  0.5331510000000  0.5706220000000 1.0
C      1  0.4757360000000  0.5874710000000  0.5676630000000 1.0
C      1  0.3849180000000  0.4815150000000  0.4828780000000 1.0
C      1  0.5689290000000  0.4917160000000  0.4650270000000 1.0
C      1  0.4694650000000  0.4835830000000  0.5568240000000 1.0
C      1  0.4522150000000  0.4997850000000  0.5029320000000 1.0
C      1  0.5454950000000  0.4067730000000  0.4442610000000 1.0
C      1  0.6015810000000  0.5040730000000  0.5455410000000 1.0
C      1  0.5002440000000  0.5585830000000  0.4733890000000 1.0
C      1  0.4595670000000  0.4573940000000  0.4877580000000 1.0
C      1  0.4952860000000  0.4926910000000  0.6150860000000 1.0
C      1  0.5343060000000  0.5174050000000  0.3881180000000 1.0
C      1  0.5203160000000  0.5804340000000  0.4301870000000 1.0
C      1  0.4799850000000  0.5099910000000  0.4108650000000 1.0
C      1  0.5027200000000  0.4312030000000  0.5909170000000 1.0
C      1  0.4441830000000  0.5574870000000  0.5814500000000 1.0
C      1  0.4839540000000  0.5679750000000  0.5409120000000 1.0
C      1  0.5137040000000  0.4020740000000  0.5494910000000 1.0
C      1  0.4429420000000  0.5424330000000  0.4777840000000 1.0
C      1  0.4580000000000  0.5524630000000  0.5507890000000 1.0
C      1  0.3843160000000  0.5228400000000  0.5430000000000 1.0
C      1  0.4592580000000  0.4327490000000  0.5104720000000 1.0
C      1  0.4320040000000  0.4101250000000  0.5317020000000 1.0
C      1  0.5436380000000  0.5575440000000  0.4398360000000 1.0
C      1  0.4105180000000  0.4358950000000  0.5261990000000 1.0
C      1  0.5662090000000  0.4602390000000  0.4661810000000 1.0
C      1  0.4394970000000  0.4332380000000  0.4747300000000 1.0
C      1  0.4682390000000  0.4163090000000  0.4681080000000 1.0
C      1  0.4315810000000  0.4627420000000  0.5656300000000 1.0
C      1  0.5332770000000  0.5151900000000  0.5304480000000 1.0
C      1  0.5060280000000  0.5262260000000  0.3962290000000 1.0
C      1  0.5632090000000  0.4380610000000  0.5129590000000 1.0
C      1  0.4841400000000  0.5262290000000  0.4471450000000 1.0
C      1  0.3987490000000  0.4677860000000  0.5275500000000 1.0
C      1  0.4896050000000  0.5215970000000  0.5130270000000 1.0
C      1  0.5319420000000  0.5638450000000  0.5661400000000 1.0
C      1  0.4822030000000  0.4395320000000  0.4469300000000 1.0
C      1  0.5222360000000  0.5837810000000  0.4795820000000 1.0
C      1  0.5213930000000  0.5686750000000  0.5955870000000 1.0
C      1  0.5107600000000  0.4275540000000  0.4722360000000 1.0
C      1  0.4299010000000  0.4422660000000  0.4465560000000 1.0
C      1  0.4800480000000  0.4843540000000  0.4909450000000 1.0
C      1  0.5015820000000  0.5482650000000  0.5234890000000 1.0
C      1  0.5540360000000  0.5785820000000  0.5333500000000 1.0
C      1  0.5264300000000  0.4792870000000  0.6125150000000 1.0
C      1  0.4009580000000  0.4952210000000  0.4451430000000 1.0
C      1  0.5839240000000  0.4314970000000  0.4702160000000 1.0
C      1  0.5581390000000  0.5203900000000  0.4422590000000 1.0
C      1  0.5194430000000  0.4618000000000  0.3970830000000 1.0
C      1  0.5138440000000  0.3934900000000  0.4928820000000 1.0
C      1  0.4424260000000  0.4486380000000  0.5302460000000 1.0
C      1  0.4453510000000  0.4731370000000  0.4267710000000 1.0
C      1  0.4608390000000  0.3909990000000  0.4895800000000 1.0
C      1  0.5445060000000  0.4437600000000  0.5674720000000 1.0
C      1  0.4831300000000  0.5583110000000  0.4986490000000 1.0
C      1  0.5546160000000  0.4610790000000  0.4241680000000 1.0
C      1  0.4681790000000  0.5384950000000  0.3965010000000 1.0
C      1  0.5038910000000  0.5418310000000  0.5842060000000 1.0
END
