TITL C-2847952-8118-209 0.00110663413491048 125000 -951.449117919937 0 0 174 (C1) n - 1
REM
REM in /home/bkarasulu/work/CARBON/AIRSS/Generating-Clusters/AIREBO/with-SteepDescent/Only-C1/SD-CG-opt/Try1-1.4A-POS3A/HFTN-CG
REM
REM
REM
REM
REM
REM ./C.cell (11c1c37f851c82e70ff6c80c92926a4b)
REM
REM compiler GCC version 9.2.1 20190827 (Red Hat 9.2.1-1)
REM options -cpp -mtune=generic -march=x86-64 -g -O0 -fpre-include=/usr/include/finclude/math-vector-fortran.h
REM seed -1814513828 1091279298 -1421657755 -1407665708 2061469736 -132619278 910009115 -1115837278 110408257 1063336251 270166039 -1879252352 1596751332 1301241585 -1940726055 2038916635 1552411013 -1178995782 607786069 997704825 -1778844202 -1560345910 600030263 442007707 -440577914 1859465258 -1114839404 523024302 2141293316 -288790832 404264190 275869229 2080497326
REM
CELL 1.54180   50.00000   50.00000   50.00000   90.00000   90.00000   90.00000
LATT -1
SFAC C  
C      1  0.5466630000000  0.5852550000000  0.4852540000000 1.0
C      1  0.6125540000000  0.4194750000000  0.4551570000000 1.0
C      1  0.5359830000000  0.5335710000000  0.5885170000000 1.0
C      1  0.4388980000000  0.4568280000000  0.4173520000000 1.0
C      1  0.6098230000000  0.4812100000000  0.5292140000000 1.0
C      1  0.3964490000000  0.5342440000000  0.4655280000000 1.0
C      1  0.4526540000000  0.5222790000000  0.4867620000000 1.0
C      1  0.5466470000000  0.5008460000000  0.4530990000000 1.0
C      1  0.5196190000000  0.4884130000000  0.5612710000000 1.0
C      1  0.4109570000000  0.4456730000000  0.5165090000000 1.0
C      1  0.4984430000000  0.5872390000000  0.4561620000000 1.0
C      1  0.4999740000000  0.4639930000000  0.5602250000000 1.0
C      1  0.5255830000000  0.4465050000000  0.5090760000000 1.0
C      1  0.4910560000000  0.5156180000000  0.4373390000000 1.0
C      1  0.5473950000000  0.5445310000000  0.5272300000000 1.0
C      1  0.4401360000000  0.5680370000000  0.5129010000000 1.0
C      1  0.4467590000000  0.4583860000000  0.5538660000000 1.0
C      1  0.5673400000000  0.5906630000000  0.5077400000000 1.0
C      1  0.4718830000000  0.4409090000000  0.5974730000000 1.0
C      1  0.4858730000000  0.5321260000000  0.5924350000000 1.0
C      1  0.4183770000000  0.4947240000000  0.5621360000000 1.0
C      1  0.4738040000000  0.4873840000000  0.5214600000000 1.0
C      1  0.4552680000000  0.4390750000000  0.4492260000000 1.0
C      1  0.5047130000000  0.5237720000000  0.4977130000000 1.0
C      1  0.5353660000000  0.4704820000000  0.5930590000000 1.0
C      1  0.5550800000000  0.4472660000000  0.5233990000000 1.0
C      1  0.4108260000000  0.4871870000000  0.4829350000000 1.0
C      1  0.5097400000000  0.5696000000000  0.5237030000000 1.0
C      1  0.5810260000000  0.5082580000000  0.4743590000000 1.0
C      1  0.4959070000000  0.4430360000000  0.4114260000000 1.0
C      1  0.4471600000000  0.5309010000000  0.5254230000000 1.0
C      1  0.5076160000000  0.4887720000000  0.3867160000000 1.0
C      1  0.5869220000000  0.4409640000000  0.5332740000000 1.0
C      1  0.5030630000000  0.5044180000000  0.4629150000000 1.0
C      1  0.4583120000000  0.5063970000000  0.4398110000000 1.0
C      1  0.4420640000000  0.4346970000000  0.5885110000000 1.0
C      1  0.5435360000000  0.4528520000000  0.4808890000000 1.0
C      1  0.5104610000000  0.5134530000000  0.3820500000000 1.0
C      1  0.5164120000000  0.4111780000000  0.5477260000000 1.0
C      1  0.5239290000000  0.5428030000000  0.5520690000000 1.0
C      1  0.5070680000000  0.4743290000000  0.5997390000000 1.0
C      1  0.5922570000000  0.5287040000000  0.5404490000000 1.0
C      1  0.4185550000000  0.4531390000000  0.4431440000000 1.0
C      1  0.5356900000000  0.5793920000000  0.5434280000000 1.0
C      1  0.4995170000000  0.4445790000000  0.5870070000000 1.0
C      1  0.5195160000000  0.5900250000000  0.4983270000000 1.0
C      1  0.5005580000000  0.6012450000000  0.4811880000000 1.0
C      1  0.5068470000000  0.4840270000000  0.5213200000000 1.0
C      1  0.5786030000000  0.4064170000000  0.4893010000000 1.0
C      1  0.5556520000000  0.4040640000000  0.5035300000000 1.0
C      1  0.5498610000000  0.5477910000000  0.4980540000000 1.0
C      1  0.5251920000000  0.5168850000000  0.4321310000000 1.0
C      1  0.4518810000000  0.5830620000000  0.4584450000000 1.0
C      1  0.4387630000000  0.4022660000000  0.5128490000000 1.0
C      1  0.3966030000000  0.4929260000000  0.5280080000000 1.0
C      1  0.5462040000000  0.5889910000000  0.4533380000000 1.0
C      1  0.5929370000000  0.5308280000000  0.4355510000000 1.0
C      1  0.5130400000000  0.5886550000000  0.5746450000000 1.0
C      1  0.5228910000000  0.4213700000000  0.5785090000000 1.0
C      1  0.4312850000000  0.4284500000000  0.4953800000000 1.0
C      1  0.5395040000000  0.4468620000000  0.4475860000000 1.0
C      1  0.4099410000000  0.5462590000000  0.4376670000000 1.0
C      1  0.4412580000000  0.5356890000000  0.4405720000000 1.0
C      1  0.4558310000000  0.4724920000000  0.4423600000000 1.0
C      1  0.5032620000000  0.5941620000000  0.5463160000000 1.0
C      1  0.4676340000000  0.4039750000000  0.5280130000000 1.0
C      1  0.5424540000000  0.5139880000000  0.4817890000000 1.0
C      1  0.4773770000000  0.5423890000000  0.4397990000000 1.0
C      1  0.4030960000000  0.5393320000000  0.5481590000000 1.0
C      1  0.5483730000000  0.4751230000000  0.5618400000000 1.0
C      1  0.4573160000000  0.5521030000000  0.4893000000000 1.0
C      1  0.4539370000000  0.6049890000000  0.4751170000000 1.0
C      1  0.5715910000000  0.4637820000000  0.5839570000000 1.0
C      1  0.5046320000000  0.4618000000000  0.4874110000000 1.0
C      1  0.4797160000000  0.5959220000000  0.5240400000000 1.0
C      1  0.5465450000000  0.4409400000000  0.5811810000000 1.0
C      1  0.5491090000000  0.4797320000000  0.5010000000000 1.0
C      1  0.5796420000000  0.4937950000000  0.5776660000000 1.0
C      1  0.4198830000000  0.5900850000000  0.5027430000000 1.0
C      1  0.5375730000000  0.5459290000000  0.4455390000000 1.0
C      1  0.5750130000000  0.4843270000000  0.4434120000000 1.0
C      1  0.4316110000000  0.4892400000000  0.4188110000000 1.0
C      1  0.4085110000000  0.4763480000000  0.4524380000000 1.0
C      1  0.5403570000000  0.5008400000000  0.4062500000000 1.0
C      1  0.5686020000000  0.5792820000000  0.4410130000000 1.0
C      1  0.5578580000000  0.5153980000000  0.5706180000000 1.0
C      1  0.4887280000000  0.3947660000000  0.5489160000000 1.0
C      1  0.4617130000000  0.5466100000000  0.5808200000000 1.0
C      1  0.4868250000000  0.4559910000000  0.5226870000000 1.0
C      1  0.4805530000000  0.5065570000000  0.4863570000000 1.0
C      1  0.3921500000000  0.4999180000000  0.5023060000000 1.0
C      1  0.4181650000000  0.5452330000000  0.5226670000000 1.0
C      1  0.4920380000000  0.5002110000000  0.6024330000000 1.0
C      1  0.5751270000000  0.4788780000000  0.4827250000000 1.0
C      1  0.5849350000000  0.5066930000000  0.4229700000000 1.0
C      1  0.4656960000000  0.5576770000000  0.5546700000000 1.0
C      1  0.5967260000000  0.4553060000000  0.4881240000000 1.0
C      1  0.5501120000000  0.5152790000000  0.5403100000000 1.0
C      1  0.4778420000000  0.5624530000000  0.4639250000000 1.0
C      1  0.6257030000000  0.4946320000000  0.4711710000000 1.0
C      1  0.4696060000000  0.4488320000000  0.4134700000000 1.0
C      1  0.5661050000000  0.5361960000000  0.4716160000000 1.0
C      1  0.5643520000000  0.5798320000000  0.5330410000000 1.0
C      1  0.5102750000000  0.4368650000000  0.4386020000000 1.0
C      1  0.4838400000000  0.4085520000000  0.5025930000000 1.0
C      1  0.4355250000000  0.5357940000000  0.5838760000000 1.0
C      1  0.4758700000000  0.6076380000000  0.4935390000000 1.0
C      1  0.4156220000000  0.5001490000000  0.3921900000000 1.0
C      1  0.5072660000000  0.3937470000000  0.4996270000000 1.0
C      1  0.5106420000000  0.4405220000000  0.5382550000000 1.0
C      1  0.4573520000000  0.4445170000000  0.5101720000000 1.0
C      1  0.4134070000000  0.5497540000000  0.5724620000000 1.0
C      1  0.4344430000000  0.5074950000000  0.5815530000000 1.0
C      1  0.4767890000000  0.4759640000000  0.4896150000000 1.0
C      1  0.6184720000000  0.5205350000000  0.4776600000000 1.0
C      1  0.4342040000000  0.4224050000000  0.5659940000000 1.0
C      1  0.5609750000000  0.4778280000000  0.5328210000000 1.0
C      1  0.4353540000000  0.5830290000000  0.4121400000000 1.0
C      1  0.4897090000000  0.4710310000000  0.4397420000000 1.0
C      1  0.4211010000000  0.4710320000000  0.5367680000000 1.0
C      1  0.6139760000000  0.5107780000000  0.5242780000000 1.0
C      1  0.4846380000000  0.4434020000000  0.4580740000000 1.0
C      1  0.5134180000000  0.5251450000000  0.6112270000000 1.0
C      1  0.5341490000000  0.4209200000000  0.4883750000000 1.0
C      1  0.5687950000000  0.5067960000000  0.4006470000000 1.0
C      1  0.5721250000000  0.4519170000000  0.4534150000000 1.0
C      1  0.5308570000000  0.5577580000000  0.4729760000000 1.0
C      1  0.3975600000000  0.5803230000000  0.4952390000000 1.0
C      1  0.5785340000000  0.5519950000000  0.5371750000000 1.0
C      1  0.5284710000000  0.3970530000000  0.5198370000000 1.0
C      1  0.4727200000000  0.4774220000000  0.5531490000000 1.0
C      1  0.5183550000000  0.3971870000000  0.4713850000000 1.0
C      1  0.4270170000000  0.4305660000000  0.4659120000000 1.0
C      1  0.4749320000000  0.5322320000000  0.5402450000000 1.0
C      1  0.5033990000000  0.5510040000000  0.4832140000000 1.0
C      1  0.4353340000000  0.5689090000000  0.4363690000000 1.0
C      1  0.5195080000000  0.5072220000000  0.5352180000000 1.0
C      1  0.5696870000000  0.5482810000000  0.4427540000000 1.0
C      1  0.5098900000000  0.5191630000000  0.5721010000000 1.0
C      1  0.4084150000000  0.5084450000000  0.4491930000000 1.0
C      1  0.5105930000000  0.4711740000000  0.4113840000000 1.0
C      1  0.5910100000000  0.4293430000000  0.4704580000000 1.0
C      1  0.4532390000000  0.4663380000000  0.5860950000000 1.0
C      1  0.4579360000000  0.5769200000000  0.5353870000000 1.0
C      1  0.6020170000000  0.4765160000000  0.4626140000000 1.0
C      1  0.5326460000000  0.5646620000000  0.5739510000000 1.0
C      1  0.5218430000000  0.5326230000000  0.4021750000000 1.0
C      1  0.3960840000000  0.5122410000000  0.5504310000000 1.0
C      1  0.4370870000000  0.5007650000000  0.4657830000000 1.0
C      1  0.5191680000000  0.4812150000000  0.4491030000000 1.0
C      1  0.5213830000000  0.5821390000000  0.4408610000000 1.0
C      1  0.5940950000000  0.5204410000000  0.5014550000000 1.0
C      1  0.5630020000000  0.4386250000000  0.5545200000000 1.0
C      1  0.4033710000000  0.4565150000000  0.4899760000000 1.0
C      1  0.4482120000000  0.5035910000000  0.5129010000000 1.0
C      1  0.4129460000000  0.5180320000000  0.4188370000000 1.0
C      1  0.3981350000000  0.5495890000000  0.4959350000000 1.0
C      1  0.4820730000000  0.4363640000000  0.4882830000000 1.0
C      1  0.6042710000000  0.4564350000000  0.5178800000000 1.0
C      1  0.5622410000000  0.5100340000000  0.5091600000000 1.0
C      1  0.5177200000000  0.4929000000000  0.4917840000000 1.0
C      1  0.4795640000000  0.5091380000000  0.5604050000000 1.0
C      1  0.4827050000000  0.5694650000000  0.5028880000000 1.0
C      1  0.6142340000000  0.5354810000000  0.4538800000000 1.0
C      1  0.4432110000000  0.4090610000000  0.4450210000000 1.0
C      1  0.5234530000000  0.5593260000000  0.4192740000000 1.0
C      1  0.4500090000000  0.4709640000000  0.4758290000000 1.0
C      1  0.4623590000000  0.4960550000000  0.5866730000000 1.0
C      1  0.4391020000000  0.4731310000000  0.5079850000000 1.0
C      1  0.4512820000000  0.4291290000000  0.5398780000000 1.0
C      1  0.3801920000000  0.5228860000000  0.4918780000000 1.0
C      1  0.5846370000000  0.4960810000000  0.5464250000000 1.0
C      1  0.5396570000000  0.4731130000000  0.4259450000000 1.0
C      1  0.5037040000000  0.5363260000000  0.5274930000000 1.0
END
