TITL C-2847957-7266-597 -0.00295834085396863 125000 -560.042321223499 0 0 104 (C1) n - 1
REM
REM in /home/bkarasulu/work/CARBON/AIRSS/Generating-Clusters/AIREBO/with-SteepDescent/Only-C1/SD-CG-opt/Try1-1.4A-POS3A/HFTN-CG
REM
REM
REM
REM
REM
REM ./C.cell (11c1c37f851c82e70ff6c80c92926a4b)
REM
REM compiler GCC version 9.2.1 20190827 (Red Hat 9.2.1-1)
REM options -cpp -mtune=generic -march=x86-64 -g -O0 -fpre-include=/usr/include/finclude/math-vector-fortran.h
REM seed -307093632 603964312 -1077706447 1831747170 -1598928550 584825596 -1319899181 493927308 -156191757 -164369997 1997108001 -2107028771 -1494755632 1639054229 -1821666381 -1986451010 -1248501258 -1373494175 -1067214733 604045765 216666128 -1071694402 2019374712 -679098798 531934413 1341585493 -99333066 631094551 -513772000 1939654455 251916469 -325490584 -504641526
REM
CELL 1.54180   50.00000   50.00000   50.00000   90.00000   90.00000   90.00000
LATT -1
SFAC C  
C      1  0.4922360000000  0.5543190000000  0.5026240000000 1.0
C      1  0.5360140000000  0.4968420000000  0.5083960000000 1.0
C      1  0.4407690000000  0.5486820000000  0.4722870000000 1.0
C      1  0.5339870000000  0.4614840000000  0.5070110000000 1.0
C      1  0.4954320000000  0.5952300000000  0.4846930000000 1.0
C      1  0.4452480000000  0.4950820000000  0.4274670000000 1.0
C      1  0.5139360000000  0.4517420000000  0.4834450000000 1.0
C      1  0.4924540000000  0.4754010000000  0.6002380000000 1.0
C      1  0.5704440000000  0.4394800000000  0.5295750000000 1.0
C      1  0.5497190000000  0.4908830000000  0.4778340000000 1.0
C      1  0.4502190000000  0.5511650000000  0.5254930000000 1.0
C      1  0.5225240000000  0.5158980000000  0.4076540000000 1.0
C      1  0.4513140000000  0.5741420000000  0.5084500000000 1.0
C      1  0.4179940000000  0.4902890000000  0.5318200000000 1.0
C      1  0.5018230000000  0.5280200000000  0.5374250000000 1.0
C      1  0.4993070000000  0.4541730000000  0.4221870000000 1.0
C      1  0.4128210000000  0.5875550000000  0.4813020000000 1.0
C      1  0.5016310000000  0.4910410000000  0.4436880000000 1.0
C      1  0.4821380000000  0.4524410000000  0.4955390000000 1.0
C      1  0.5509740000000  0.5490110000000  0.4527560000000 1.0
C      1  0.4478340000000  0.4985230000000  0.4886810000000 1.0
C      1  0.4381020000000  0.5459980000000  0.4446360000000 1.0
C      1  0.4950670000000  0.5277760000000  0.4074970000000 1.0
C      1  0.5113430000000  0.4254640000000  0.5478880000000 1.0
C      1  0.4875000000000  0.4996750000000  0.4888120000000 1.0
C      1  0.4191510000000  0.4911230000000  0.4781890000000 1.0
C      1  0.4463900000000  0.4715730000000  0.5315620000000 1.0
C      1  0.4628930000000  0.4283390000000  0.4700850000000 1.0
C      1  0.5225080000000  0.5497610000000  0.5691950000000 1.0
C      1  0.4368960000000  0.4472510000000  0.4589190000000 1.0
C      1  0.4642060000000  0.5356140000000  0.5749920000000 1.0
C      1  0.5324820000000  0.5010470000000  0.5853730000000 1.0
C      1  0.5177320000000  0.5549980000000  0.5417530000000 1.0
C      1  0.5300790000000  0.5660930000000  0.5163790000000 1.0
C      1  0.4752590000000  0.4195150000000  0.5005030000000 1.0
C      1  0.4353350000000  0.4346620000000  0.4885640000000 1.0
C      1  0.4746310000000  0.5305690000000  0.5167480000000 1.0
C      1  0.5545540000000  0.4559630000000  0.4370240000000 1.0
C      1  0.5742010000000  0.4983640000000  0.5266250000000 1.0
C      1  0.5534910000000  0.4845560000000  0.5456490000000 1.0
C      1  0.4401450000000  0.4785260000000  0.4545710000000 1.0
C      1  0.4806830000000  0.4420850000000  0.4479540000000 1.0
C      1  0.5252820000000  0.5634120000000  0.4432200000000 1.0
C      1  0.5272940000000  0.5055290000000  0.5401050000000 1.0
C      1  0.5022460000000  0.4946190000000  0.5117860000000 1.0
C      1  0.4732230000000  0.4898290000000  0.5820030000000 1.0
C      1  0.5618100000000  0.5678500000000  0.5187590000000 1.0
C      1  0.4857890000000  0.5160360000000  0.5649230000000 1.0
C      1  0.4744690000000  0.5009170000000  0.4107460000000 1.0
C      1  0.5579180000000  0.4526240000000  0.5508870000000 1.0
C      1  0.4833410000000  0.4930230000000  0.5400050000000 1.0
C      1  0.5275000000000  0.4741060000000  0.5650910000000 1.0
C      1  0.5725090000000  0.5392540000000  0.5067390000000 1.0
C      1  0.5788270000000  0.4640230000000  0.4896970000000 1.0
C      1  0.4337190000000  0.5382130000000  0.5665310000000 1.0
C      1  0.5287370000000  0.4474740000000  0.4307540000000 1.0
C      1  0.5122430000000  0.5781430000000  0.4621770000000 1.0
C      1  0.4531140000000  0.4749850000000  0.5651000000000 1.0
C      1  0.4334780000000  0.5713000000000  0.4865210000000 1.0
C      1  0.5275600000000  0.5031340000000  0.4309120000000 1.0
C      1  0.4293400000000  0.5381610000000  0.5392630000000 1.0
C      1  0.4908940000000  0.4227840000000  0.5305860000000 1.0
C      1  0.5621050000000  0.5126580000000  0.5825640000000 1.0
C      1  0.5807760000000  0.5047060000000  0.4569990000000 1.0
C      1  0.4777470000000  0.5130630000000  0.4418730000000 1.0
C      1  0.5636150000000  0.5296540000000  0.4273680000000 1.0
C      1  0.5245720000000  0.5855160000000  0.4916140000000 1.0
C      1  0.5779200000000  0.4950580000000  0.4963710000000 1.0
C      1  0.5810550000000  0.5249620000000  0.5362770000000 1.0
C      1  0.4734830000000  0.4735380000000  0.4496350000000 1.0
C      1  0.4985960000000  0.4596030000000  0.5756190000000 1.0
C      1  0.5194700000000  0.5444040000000  0.4924320000000 1.0
C      1  0.4158580000000  0.5176960000000  0.5249070000000 1.0
C      1  0.5182330000000  0.4827160000000  0.4700000000000 1.0
C      1  0.5771550000000  0.5265590000000  0.5641450000000 1.0
C      1  0.5161230000000  0.4881250000000  0.6099990000000 1.0
C      1  0.4774440000000  0.4580600000000  0.5574850000000 1.0
C      1  0.4435940000000  0.5510510000000  0.5946160000000 1.0
C      1  0.5616420000000  0.4495230000000  0.5050490000000 1.0
C      1  0.5226000000000  0.4202170000000  0.4928070000000 1.0
C      1  0.4601760000000  0.5285680000000  0.4860280000000 1.0
C      1  0.5099700000000  0.5510150000000  0.4220320000000 1.0
C      1  0.5169020000000  0.4725560000000  0.5331060000000 1.0
C      1  0.4875270000000  0.4723890000000  0.4060050000000 1.0
C      1  0.4108920000000  0.5187220000000  0.4962870000000 1.0
C      1  0.4867890000000  0.5241550000000  0.4685910000000 1.0
C      1  0.4782070000000  0.5783530000000  0.4998280000000 1.0
C      1  0.5195650000000  0.5165860000000  0.4728710000000 1.0
C      1  0.5432060000000  0.5272430000000  0.5033060000000 1.0
C      1  0.5899780000000  0.5221710000000  0.4830750000000 1.0
C      1  0.5165270000000  0.4043540000000  0.4566090000000 1.0
C      1  0.5666930000000  0.4753010000000  0.4528250000000 1.0
C      1  0.5320410000000  0.4409140000000  0.5592310000000 1.0
C      1  0.4711310000000  0.4485930000000  0.5274860000000 1.0
C      1  0.5482710000000  0.5151330000000  0.4540300000000 1.0
C      1  0.4700640000000  0.4762410000000  0.4808930000000 1.0
C      1  0.4150670000000  0.4743260000000  0.5069130000000 1.0
C      1  0.5144460000000  0.5250210000000  0.5784440000000 1.0
C      1  0.5033340000000  0.4042930000000  0.4975010000000 1.0
C      1  0.4605740000000  0.4995160000000  0.5183460000000 1.0
C      1  0.4502530000000  0.5259720000000  0.4302020000000 1.0
C      1  0.5117350000000  0.4343940000000  0.4542840000000 1.0
C      1  0.4303220000000  0.4498840000000  0.5100600000000 1.0
C      1  0.5735800000000  0.5514180000000  0.4749950000000 1.0
END
