TITL C-2847954-6904-381 -6.10610204386974e-06 125000 -164.568415512314 0 0 30 (C1) n - 1
REM
REM in /home/bkarasulu/work/CARBON/AIRSS/Generating-Clusters/AIREBO/with-SteepDescent/Only-C1/SD-CG-opt/Try1-1.4A-POS3A/HFTN-CG
REM
REM
REM
REM
REM
REM ./C.cell (11c1c37f851c82e70ff6c80c92926a4b)
REM
REM compiler GCC version 9.2.1 20190827 (Red Hat 9.2.1-1)
REM options -cpp -mtune=generic -march=x86-64 -g -O0 -fpre-include=/usr/include/finclude/math-vector-fortran.h
REM seed -1763781306 -25381539 -480965207 1946167906 -2041492075 -749463756 -128234893 1922502007 -610620980 -342644089 1897343430 -959350346 2373429 1850020691 -991577560 446017216 332768120 -2081611851 637939071 337309983 1731930886 658502847 1323588431 -1829651232 -1876343782 1411497018 -1514668587 -1697481718 1209015837 -1290814471 -1522109557 -300768909 2053753674
REM
CELL 1.54180   50.00000   50.00000   50.00000   90.00000   90.00000   90.00000
LATT -1
SFAC C  
C      1  0.4760200000000  0.5384660000000  0.4699150000000 1.0
C      1  0.4524220000000  0.5057900000000  0.5247320000000 1.0
C      1  0.5673450000000  0.4912580000000  0.3957600000000 1.0
C      1  0.4638720000000  0.5142820000000  0.4658860000000 1.0
C      1  0.4620810000000  0.5600000000000  0.4814800000000 1.0
C      1  0.5197800000000  0.5155250000000  0.4575620000000 1.0
C      1  0.4532770000000  0.4847510000000  0.5070260000000 1.0
C      1  0.4720490000000  0.5793070000000  0.5255620000000 1.0
C      1  0.4937620000000  0.5680360000000  0.5387930000000 1.0
C      1  0.5079640000000  0.4559960000000  0.4949470000000 1.0
C      1  0.5216420000000  0.5554790000000  0.4849130000000 1.0
C      1  0.4767960000000  0.4512780000000  0.4575410000000 1.0
C      1  0.5338260000000  0.4966020000000  0.4364350000000 1.0
C      1  0.5224990000000  0.4463370000000  0.5147470000000 1.0
C      1  0.4506690000000  0.5374700000000  0.5214700000000 1.0
C      1  0.5599740000000  0.4177010000000  0.5791200000000 1.0
C      1  0.4739190000000  0.4908720000000  0.4855330000000 1.0
C      1  0.5107530000000  0.4853820000000  0.4551860000000 1.0
C      1  0.5349330000000  0.4356050000000  0.5357150000000 1.0
C      1  0.5064440000000  0.5336240000000  0.4766720000000 1.0
C      1  0.5725580000000  0.4105200000000  0.6009630000000 1.0
C      1  0.5498340000000  0.4942600000000  0.4150310000000 1.0
C      1  0.4972670000000  0.5404220000000  0.5437990000000 1.0
C      1  0.5485760000000  0.4271930000000  0.5569920000000 1.0
C      1  0.4805340000000  0.5235760000000  0.5260160000000 1.0
C      1  0.4370390000000  0.4628860000000  0.5059280000000 1.0
C      1  0.4919810000000  0.4700200000000  0.4725780000000 1.0
C      1  0.4917590000000  0.5152580000000  0.4984000000000 1.0
C      1  0.5143660000000  0.5296950000000  0.5621960000000 1.0
C      1  0.4560620000000  0.5624080000000  0.5091000000000 1.0
END
