TITL C-2847955-7945-502 -0.00162381762300393 125000 -606.982718493369 0 0 112 (C1) n - 1
REM
REM in /home/bkarasulu/work/CARBON/AIRSS/Generating-Clusters/AIREBO/with-SteepDescent/Only-C1/SD-CG-opt/Try1-1.4A-POS3A/HFTN-CG
REM
REM
REM
REM
REM
REM ./C.cell (11c1c37f851c82e70ff6c80c92926a4b)
REM
REM compiler GCC version 9.2.1 20190827 (Red Hat 9.2.1-1)
REM options -cpp -mtune=generic -march=x86-64 -g -O0 -fpre-include=/usr/include/finclude/math-vector-fortran.h
REM seed 139379635 1497807500 1478171985 -2038561025 -1491686870 -1295829331 -728846020 1284700292 -757981189 -572394592 689036608 1449360793 -1587064347 -1911862050 42259344 477070019 698265343 -639915989 -1192251887 1731983099 -1967582046 -166315076 -1243680625 -1177868923 -98263682 -229104985 -704813065 2115796072 1963851593 1743823159 -398020997 561484269 -455845453
REM
CELL 1.54180   50.00000   50.00000   50.00000   90.00000   90.00000   90.00000
LATT -1
SFAC C  
C      1  0.4706380000000  0.5892250000000  0.4761580000000 1.0
C      1  0.4888300000000  0.5836320000000  0.5043330000000 1.0
C      1  0.4645430000000  0.4304580000000  0.4395190000000 1.0
C      1  0.4544920000000  0.4970200000000  0.5944700000000 1.0
C      1  0.4924010000000  0.5233110000000  0.5723570000000 1.0
C      1  0.5492720000000  0.5328360000000  0.5720750000000 1.0
C      1  0.5755000000000  0.5199520000000  0.5147310000000 1.0
C      1  0.4328320000000  0.5327230000000  0.5066430000000 1.0
C      1  0.5465080000000  0.4298820000000  0.4940980000000 1.0
C      1  0.5202400000000  0.5805120000000  0.5173100000000 1.0
C      1  0.5150770000000  0.5456090000000  0.4322540000000 1.0
C      1  0.5077950000000  0.4485950000000  0.5197350000000 1.0
C      1  0.6040940000000  0.4764780000000  0.4886120000000 1.0
C      1  0.4639050000000  0.4893590000000  0.4467260000000 1.0
C      1  0.4657560000000  0.5569360000000  0.4857250000000 1.0
C      1  0.5363130000000  0.5537190000000  0.5186420000000 1.0
C      1  0.4807810000000  0.5704760000000  0.4515830000000 1.0
C      1  0.4406800000000  0.5511490000000  0.5348750000000 1.0
C      1  0.4548870000000  0.5104250000000  0.5005140000000 1.0
C      1  0.5346040000000  0.4049680000000  0.5033300000000 1.0
C      1  0.5417990000000  0.4869030000000  0.4931940000000 1.0
C      1  0.5074550000000  0.4225000000000  0.4979290000000 1.0
C      1  0.5576580000000  0.5331170000000  0.4626930000000 1.0
C      1  0.5907790000000  0.4953830000000  0.4694630000000 1.0
C      1  0.4713480000000  0.5382900000000  0.4578450000000 1.0
C      1  0.4746870000000  0.4134000000000  0.5030200000000 1.0
C      1  0.5007730000000  0.5296830000000  0.6014810000000 1.0
C      1  0.4315680000000  0.4977480000000  0.5738450000000 1.0
C      1  0.5081760000000  0.5227480000000  0.4913830000000 1.0
C      1  0.4172060000000  0.5178760000000  0.4729530000000 1.0
C      1  0.5202410000000  0.5021710000000  0.5149000000000 1.0
C      1  0.4410440000000  0.4545630000000  0.5064370000000 1.0
C      1  0.4808730000000  0.5298180000000  0.5109290000000 1.0
C      1  0.4856490000000  0.4281720000000  0.5306110000000 1.0
C      1  0.4561060000000  0.5713980000000  0.5545110000000 1.0
C      1  0.5592520000000  0.4525290000000  0.5341060000000 1.0
C      1  0.4926170000000  0.4858970000000  0.4829420000000 1.0
C      1  0.4523330000000  0.5425410000000  0.4327060000000 1.0
C      1  0.4650990000000  0.4354650000000  0.5548250000000 1.0
C      1  0.5689650000000  0.4657260000000  0.5783850000000 1.0
C      1  0.5288010000000  0.4513920000000  0.5420880000000 1.0
C      1  0.5694020000000  0.5135720000000  0.5722080000000 1.0
C      1  0.5206250000000  0.4832740000000  0.5659990000000 1.0
C      1  0.5661370000000  0.4934940000000  0.5917800000000 1.0
C      1  0.4992400000000  0.5516710000000  0.4830300000000 1.0
C      1  0.4759420000000  0.4356150000000  0.4773090000000 1.0
C      1  0.5805320000000  0.5021190000000  0.5439770000000 1.0
C      1  0.4850350000000  0.4489300000000  0.5740730000000 1.0
C      1  0.5216270000000  0.5312770000000  0.5317750000000 1.0
C      1  0.4419210000000  0.4987410000000  0.4710700000000 1.0
C      1  0.4527230000000  0.4639180000000  0.5488070000000 1.0
C      1  0.5242320000000  0.5311370000000  0.5629450000000 1.0
C      1  0.4843790000000  0.5373160000000  0.4201920000000 1.0
C      1  0.5059030000000  0.4722700000000  0.4388210000000 1.0
C      1  0.5444710000000  0.5317310000000  0.4329630000000 1.0
C      1  0.5740830000000  0.4693500000000  0.5506130000000 1.0
C      1  0.5381330000000  0.4742950000000  0.5899970000000 1.0
C      1  0.5281480000000  0.5182500000000  0.4675260000000 1.0
C      1  0.4605510000000  0.5241210000000  0.5786450000000 1.0
C      1  0.5454150000000  0.5046470000000  0.4197300000000 1.0
C      1  0.4924290000000  0.4919060000000  0.5658200000000 1.0
C      1  0.5177150000000  0.4435100000000  0.5685390000000 1.0
C      1  0.4459170000000  0.4259620000000  0.4633840000000 1.0
C      1  0.4572990000000  0.4833640000000  0.5143610000000 1.0
C      1  0.4263370000000  0.5447910000000  0.4450990000000 1.0
C      1  0.5637780000000  0.4460200000000  0.5078170000000 1.0
C      1  0.4773340000000  0.4838320000000  0.5403730000000 1.0
C      1  0.5052140000000  0.4252570000000  0.4641000000000 1.0
C      1  0.4305270000000  0.4712380000000  0.4589970000000 1.0
C      1  0.4528560000000  0.4312440000000  0.5226970000000 1.0
C      1  0.5028820000000  0.5844160000000  0.5630120000000 1.0
C      1  0.5800850000000  0.5781780000000  0.4731200000000 1.0
C      1  0.5163030000000  0.4698270000000  0.4003130000000 1.0
C      1  0.5615340000000  0.5478980000000  0.5081420000000 1.0
C      1  0.4145620000000  0.5221020000000  0.5299270000000 1.0
C      1  0.4299410000000  0.4738810000000  0.5591920000000 1.0
C      1  0.5449340000000  0.4545390000000  0.4444610000000 1.0
C      1  0.5708140000000  0.4693160000000  0.4916110000000 1.0
C      1  0.4680420000000  0.5604880000000  0.5180610000000 1.0
C      1  0.5118080000000  0.5654030000000  0.4545790000000 1.0
C      1  0.5585210000000  0.4930260000000  0.5212290000000 1.0
C      1  0.4843700000000  0.5117370000000  0.3981010000000 1.0
C      1  0.4904710000000  0.4533830000000  0.4150940000000 1.0
C      1  0.5151950000000  0.4396830000000  0.4360270000000 1.0
C      1  0.4610370000000  0.4702540000000  0.4187200000000 1.0
C      1  0.3922380000000  0.5105210000000  0.4733450000000 1.0
C      1  0.4909880000000  0.5388670000000  0.5421550000000 1.0
C      1  0.4692970000000  0.4640020000000  0.4912310000000 1.0
C      1  0.4778370000000  0.4588920000000  0.4525940000000 1.0
C      1  0.4784080000000  0.4776740000000  0.5909870000000 1.0
C      1  0.4330510000000  0.4702180000000  0.4301510000000 1.0
C      1  0.4827220000000  0.5661480000000  0.5563040000000 1.0
C      1  0.4860140000000  0.5105170000000  0.4604190000000 1.0
C      1  0.5432780000000  0.4942340000000  0.4488060000000 1.0
C      1  0.4389100000000  0.5769230000000  0.4796470000000 1.0
C      1  0.5347280000000  0.4836160000000  0.5394360000000 1.0
C      1  0.5804830000000  0.5189610000000  0.4810830000000 1.0
C      1  0.5060440000000  0.4972700000000  0.4157770000000 1.0
C      1  0.4274430000000  0.5477970000000  0.4789530000000 1.0
C      1  0.5406610000000  0.4860630000000  0.3993040000000 1.0
C      1  0.4328990000000  0.4492540000000  0.4755740000000 1.0
C      1  0.5162330000000  0.5811540000000  0.4843430000000 1.0
C      1  0.5078010000000  0.4607190000000  0.5964070000000 1.0
C      1  0.5202180000000  0.5946830000000  0.5444110000000 1.0
C      1  0.4609880000000  0.5126300000000  0.4221080000000 1.0
C      1  0.4969240000000  0.4782210000000  0.5158150000000 1.0
C      1  0.5302720000000  0.4439310000000  0.4726800000000 1.0
C      1  0.5664560000000  0.5562360000000  0.4817940000000 1.0
C      1  0.5670650000000  0.4753740000000  0.4583640000000 1.0
C      1  0.5095850000000  0.5140820000000  0.4407660000000 1.0
C      1  0.4375980000000  0.5238050000000  0.5548530000000 1.0
C      1  0.5218770000000  0.4766380000000  0.4685230000000 1.0
END
