TITL C-2847955-7945-339 0.00175452421079335 125000 -937.694912751077 0 0 176 (C1) n - 1
REM
REM in /home/bkarasulu/work/CARBON/AIRSS/Generating-Clusters/AIREBO/with-SteepDescent/Only-C1/SD-CG-opt/Try1-1.4A-POS3A/HFTN-CG
REM
REM
REM
REM
REM
REM ./C.cell (11c1c37f851c82e70ff6c80c92926a4b)
REM
REM compiler GCC version 9.2.1 20190827 (Red Hat 9.2.1-1)
REM options -cpp -mtune=generic -march=x86-64 -g -O0 -fpre-include=/usr/include/finclude/math-vector-fortran.h
REM seed 607554008 -1533162619 1882054067 633952184 -423744952 1196700311 -1111526005 -1951477418 167065850 -1736586369 -1266937780 1433873180 -412432204 -416167012 -1269331641 -1735955563 -2050474076 590528814 -285436676 244889021 -360907301 -256527658 -1710205742 -262151438 -500967956 -1209651798 1313551980 329984888 468386889 1247932664 832125095 -1814570047 668744605
REM
CELL 1.54180   50.00000   50.00000   50.00000   90.00000   90.00000   90.00000
LATT -1
SFAC C  
C      1  0.5381300000000  0.5472490000000  0.3964140000000 1.0
C      1  0.5738070000000  0.5033110000000  0.5664060000000 1.0
C      1  0.4076640000000  0.4804210000000  0.5309190000000 1.0
C      1  0.4736870000000  0.4560500000000  0.4381840000000 1.0
C      1  0.4920700000000  0.5085620000000  0.6395090000000 1.0
C      1  0.4649920000000  0.4101600000000  0.4923150000000 1.0
C      1  0.5679760000000  0.5701180000000  0.5224290000000 1.0
C      1  0.4365260000000  0.4645350000000  0.5395470000000 1.0
C      1  0.5116760000000  0.5675360000000  0.5554000000000 1.0
C      1  0.4598700000000  0.4169410000000  0.5313970000000 1.0
C      1  0.5496730000000  0.4782750000000  0.4669280000000 1.0
C      1  0.4443290000000  0.5107070000000  0.5933840000000 1.0
C      1  0.5260790000000  0.4852780000000  0.6073010000000 1.0
C      1  0.3961220000000  0.5066350000000  0.4839670000000 1.0
C      1  0.5814540000000  0.5388340000000  0.5781330000000 1.0
C      1  0.4916400000000  0.6010810000000  0.4794690000000 1.0
C      1  0.4555220000000  0.4761650000000  0.4038640000000 1.0
C      1  0.4868680000000  0.5316480000000  0.6159710000000 1.0
C      1  0.4840750000000  0.5273310000000  0.5051840000000 1.0
C      1  0.5552220000000  0.5517170000000  0.5905140000000 1.0
C      1  0.5253760000000  0.5172470000000  0.5774950000000 1.0
C      1  0.5489030000000  0.5233250000000  0.5557570000000 1.0
C      1  0.4112650000000  0.5320930000000  0.5396780000000 1.0
C      1  0.5183580000000  0.5267790000000  0.4804060000000 1.0
C      1  0.5119760000000  0.4817130000000  0.3930860000000 1.0
C      1  0.6076200000000  0.5312590000000  0.4770000000000 1.0
C      1  0.4629800000000  0.4873610000000  0.4464970000000 1.0
C      1  0.4949200000000  0.5420420000000  0.5412750000000 1.0
C      1  0.4475340000000  0.5347950000000  0.4923000000000 1.0
C      1  0.5388120000000  0.4279380000000  0.4411710000000 1.0
C      1  0.5098270000000  0.5621740000000  0.5853170000000 1.0
C      1  0.5410830000000  0.4113980000000  0.5380240000000 1.0
C      1  0.5415350000000  0.5778420000000  0.5423890000000 1.0
C      1  0.4879880000000  0.4923760000000  0.5477440000000 1.0
C      1  0.4922680000000  0.5654740000000  0.5194660000000 1.0
C      1  0.5722390000000  0.5021900000000  0.4756210000000 1.0
C      1  0.5770530000000  0.4532610000000  0.4990980000000 1.0
C      1  0.5996970000000  0.5590140000000  0.4889070000000 1.0
C      1  0.5809810000000  0.4616300000000  0.5379780000000 1.0
C      1  0.4270660000000  0.4248040000000  0.5271330000000 1.0
C      1  0.5792280000000  0.5646180000000  0.4523880000000 1.0
C      1  0.5188020000000  0.4414150000000  0.5869380000000 1.0
C      1  0.4603940000000  0.4690570000000  0.4734340000000 1.0
C      1  0.5914420000000  0.4770700000000  0.5598990000000 1.0
C      1  0.4789400000000  0.4760820000000  0.5010820000000 1.0
C      1  0.5596230000000  0.5551870000000  0.5577690000000 1.0
C      1  0.4282750000000  0.4764380000000  0.4072440000000 1.0
C      1  0.5669590000000  0.5657880000000  0.4827010000000 1.0
C      1  0.5289500000000  0.4596790000000  0.4483880000000 1.0
C      1  0.6034070000000  0.4991070000000  0.4888860000000 1.0
C      1  0.4198610000000  0.4968420000000  0.5560140000000 1.0
C      1  0.5355950000000  0.4736450000000  0.5577450000000 1.0
C      1  0.5306040000000  0.4332360000000  0.4826660000000 1.0
C      1  0.5435100000000  0.5961110000000  0.4463790000000 1.0
C      1  0.4727330000000  0.5834970000000  0.5016010000000 1.0
C      1  0.4623710000000  0.5492820000000  0.5195350000000 1.0
C      1  0.5108630000000  0.4145000000000  0.5120100000000 1.0
C      1  0.4441800000000  0.4423680000000  0.4642490000000 1.0
C      1  0.5113210000000  0.5175330000000  0.4319750000000 1.0
C      1  0.4980080000000  0.5095010000000  0.4030650000000 1.0
C      1  0.5837290000000  0.4241270000000  0.5128790000000 1.0
C      1  0.4257170000000  0.4930230000000  0.4617720000000 1.0
C      1  0.4852240000000  0.4716340000000  0.4035650000000 1.0
C      1  0.3886720000000  0.4601160000000  0.5144580000000 1.0
C      1  0.5111000000000  0.5908310000000  0.4570930000000 1.0
C      1  0.5041570000000  0.4458530000000  0.4671050000000 1.0
C      1  0.5725470000000  0.5181410000000  0.5056580000000 1.0
C      1  0.4349030000000  0.4879480000000  0.5803380000000 1.0
C      1  0.4772300000000  0.5957770000000  0.5516140000000 1.0
C      1  0.4037350000000  0.4340890000000  0.5735170000000 1.0
C      1  0.4292300000000  0.5724240000000  0.5322640000000 1.0
C      1  0.4642100000000  0.4328320000000  0.5742960000000 1.0
C      1  0.5907160000000  0.4887270000000  0.4501490000000 1.0
C      1  0.5555610000000  0.4773750000000  0.4138620000000 1.0
C      1  0.4947210000000  0.4367830000000  0.4195270000000 1.0
C      1  0.5017690000000  0.4734190000000  0.4332510000000 1.0
C      1  0.5266300000000  0.4392010000000  0.5272500000000 1.0
C      1  0.5179240000000  0.4072000000000  0.4555760000000 1.0
C      1  0.5137620000000  0.5658100000000  0.4937220000000 1.0
C      1  0.5682690000000  0.5864890000000  0.4371660000000 1.0
C      1  0.4679270000000  0.3872170000000  0.5169870000000 1.0
C      1  0.5098300000000  0.4595270000000  0.5646230000000 1.0
C      1  0.4185530000000  0.4389690000000  0.5529680000000 1.0
C      1  0.4815060000000  0.4619410000000  0.5532040000000 1.0
C      1  0.4602710000000  0.5969170000000  0.4670280000000 1.0
C      1  0.4385760000000  0.5464260000000  0.5521120000000 1.0
C      1  0.4082480000000  0.5426800000000  0.5072380000000 1.0
C      1  0.4891890000000  0.4271140000000  0.4912060000000 1.0
C      1  0.4426540000000  0.5059820000000  0.5082030000000 1.0
C      1  0.4996610000000  0.4799690000000  0.4665600000000 1.0
C      1  0.5631860000000  0.4058160000000  0.5158850000000 1.0
C      1  0.4907560000000  0.4213900000000  0.4476480000000 1.0
C      1  0.5154760000000  0.4201880000000  0.5605770000000 1.0
C      1  0.4349270000000  0.5455550000000  0.4267900000000 1.0
C      1  0.5057390000000  0.5493040000000  0.4581950000000 1.0
C      1  0.5061640000000  0.5963810000000  0.5405690000000 1.0
C      1  0.4589240000000  0.4265210000000  0.4418870000000 1.0
C      1  0.4649410000000  0.5675480000000  0.5482290000000 1.0
C      1  0.4503360000000  0.5178650000000  0.3914440000000 1.0
C      1  0.5533070000000  0.4491630000000  0.5459780000000 1.0
C      1  0.4207510000000  0.5669880000000  0.4649120000000 1.0
C      1  0.4124960000000  0.4435630000000  0.5027580000000 1.0
C      1  0.4674290000000  0.5289200000000  0.5564280000000 1.0
C      1  0.4104590000000  0.4712260000000  0.4829600000000 1.0
C      1  0.4176680000000  0.4540750000000  0.4576180000000 1.0
C      1  0.5563510000000  0.4093630000000  0.4636960000000 1.0
C      1  0.5382460000000  0.5170300000000  0.5275740000000 1.0
C      1  0.5452400000000  0.4920370000000  0.5812190000000 1.0
C      1  0.5243380000000  0.4012360000000  0.4860490000000 1.0
C      1  0.4640000000000  0.5613780000000  0.4243870000000 1.0
C      1  0.5326440000000  0.4651100000000  0.4034580000000 1.0
C      1  0.5594960000000  0.5445100000000  0.5062010000000 1.0
C      1  0.6321610000000  0.5077270000000  0.4769160000000 1.0
C      1  0.5592790000000  0.4401120000000  0.4732560000000 1.0
C      1  0.4254490000000  0.5655400000000  0.5057300000000 1.0
C      1  0.4627950000000  0.3781010000000  0.4848930000000 1.0
C      1  0.5329720000000  0.6131030000000  0.5303950000000 1.0
C      1  0.4466100000000  0.5076500000000  0.5477870000000 1.0
C      1  0.4390480000000  0.5398520000000  0.5854770000000 1.0
C      1  0.4780840000000  0.4455070000000  0.5284740000000 1.0
C      1  0.4113720000000  0.5095350000000  0.5142260000000 1.0
C      1  0.4743500000000  0.5198820000000  0.5884070000000 1.0
C      1  0.5243020000000  0.4731690000000  0.4889850000000 1.0
C      1  0.5073900000000  0.6072260000000  0.5079890000000 1.0
C      1  0.5300570000000  0.5401100000000  0.5066750000000 1.0
C      1  0.5184790000000  0.5552130000000  0.4207940000000 1.0
C      1  0.4505360000000  0.4504960000000  0.5119220000000 1.0
C      1  0.5366410000000  0.5719870000000  0.4693350000000 1.0
C      1  0.4049640000000  0.5186200000000  0.4533920000000 1.0
C      1  0.5483750000000  0.4239800000000  0.5682890000000 1.0
C      1  0.5323950000000  0.5851710000000  0.5125350000000 1.0
C      1  0.5543350000000  0.3938680000000  0.4918010000000 1.0
C      1  0.4621780000000  0.5596410000000  0.5813610000000 1.0
C      1  0.5086370000000  0.5057330000000  0.6118470000000 1.0
C      1  0.4171120000000  0.5466980000000  0.4477900000000 1.0
C      1  0.5034830000000  0.4534850000000  0.5073180000000 1.0
C      1  0.4435420000000  0.4075430000000  0.4247750000000 1.0
C      1  0.5460600000000  0.4856980000000  0.5317280000000 1.0
C      1  0.5211710000000  0.5046000000000  0.4572350000000 1.0
C      1  0.5925170000000  0.4805860000000  0.5121610000000 1.0
C      1  0.4973650000000  0.5076270000000  0.5721060000000 1.0
C      1  0.4393280000000  0.4771810000000  0.4958470000000 1.0
C      1  0.4939410000000  0.5714560000000  0.4369660000000 1.0
C      1  0.4836280000000  0.4148730000000  0.5558680000000 1.0
C      1  0.4676300000000  0.5045140000000  0.4175050000000 1.0
C      1  0.5503650000000  0.5207530000000  0.4573650000000 1.0
C      1  0.4858010000000  0.5494260000000  0.4834190000000 1.0
C      1  0.5742880000000  0.5006040000000  0.5325050000000 1.0
C      1  0.5288760000000  0.5432770000000  0.5931770000000 1.0
C      1  0.4570520000000  0.6080530000000  0.5141890000000 1.0
C      1  0.4896310000000  0.5425100000000  0.4098100000000 1.0
C      1  0.5357490000000  0.5210280000000  0.4095400000000 1.0
C      1  0.4946450000000  0.3977080000000  0.5310160000000 1.0
C      1  0.4988300000000  0.5124310000000  0.5282200000000 1.0
C      1  0.5929810000000  0.5754850000000  0.5121960000000 1.0
C      1  0.4522780000000  0.5096320000000  0.4698730000000 1.0
C      1  0.5483940000000  0.4672020000000  0.5091160000000 1.0
C      1  0.4658180000000  0.5511360000000  0.4567680000000 1.0
C      1  0.4320470000000  0.5221990000000  0.4129670000000 1.0
C      1  0.5584610000000  0.5054670000000  0.4138280000000 1.0
C      1  0.4803150000000  0.5021720000000  0.4836590000000 1.0
C      1  0.5222870000000  0.4568340000000  0.6103790000000 1.0
C      1  0.5765910000000  0.5155770000000  0.4382650000000 1.0
C      1  0.4793690000000  0.5276360000000  0.4380380000000 1.0
C      1  0.5864630000000  0.4590730000000  0.4656700000000 1.0
C      1  0.5233900000000  0.4401630000000  0.4141560000000 1.0
C      1  0.4608640000000  0.4855550000000  0.5283960000000 1.0
C      1  0.4183910000000  0.4976930000000  0.4296760000000 1.0
C      1  0.4526490000000  0.4632070000000  0.5694680000000 1.0
C      1  0.4500060000000  0.5671980000000  0.4822480000000 1.0
C      1  0.4392200000000  0.4261230000000  0.4910860000000 1.0
C      1  0.5187720000000  0.5022060000000  0.5039030000000 1.0
C      1  0.5930030000000  0.5394630000000  0.4496100000000 1.0
C      1  0.4850250000000  0.5573750000000  0.5967690000000 1.0
C      1  0.5668400000000  0.4681270000000  0.4393840000000 1.0
C      1  0.5363910000000  0.5462690000000  0.4483200000000 1.0
END
