TITL C-2848507-1641-525 9.44213995204073e-05 125000 -841.598387339088 0 0 151 (C1) n - 1
REM
REM in /home/bkarasulu/work/CARBON/AIRSS/Generating-Clusters/AIREBO/with-SteepDescent/Only-C1/SD-CG-opt/Try1-1.4A-POS3A/HFTN-CG
REM
REM
REM
REM
REM
REM ./C.cell (11c1c37f851c82e70ff6c80c92926a4b)
REM
REM compiler GCC version 9.2.1 20190827 (Red Hat 9.2.1-1)
REM options -cpp -mtune=generic -march=x86-64 -g -O0 -fpre-include=/usr/include/finclude/math-vector-fortran.h
REM seed -1798091995 1261893794 1662041062 -703806045 1021588041 -1124878340 -964522267 -279648821 -1766513467 -1067960990 388191425 -1729971142 -1669992980 -877585235 -1131875827 561499867 -941572051 144713620 1605933184 2075417500 1837955715 -551424015 -1760435890 -2137905022 -1980352642 2007216467 -544985134 520041901 -106866430 524748317 -603638358 -51716646 -755264521
REM
CELL 1.54180   50.00000   50.00000   50.00000   90.00000   90.00000   90.00000
LATT -1
SFAC C  
C      1  0.5825280000000  0.4215670000000  0.5132750000000 1.0
C      1  0.5532220000000  0.5702840000000  0.4140240000000 1.0
C      1  0.5511100000000  0.5290850000000  0.5366510000000 1.0
C      1  0.4971480000000  0.4042790000000  0.5408410000000 1.0
C      1  0.5630660000000  0.4003220000000  0.5061440000000 1.0
C      1  0.5146150000000  0.5179110000000  0.5099350000000 1.0
C      1  0.5557230000000  0.5756080000000  0.5420910000000 1.0
C      1  0.5917170000000  0.5453460000000  0.5110830000000 1.0
C      1  0.4411100000000  0.5045330000000  0.5208950000000 1.0
C      1  0.4691010000000  0.5896920000000  0.5113620000000 1.0
C      1  0.5387740000000  0.4011720000000  0.5229690000000 1.0
C      1  0.4660540000000  0.4805750000000  0.5689420000000 1.0
C      1  0.5289410000000  0.4057880000000  0.4391000000000 1.0
C      1  0.5201200000000  0.4294860000000  0.5201210000000 1.0
C      1  0.4751810000000  0.4102240000000  0.4687110000000 1.0
C      1  0.5430880000000  0.4712710000000  0.4570540000000 1.0
C      1  0.5829550000000  0.5960300000000  0.5050910000000 1.0
C      1  0.5104480000000  0.4754380000000  0.5441340000000 1.0
C      1  0.4687820000000  0.5826120000000  0.5408360000000 1.0
C      1  0.5565530000000  0.5650640000000  0.4422540000000 1.0
C      1  0.5674930000000  0.4996680000000  0.4839580000000 1.0
C      1  0.4428060000000  0.5624120000000  0.5494080000000 1.0
C      1  0.5782020000000  0.4446350000000  0.4931490000000 1.0
C      1  0.5409740000000  0.4508440000000  0.5364290000000 1.0
C      1  0.5789730000000  0.5554000000000  0.4533930000000 1.0
C      1  0.5806610000000  0.5414990000000  0.4832420000000 1.0
C      1  0.5394380000000  0.5639420000000  0.4838950000000 1.0
C      1  0.4721480000000  0.5663500000000  0.4379110000000 1.0
C      1  0.4911000000000  0.4934520000000  0.5737810000000 1.0
C      1  0.4677570000000  0.5659490000000  0.5706560000000 1.0
C      1  0.4238950000000  0.5427840000000  0.5896430000000 1.0
C      1  0.3973400000000  0.4817170000000  0.4543960000000 1.0
C      1  0.4938740000000  0.4845110000000  0.4419550000000 1.0
C      1  0.4903260000000  0.4994370000000  0.4787290000000 1.0
C      1  0.4915570000000  0.5761350000000  0.4897050000000 1.0
C      1  0.4992260000000  0.5746460000000  0.4568050000000 1.0
C      1  0.4325830000000  0.4725390000000  0.5225190000000 1.0
C      1  0.5199820000000  0.4901250000000  0.4739060000000 1.0
C      1  0.4781840000000  0.5509830000000  0.5074510000000 1.0
C      1  0.4809620000000  0.5248610000000  0.4623060000000 1.0
C      1  0.5265610000000  0.5542170000000  0.4540560000000 1.0
C      1  0.5084540000000  0.6029210000000  0.4476500000000 1.0
C      1  0.5143930000000  0.5476260000000  0.5240930000000 1.0
C      1  0.5500910000000  0.4209390000000  0.4426650000000 1.0
C      1  0.4997210000000  0.5731070000000  0.5509240000000 1.0
C      1  0.4187120000000  0.4700700000000  0.4345970000000 1.0
C      1  0.4993080000000  0.5371040000000  0.4881880000000 1.0
C      1  0.5778350000000  0.4212880000000  0.5428260000000 1.0
C      1  0.5189860000000  0.4618700000000  0.4870900000000 1.0
C      1  0.4155640000000  0.5469450000000  0.4988250000000 1.0
C      1  0.4368180000000  0.4972430000000  0.4709940000000 1.0
C      1  0.5520300000000  0.5469500000000  0.5105210000000 1.0
C      1  0.4788930000000  0.4587090000000  0.5266690000000 1.0
C      1  0.3950940000000  0.5307400000000  0.5191770000000 1.0
C      1  0.4720280000000  0.5430370000000  0.5881000000000 1.0
C      1  0.4430490000000  0.5041430000000  0.5630810000000 1.0
C      1  0.4029840000000  0.5068130000000  0.4337730000000 1.0
C      1  0.5354260000000  0.5016440000000  0.5273640000000 1.0
C      1  0.5177280000000  0.5379130000000  0.5565080000000 1.0
C      1  0.5062350000000  0.4061080000000  0.4607450000000 1.0
C      1  0.4027170000000  0.4984490000000  0.5117250000000 1.0
C      1  0.4263730000000  0.5425150000000  0.4506720000000 1.0
C      1  0.4594200000000  0.4344530000000  0.5016720000000 1.0
C      1  0.5124300000000  0.5079920000000  0.5516240000000 1.0
C      1  0.4541400000000  0.5086860000000  0.4929420000000 1.0
C      1  0.4016530000000  0.5350320000000  0.5489240000000 1.0
C      1  0.5736450000000  0.5725920000000  0.5161970000000 1.0
C      1  0.4133910000000  0.4597960000000  0.4975110000000 1.0
C      1  0.4491910000000  0.5424230000000  0.4292350000000 1.0
C      1  0.5926740000000  0.5267340000000  0.5318150000000 1.0
C      1  0.5852650000000  0.4964300000000  0.5289170000000 1.0
C      1  0.5060150000000  0.5447010000000  0.4064480000000 1.0
C      1  0.4545830000000  0.4316670000000  0.5497030000000 1.0
C      1  0.4608620000000  0.5817680000000  0.4648300000000 1.0
C      1  0.4707610000000  0.5161080000000  0.5474320000000 1.0
C      1  0.3942910000000  0.4819320000000  0.4831730000000 1.0
C      1  0.4296290000000  0.4665880000000  0.4726980000000 1.0
C      1  0.5143650000000  0.4580990000000  0.4476510000000 1.0
C      1  0.4310600000000  0.4420380000000  0.5384570000000 1.0
C      1  0.5182830000000  0.5716760000000  0.5052140000000 1.0
C      1  0.5512100000000  0.4564140000000  0.5812650000000 1.0
C      1  0.4541900000000  0.4838470000000  0.4466350000000 1.0
C      1  0.5980140000000  0.5074620000000  0.4715050000000 1.0
C      1  0.5293480000000  0.5863110000000  0.5407020000000 1.0
C      1  0.5246070000000  0.6021800000000  0.5168880000000 1.0
C      1  0.4811310000000  0.5413960000000  0.4189470000000 1.0
C      1  0.5301630000000  0.5430170000000  0.4221410000000 1.0
C      1  0.4157730000000  0.5057070000000  0.5424360000000 1.0
C      1  0.4587380000000  0.5985330000000  0.4855940000000 1.0
C      1  0.4598350000000  0.5487440000000  0.4713300000000 1.0
C      1  0.5167940000000  0.5030320000000  0.4058620000000 1.0
C      1  0.4356090000000  0.4153950000000  0.4295760000000 1.0
C      1  0.4965390000000  0.5028590000000  0.5997510000000 1.0
C      1  0.4477460000000  0.5398920000000  0.5021470000000 1.0
C      1  0.4746610000000  0.4573760000000  0.4491450000000 1.0
C      1  0.5167930000000  0.5094670000000  0.4391360000000 1.0
C      1  0.5203160000000  0.4020680000000  0.4880060000000 1.0
C      1  0.4456690000000  0.5346880000000  0.5359300000000 1.0
C      1  0.5740660000000  0.4803360000000  0.4567610000000 1.0
C      1  0.5276770000000  0.5234580000000  0.5856050000000 1.0
C      1  0.4273900000000  0.5200780000000  0.4177120000000 1.0
C      1  0.5233530000000  0.5235170000000  0.4683500000000 1.0
C      1  0.6010760000000  0.5329690000000  0.4578440000000 1.0
C      1  0.4817080000000  0.4903940000000  0.5335550000000 1.0
C      1  0.5448760000000  0.5124450000000  0.4226060000000 1.0
C      1  0.5774550000000  0.4699620000000  0.5754810000000 1.0
C      1  0.4608580000000  0.4297590000000  0.4516980000000 1.0
C      1  0.5883210000000  0.5373580000000  0.5566190000000 1.0
C      1  0.5351960000000  0.4351630000000  0.5858640000000 1.0
C      1  0.5916280000000  0.4679690000000  0.4830020000000 1.0
C      1  0.4343260000000  0.4487050000000  0.4489890000000 1.0
C      1  0.5044500000000  0.4374340000000  0.4701690000000 1.0
C      1  0.6012350000000  0.4837990000000  0.5033840000000 1.0
C      1  0.5101610000000  0.3910740000000  0.5171490000000 1.0
C      1  0.4691970000000  0.4035180000000  0.5015740000000 1.0
C      1  0.4971850000000  0.5324000000000  0.5979620000000 1.0
C      1  0.4284780000000  0.4352540000000  0.5093810000000 1.0
C      1  0.4839560000000  0.5459490000000  0.5378010000000 1.0
C      1  0.5603170000000  0.5514290000000  0.5603430000000 1.0
C      1  0.5470070000000  0.4538140000000  0.5030960000000 1.0
C      1  0.4474990000000  0.5267150000000  0.5876000000000 1.0
C      1  0.5381260000000  0.5538620000000  0.5807320000000 1.0
C      1  0.4776580000000  0.5129990000000  0.4328110000000 1.0
C      1  0.5591440000000  0.4847730000000  0.5104600000000 1.0
C      1  0.4681890000000  0.4528770000000  0.5646730000000 1.0
C      1  0.5618480000000  0.4876010000000  0.4258620000000 1.0
C      1  0.4156030000000  0.5162820000000  0.4620820000000 1.0
C      1  0.5475730000000  0.4675160000000  0.4118850000000 1.0
C      1  0.5517180000000  0.5261110000000  0.4835590000000 1.0
C      1  0.5092650000000  0.4609490000000  0.5150620000000 1.0
C      1  0.4968030000000  0.4810900000000  0.4015830000000 1.0
C      1  0.5190030000000  0.4226130000000  0.5594280000000 1.0
C      1  0.4927820000000  0.4281700000000  0.4997300000000 1.0
C      1  0.4284410000000  0.5613960000000  0.4745880000000 1.0
C      1  0.4698060000000  0.4102950000000  0.5349570000000 1.0
C      1  0.5451200000000  0.4224940000000  0.4899570000000 1.0
C      1  0.5540700000000  0.4400840000000  0.4650040000000 1.0
C      1  0.3989490000000  0.5214000000000  0.4866920000000 1.0
C      1  0.4585520000000  0.4660090000000  0.5015640000000 1.0
C      1  0.5188050000000  0.4645370000000  0.4162370000000 1.0
C      1  0.4387200000000  0.4902830000000  0.4187460000000 1.0
C      1  0.5518700000000  0.4257600000000  0.5510720000000 1.0
C      1  0.4705840000000  0.4767450000000  0.4756570000000 1.0
C      1  0.4843500000000  0.5060280000000  0.5083360000000 1.0
C      1  0.5180750000000  0.5753820000000  0.5774270000000 1.0
C      1  0.5500090000000  0.5090100000000  0.5641130000000 1.0
C      1  0.4166410000000  0.5530420000000  0.5640460000000 1.0
C      1  0.5775210000000  0.4919910000000  0.5592970000000 1.0
C      1  0.4965130000000  0.4458690000000  0.5529450000000 1.0
C      1  0.5408460000000  0.4765860000000  0.5579950000000 1.0
C      1  0.4704900000000  0.4891120000000  0.4105230000000 1.0
END
