TITL C-2847958-8115-274 -0.00251243623698421 125000 -600.980808166715 0 0 112 (C1) n - 1
REM
REM in /home/bkarasulu/work/CARBON/AIRSS/Generating-Clusters/AIREBO/with-SteepDescent/Only-C1/SD-CG-opt/Try1-1.4A-POS3A/HFTN-CG
REM
REM
REM
REM
REM
REM ./C.cell (11c1c37f851c82e70ff6c80c92926a4b)
REM
REM compiler GCC version 9.2.1 20190827 (Red Hat 9.2.1-1)
REM options -cpp -mtune=generic -march=x86-64 -g -O0 -fpre-include=/usr/include/finclude/math-vector-fortran.h
REM seed -543262262 297784271 526022681 -528522523 1752082947 447430191 996141882 -1237572012 -1203118727 -1970237217 -408186682 1738701768 1515818718 325874058 -448966612 -786123884 -1829334137 1293008465 -1572431086 -1905521164 -1411889487 -56130924 -1094100194 -1668078775 -1107351551 2092108284 751265183 -1808703885 656839185 810721339 188719239 1607552318 1850960208
REM
CELL 1.54180   50.00000   50.00000   50.00000   90.00000   90.00000   90.00000
LATT -1
SFAC C  
C      1  0.5561310000000  0.5331390000000  0.5370690000000 1.0
C      1  0.5922520000000  0.4380870000000  0.4852920000000 1.0
C      1  0.4267780000000  0.4092430000000  0.5042490000000 1.0
C      1  0.4661650000000  0.4378150000000  0.5161560000000 1.0
C      1  0.4580170000000  0.4245320000000  0.4694410000000 1.0
C      1  0.4563410000000  0.5379210000000  0.5525750000000 1.0
C      1  0.4974490000000  0.5287300000000  0.4546420000000 1.0
C      1  0.4914370000000  0.4773240000000  0.5354450000000 1.0
C      1  0.4857810000000  0.5103550000000  0.5083640000000 1.0
C      1  0.4569390000000  0.4929420000000  0.5037560000000 1.0
C      1  0.5425620000000  0.5457200000000  0.4284290000000 1.0
C      1  0.5302850000000  0.4407370000000  0.5445470000000 1.0
C      1  0.4497770000000  0.4217590000000  0.4962980000000 1.0
C      1  0.4837320000000  0.4234090000000  0.5634080000000 1.0
C      1  0.5436730000000  0.5642450000000  0.5377650000000 1.0
C      1  0.4729890000000  0.4961280000000  0.4406840000000 1.0
C      1  0.3949300000000  0.5153610000000  0.4817470000000 1.0
C      1  0.4934260000000  0.5156500000000  0.3892820000000 1.0
C      1  0.4771500000000  0.5809930000000  0.4723540000000 1.0
C      1  0.5122910000000  0.5292330000000  0.5170260000000 1.0
C      1  0.5882350000000  0.4881940000000  0.5113630000000 1.0
C      1  0.4829230000000  0.4135520000000  0.4595630000000 1.0
C      1  0.5436830000000  0.5169430000000  0.5125860000000 1.0
C      1  0.4886900000000  0.5545830000000  0.4343530000000 1.0
C      1  0.4542550000000  0.4883130000000  0.5779570000000 1.0
C      1  0.4695240000000  0.4229610000000  0.5432570000000 1.0
C      1  0.4587740000000  0.4806790000000  0.4107400000000 1.0
C      1  0.4811950000000  0.5030870000000  0.5752470000000 1.0
C      1  0.4575700000000  0.4782410000000  0.4757960000000 1.0
C      1  0.4589130000000  0.5184440000000  0.4538360000000 1.0
C      1  0.5053880000000  0.5656780000000  0.4795150000000 1.0
C      1  0.5261390000000  0.5493720000000  0.5837130000000 1.0
C      1  0.4497060000000  0.5261490000000  0.5027110000000 1.0
C      1  0.5851930000000  0.5081540000000  0.4932450000000 1.0
C      1  0.5311420000000  0.5072120000000  0.4714970000000 1.0
C      1  0.5193350000000  0.5544440000000  0.4505910000000 1.0
C      1  0.4282310000000  0.4770270000000  0.4491770000000 1.0
C      1  0.5111810000000  0.4576730000000  0.5915610000000 1.0
C      1  0.4307010000000  0.5537590000000  0.4743820000000 1.0
C      1  0.4196480000000  0.5775190000000  0.5280740000000 1.0
C      1  0.5806760000000  0.5551340000000  0.5075320000000 1.0
C      1  0.4289830000000  0.5529050000000  0.5065470000000 1.0
C      1  0.4820940000000  0.5028120000000  0.4085960000000 1.0
C      1  0.5486240000000  0.4594610000000  0.3960950000000 1.0
C      1  0.5287700000000  0.4498590000000  0.4440090000000 1.0
C      1  0.4845150000000  0.5308690000000  0.5874810000000 1.0
C      1  0.5438580000000  0.5599190000000  0.4049840000000 1.0
C      1  0.5622350000000  0.5343780000000  0.4898720000000 1.0
C      1  0.5189270000000  0.5048710000000  0.6034280000000 1.0
C      1  0.4988500000000  0.4485630000000  0.4704900000000 1.0
C      1  0.4526260000000  0.5753970000000  0.4826910000000 1.0
C      1  0.4469980000000  0.4517970000000  0.4570700000000 1.0
C      1  0.4367930000000  0.4841000000000  0.5371380000000 1.0
C      1  0.4916510000000  0.5756190000000  0.5558190000000 1.0
C      1  0.4900080000000  0.4810950000000  0.4660120000000 1.0
C      1  0.5495860000000  0.4750710000000  0.5381170000000 1.0
C      1  0.5146860000000  0.4582610000000  0.5213890000000 1.0
C      1  0.4284850000000  0.4958670000000  0.4750510000000 1.0
C      1  0.4931980000000  0.5491860000000  0.5349520000000 1.0
C      1  0.5300830000000  0.4436100000000  0.4830170000000 1.0
C      1  0.4743180000000  0.5499800000000  0.5701860000000 1.0
C      1  0.5479050000000  0.4291100000000  0.4984640000000 1.0
C      1  0.4937260000000  0.4397830000000  0.5029390000000 1.0
C      1  0.4793630000000  0.5880020000000  0.5262150000000 1.0
C      1  0.5107520000000  0.5007960000000  0.4476220000000 1.0
C      1  0.5441260000000  0.5579840000000  0.4736040000000 1.0
C      1  0.4463600000000  0.5092930000000  0.5448430000000 1.0
C      1  0.5763390000000  0.4914070000000  0.5374810000000 1.0
C      1  0.4765780000000  0.4499380000000  0.4448300000000 1.0
C      1  0.5550630000000  0.4451700000000  0.5239320000000 1.0
C      1  0.5397470000000  0.4704270000000  0.4200380000000 1.0
C      1  0.5103520000000  0.4358800000000  0.5716870000000 1.0
C      1  0.5254970000000  0.4867280000000  0.6246150000000 1.0
C      1  0.5751420000000  0.5174060000000  0.5485830000000 1.0
C      1  0.5111880000000  0.4140050000000  0.5020120000000 1.0
C      1  0.5607150000000  0.5253610000000  0.4355260000000 1.0
C      1  0.5090180000000  0.4781790000000  0.4247860000000 1.0
C      1  0.3909850000000  0.4694220000000  0.5380210000000 1.0
C      1  0.4211410000000  0.5270660000000  0.4633580000000 1.0
C      1  0.5080390000000  0.4856300000000  0.5791320000000 1.0
C      1  0.5172310000000  0.5809150000000  0.5337490000000 1.0
C      1  0.5373430000000  0.4166720000000  0.5654180000000 1.0
C      1  0.5038890000000  0.4891890000000  0.4941850000000 1.0
C      1  0.5716170000000  0.4185100000000  0.4857540000000 1.0
C      1  0.4846670000000  0.4634230000000  0.4217890000000 1.0
C      1  0.5193210000000  0.5148580000000  0.5464270000000 1.0
C      1  0.5578270000000  0.4768990000000  0.4879630000000 1.0
C      1  0.5301310000000  0.4732210000000  0.4686740000000 1.0
C      1  0.5577120000000  0.5847370000000  0.4724670000000 1.0
C      1  0.5094060000000  0.4254740000000  0.4478660000000 1.0
C      1  0.5805780000000  0.5236400000000  0.4633170000000 1.0
C      1  0.5190870000000  0.4602020000000  0.6177090000000 1.0
C      1  0.4611350000000  0.4674900000000  0.5233400000000 1.0
C      1  0.5033840000000  0.5846190000000  0.5057970000000 1.0
C      1  0.5102660000000  0.5316120000000  0.5988090000000 1.0
C      1  0.4790540000000  0.5069790000000  0.5415320000000 1.0
C      1  0.4638050000000  0.5422650000000  0.4331890000000 1.0
C      1  0.4356800000000  0.4927770000000  0.4267480000000 1.0
C      1  0.5211970000000  0.4850700000000  0.5501140000000 1.0
C      1  0.5726340000000  0.5688570000000  0.5268980000000 1.0
C      1  0.4526060000000  0.5754630000000  0.5160730000000 1.0
C      1  0.5330350000000  0.4845310000000  0.5099530000000 1.0
C      1  0.5802620000000  0.4600590000000  0.5017000000000 1.0
C      1  0.5212470000000  0.5359560000000  0.4857450000000 1.0
C      1  0.4640050000000  0.5454030000000  0.5239390000000 1.0
C      1  0.4109720000000  0.4818270000000  0.5246770000000 1.0
C      1  0.4754590000000  0.5274090000000  0.4805430000000 1.0
C      1  0.5219610000000  0.5463380000000  0.5529660000000 1.0
C      1  0.5611540000000  0.4973450000000  0.4634450000000 1.0
C      1  0.5567450000000  0.4932770000000  0.4312570000000 1.0
C      1  0.4335940000000  0.5262210000000  0.4325150000000 1.0
C      1  0.4064640000000  0.4931090000000  0.4995860000000 1.0
END
