TITL C-2848501-3133-279 -0.00157682470164697 125000 -430.680908296651 0 0 80 (C1) n - 1
REM
REM in /home/bkarasulu/work/CARBON/AIRSS/Generating-Clusters/AIREBO/with-SteepDescent/Only-C1/SD-CG-opt/Try1-1.4A-POS3A/HFTN-CG
REM
REM
REM
REM
REM
REM ./C.cell (11c1c37f851c82e70ff6c80c92926a4b)
REM
REM compiler GCC version 9.2.1 20190827 (Red Hat 9.2.1-1)
REM options -cpp -mtune=generic -march=x86-64 -g -O0 -fpre-include=/usr/include/finclude/math-vector-fortran.h
REM seed 36573328 920715915 1857779341 1624743966 417744680 -1781244946 -2029975952 -508194473 1967679140 -685752805 -1570882442 886986252 2021333684 -1625248276 -199852655 356814014 -824275253 -2113285273 -535979623 1728533821 912433589 -1409827252 -186371021 1257846400 280720737 2089525839 1282245546 -2042307280 -1333307697 1723992911 -866226543 316697347 1551484150
REM
CELL 1.54180   50.00000   50.00000   50.00000   90.00000   90.00000   90.00000
LATT -1
SFAC C  
C      1  0.4621350000000  0.4998810000000  0.4306880000000 1.0
C      1  0.4411160000000  0.4888030000000  0.4461440000000 1.0
C      1  0.5537850000000  0.5176640000000  0.5278950000000 1.0
C      1  0.5268660000000  0.5115500000000  0.5440840000000 1.0
C      1  0.4638370000000  0.4311840000000  0.5240420000000 1.0
C      1  0.4872590000000  0.4518980000000  0.5106880000000 1.0
C      1  0.4158780000000  0.4959700000000  0.4858010000000 1.0
C      1  0.5910920000000  0.5238990000000  0.5156560000000 1.0
C      1  0.4421280000000  0.4548510000000  0.4823900000000 1.0
C      1  0.4382810000000  0.5141310000000  0.5352010000000 1.0
C      1  0.4470150000000  0.5314080000000  0.4702610000000 1.0
C      1  0.4379430000000  0.4688700000000  0.5351770000000 1.0
C      1  0.5192290000000  0.4287420000000  0.5043280000000 1.0
C      1  0.4568870000000  0.5575370000000  0.4899480000000 1.0
C      1  0.5090800000000  0.4234480000000  0.4432630000000 1.0
C      1  0.5044820000000  0.5310040000000  0.5706790000000 1.0
C      1  0.5263940000000  0.5637940000000  0.4779550000000 1.0
C      1  0.4914240000000  0.5560060000000  0.5532150000000 1.0
C      1  0.4986790000000  0.4748890000000  0.5658570000000 1.0
C      1  0.5122460000000  0.4334270000000  0.4747000000000 1.0
C      1  0.5380440000000  0.5336940000000  0.4814310000000 1.0
C      1  0.5744590000000  0.4559350000000  0.5058540000000 1.0
C      1  0.5408930000000  0.5585640000000  0.4495430000000 1.0
C      1  0.5304080000000  0.4702600000000  0.5682390000000 1.0
C      1  0.5453420000000  0.4904160000000  0.5557610000000 1.0
C      1  0.4454640000000  0.4615260000000  0.4550230000000 1.0
C      1  0.4951330000000  0.5005530000000  0.4430610000000 1.0
C      1  0.4948700000000  0.4674740000000  0.4509260000000 1.0
C      1  0.5015440000000  0.5242780000000  0.4941160000000 1.0
C      1  0.4719030000000  0.5306980000000  0.5486370000000 1.0
C      1  0.5235830000000  0.5798660000000  0.5039960000000 1.0
C      1  0.5386810000000  0.5641610000000  0.5287390000000 1.0
C      1  0.4327960000000  0.4764210000000  0.5024270000000 1.0
C      1  0.5283840000000  0.5425290000000  0.5507090000000 1.0
C      1  0.4410660000000  0.5637140000000  0.5275330000000 1.0
C      1  0.4709760000000  0.4379470000000  0.5976270000000 1.0
C      1  0.5305450000000  0.5097330000000  0.5043640000000 1.0
C      1  0.4422690000000  0.5426900000000  0.5486480000000 1.0
C      1  0.4289740000000  0.5070000000000  0.4644890000000 1.0
C      1  0.4602720000000  0.4927150000000  0.5444760000000 1.0
C      1  0.5026150000000  0.4678740000000  0.5337280000000 1.0
C      1  0.4806850000000  0.5540180000000  0.4579960000000 1.0
C      1  0.4565250000000  0.5845080000000  0.5193290000000 1.0
C      1  0.5004810000000  0.4536920000000  0.4073910000000 1.0
C      1  0.5588210000000  0.4701560000000  0.4822890000000 1.0
C      1  0.4791870000000  0.5166000000000  0.5185610000000 1.0
C      1  0.5563260000000  0.4521440000000  0.4574090000000 1.0
C      1  0.5638700000000  0.4799710000000  0.5360110000000 1.0
C      1  0.5372260000000  0.4342530000000  0.4531680000000 1.0
C      1  0.5035650000000  0.4990120000000  0.5318270000000 1.0
C      1  0.4808390000000  0.4911050000000  0.4861950000000 1.0
C      1  0.5266130000000  0.4530490000000  0.5176230000000 1.0
C      1  0.4897830000000  0.4356930000000  0.4271910000000 1.0
C      1  0.4833440000000  0.5731320000000  0.5045560000000 1.0
C      1  0.5075340000000  0.4772880000000  0.4209270000000 1.0
C      1  0.5549840000000  0.4497810000000  0.5314610000000 1.0
C      1  0.5054550000000  0.5321840000000  0.4360340000000 1.0
C      1  0.5418280000000  0.4458200000000  0.5610310000000 1.0
C      1  0.4959770000000  0.5537610000000  0.4819820000000 1.0
C      1  0.4609060000000  0.4384880000000  0.4938250000000 1.0
C      1  0.4839250000000  0.5041130000000  0.5661440000000 1.0
C      1  0.4740560000000  0.5152990000000  0.4654110000000 1.0
C      1  0.4683140000000  0.4496960000000  0.4435430000000 1.0
C      1  0.5656510000000  0.5542310000000  0.5185310000000 1.0
C      1  0.5638450000000  0.5028210000000  0.4765510000000 1.0
C      1  0.4510810000000  0.5341380000000  0.5108850000000 1.0
C      1  0.4308790000000  0.5613360000000  0.4706550000000 1.0
C      1  0.4441880000000  0.4428130000000  0.5404900000000 1.0
C      1  0.5169730000000  0.5101850000000  0.4672800000000 1.0
C      1  0.4836160000000  0.4547800000000  0.5832080000000 1.0
C      1  0.5719360000000  0.4965980000000  0.5090400000000 1.0
C      1  0.5330940000000  0.5336990000000  0.4375960000000 1.0
C      1  0.4613940000000  0.4890330000000  0.5105320000000 1.0
C      1  0.5688180000000  0.5325630000000  0.4923130000000 1.0
C      1  0.5305710000000  0.4788760000000  0.4957330000000 1.0
C      1  0.5022300000000  0.4648400000000  0.4830360000000 1.0
C      1  0.5467620000000  0.5098650000000  0.4508910000000 1.0
C      1  0.5785590000000  0.5363180000000  0.5419640000000 1.0
C      1  0.5047180000000  0.5657810000000  0.5285570000000 1.0
C      1  0.4714670000000  0.5313550000000  0.4355360000000 1.0
END
