TITL C-2848509-3138-165 0.00134573429999957 125000 -422.580952623885 0 0 80 (C1) n - 1
REM
REM in /home/bkarasulu/work/CARBON/AIRSS/Generating-Clusters/AIREBO/with-SteepDescent/Only-C1/SD-CG-opt/Try1-1.4A-POS3A/HFTN-CG
REM
REM
REM
REM
REM
REM ./C.cell (11c1c37f851c82e70ff6c80c92926a4b)
REM
REM compiler GCC version 9.2.1 20190827 (Red Hat 9.2.1-1)
REM options -cpp -mtune=generic -march=x86-64 -g -O0 -fpre-include=/usr/include/finclude/math-vector-fortran.h
REM seed -408057770 -1975499076 533847366 -991018853 -437097832 464712424 1737059932 -1740372622 893931427 -1186158039 -976188546 -1546554175 1572114544 730771813 66837063 1576945479 -330902153 -2005435185 -808158512 2089039692 -1012706243 -703284047 1767254129 -1672256085 -2007718689 -1348159098 586494961 1293889625 238520950 1981904166 2060202497 -2107819032 937512133
REM
CELL 1.54180   50.00000   50.00000   50.00000   90.00000   90.00000   90.00000
LATT -1
SFAC C  
C      1  0.5130060000000  0.4195080000000  0.4814880000000 1.0
C      1  0.5024600000000  0.5065470000000  0.4327600000000 1.0
C      1  0.4959650000000  0.5712030000000  0.4788530000000 1.0
C      1  0.5738660000000  0.5203530000000  0.5511570000000 1.0
C      1  0.4401320000000  0.4375610000000  0.5078220000000 1.0
C      1  0.4558140000000  0.4763600000000  0.5047800000000 1.0
C      1  0.5975980000000  0.4463920000000  0.4780520000000 1.0
C      1  0.5030950000000  0.4725460000000  0.4593340000000 1.0
C      1  0.5235850000000  0.5100060000000  0.5031830000000 1.0
C      1  0.5186430000000  0.3983110000000  0.5037440000000 1.0
C      1  0.5823140000000  0.5069190000000  0.5273240000000 1.0
C      1  0.4732230000000  0.4935830000000  0.5253950000000 1.0
C      1  0.4470870000000  0.5601610000000  0.4882210000000 1.0
C      1  0.4821950000000  0.5551570000000  0.5296640000000 1.0
C      1  0.4830480000000  0.4476280000000  0.4477420000000 1.0
C      1  0.4638040000000  0.4813350000000  0.5550900000000 1.0
C      1  0.5557720000000  0.5283690000000  0.4553870000000 1.0
C      1  0.5466320000000  0.5230640000000  0.5502510000000 1.0
C      1  0.5198450000000  0.5411670000000  0.4898740000000 1.0
C      1  0.5289200000000  0.5700090000000  0.4743010000000 1.0
C      1  0.5369080000000  0.4888850000000  0.4809840000000 1.0
C      1  0.5367160000000  0.5938220000000  0.4616150000000 1.0
C      1  0.5256950000000  0.5338910000000  0.4575020000000 1.0
C      1  0.5266560000000  0.5462390000000  0.5499580000000 1.0
C      1  0.4236370000000  0.5101820000000  0.4378910000000 1.0
C      1  0.4809010000000  0.5212190000000  0.5279510000000 1.0
C      1  0.5852280000000  0.5242820000000  0.5049470000000 1.0
C      1  0.5482630000000  0.5533000000000  0.5241780000000 1.0
C      1  0.5274040000000  0.4902460000000  0.5606210000000 1.0
C      1  0.4532490000000  0.5446150000000  0.5440680000000 1.0
C      1  0.4097150000000  0.4971290000000  0.5102160000000 1.0
C      1  0.5105880000000  0.5460350000000  0.4339380000000 1.0
C      1  0.4512620000000  0.5280200000000  0.4778340000000 1.0
C      1  0.4895010000000  0.4156030000000  0.5065310000000 1.0
C      1  0.5855880000000  0.4930530000000  0.4647080000000 1.0
C      1  0.4375470000000  0.4841460000000  0.4548690000000 1.0
C      1  0.5594830000000  0.4737940000000  0.4943310000000 1.0
C      1  0.4190600000000  0.5279370000000  0.5014270000000 1.0
C      1  0.4770870000000  0.5457100000000  0.4666150000000 1.0
C      1  0.4538410000000  0.4974910000000  0.4287950000000 1.0
C      1  0.4185260000000  0.4831830000000  0.4807130000000 1.0
C      1  0.4286170000000  0.4743540000000  0.5182720000000 1.0
C      1  0.5590590000000  0.4421550000000  0.5535890000000 1.0
C      1  0.5171980000000  0.4664230000000  0.5386050000000 1.0
C      1  0.5563070000000  0.5503770000000  0.4768390000000 1.0
C      1  0.4917150000000  0.4659190000000  0.5208920000000 1.0
C      1  0.4226010000000  0.5179880000000  0.4696840000000 1.0
C      1  0.5363780000000  0.5004710000000  0.5302330000000 1.0
C      1  0.5971040000000  0.5135910000000  0.4812010000000 1.0
C      1  0.4938020000000  0.4854750000000  0.5585850000000 1.0
C      1  0.4580580000000  0.4423650000000  0.4634560000000 1.0
C      1  0.4283730000000  0.5159090000000  0.5320060000000 1.0
C      1  0.4856060000000  0.5480340000000  0.4373430000000 1.0
C      1  0.5021410000000  0.4825040000000  0.5903400000000 1.0
C      1  0.5098250000000  0.4374440000000  0.4620910000000 1.0
C      1  0.5477070000000  0.4616260000000  0.5405690000000 1.0
C      1  0.5625600000000  0.4822480000000  0.5225650000000 1.0
C      1  0.4939560000000  0.4615610000000  0.4901990000000 1.0
C      1  0.4256180000000  0.5494000000000  0.5269720000000 1.0
C      1  0.4585380000000  0.4532240000000  0.5529440000000 1.0
C      1  0.5357730000000  0.4787940000000  0.4485350000000 1.0
C      1  0.5022930000000  0.5455250000000  0.5696430000000 1.0
C      1  0.5112130000000  0.5049820000000  0.4655810000000 1.0
C      1  0.4793750000000  0.5308980000000  0.5609670000000 1.0
C      1  0.4382480000000  0.4566890000000  0.4837080000000 1.0
C      1  0.5145740000000  0.5512140000000  0.5200680000000 1.0
C      1  0.5296360000000  0.4858140000000  0.5937150000000 1.0
C      1  0.5821260000000  0.4681110000000  0.4785190000000 1.0
C      1  0.4778370000000  0.4377470000000  0.4861030000000 1.0
C      1  0.4651520000000  0.4985990000000  0.4832610000000 1.0
C      1  0.4831530000000  0.5000970000000  0.4186080000000 1.0
C      1  0.5654660000000  0.5451940000000  0.5029090000000 1.0
C      1  0.5613710000000  0.5009550000000  0.4517790000000 1.0
C      1  0.4814630000000  0.5411560000000  0.5000480000000 1.0
C      1  0.4718870000000  0.4853480000000  0.4549360000000 1.0
C      1  0.4919820000000  0.5126610000000  0.4905980000000 1.0
C      1  0.4676190000000  0.5794890000000  0.4854280000000 1.0
C      1  0.4777430000000  0.4119670000000  0.5443890000000 1.0
C      1  0.4518020000000  0.5120410000000  0.5537680000000 1.0
C      1  0.4722670000000  0.4366880000000  0.5269410000000 1.0
END
