TITL C-2848502-4955-260 0.000132740330871323 125000 -582.078041744446 0 0 108 (C1) n - 1
REM
REM in /home/bkarasulu/work/CARBON/AIRSS/Generating-Clusters/AIREBO/with-SteepDescent/Only-C1/SD-CG-opt/Try1-1.4A-POS3A/HFTN-CG
REM
REM
REM
REM
REM
REM ./C.cell (11c1c37f851c82e70ff6c80c92926a4b)
REM
REM compiler GCC version 9.2.1 20190827 (Red Hat 9.2.1-1)
REM options -cpp -mtune=generic -march=x86-64 -g -O0 -fpre-include=/usr/include/finclude/math-vector-fortran.h
REM seed 143949993 -921211015 587682401 818358261 1235966666 -1243015985 420819549 -35919736 1430818467 1413944319 1073828727 -229212425 193531505 -717475420 -2034220378 -1793221851 1466934937 537479780 1201532635 -756937856 -1900656405 248683592 -598613936 1175519131 680007781 -803000508 -13806457 4632926 1090481527 1889964206 -2124621083 -1551090449 -606181648
REM
CELL 1.54180   50.00000   50.00000   50.00000   90.00000   90.00000   90.00000
LATT -1
SFAC C  
C      1  0.4635120000000  0.4512310000000  0.4408690000000 1.0
C      1  0.4831970000000  0.4920740000000  0.4461620000000 1.0
C      1  0.5168250000000  0.5386080000000  0.4979740000000 1.0
C      1  0.4231530000000  0.5574930000000  0.5064090000000 1.0
C      1  0.5216990000000  0.4763320000000  0.3991140000000 1.0
C      1  0.5317850000000  0.4325470000000  0.4530820000000 1.0
C      1  0.5685760000000  0.4914680000000  0.5286890000000 1.0
C      1  0.5680100000000  0.4589950000000  0.4944260000000 1.0
C      1  0.4557050000000  0.5513800000000  0.4987180000000 1.0
C      1  0.5485240000000  0.5045410000000  0.5141400000000 1.0
C      1  0.5704180000000  0.5337690000000  0.5302480000000 1.0
C      1  0.4748180000000  0.4717950000000  0.4218090000000 1.0
C      1  0.4851110000000  0.5344510000000  0.5010430000000 1.0
C      1  0.5317240000000  0.4716170000000  0.4616000000000 1.0
C      1  0.5746030000000  0.5292440000000  0.5569480000000 1.0
C      1  0.4637220000000  0.5888500000000  0.5247470000000 1.0
C      1  0.5229390000000  0.4501740000000  0.4291470000000 1.0
C      1  0.5373030000000  0.4928790000000  0.4846610000000 1.0
C      1  0.5767430000000  0.4911140000000  0.4478220000000 1.0
C      1  0.5425960000000  0.5813050000000  0.5472890000000 1.0
C      1  0.5498230000000  0.5671150000000  0.5247290000000 1.0
C      1  0.5024540000000  0.4654210000000  0.4516000000000 1.0
C      1  0.4558670000000  0.4825220000000  0.4039770000000 1.0
C      1  0.4239560000000  0.5302010000000  0.5659500000000 1.0
C      1  0.5261580000000  0.4093250000000  0.5334910000000 1.0
C      1  0.4937960000000  0.5081140000000  0.5465050000000 1.0
C      1  0.5135810000000  0.4184170000000  0.4685640000000 1.0
C      1  0.4086410000000  0.5121700000000  0.5222470000000 1.0
C      1  0.5247230000000  0.4225260000000  0.5066080000000 1.0
C      1  0.4975980000000  0.4995290000000  0.5791850000000 1.0
C      1  0.4582410000000  0.5674330000000  0.4623260000000 1.0
C      1  0.4713920000000  0.4907930000000  0.4778730000000 1.0
C      1  0.5537570000000  0.5721420000000  0.4962840000000 1.0
C      1  0.4195290000000  0.4648860000000  0.5247810000000 1.0
C      1  0.5373520000000  0.5355570000000  0.5224850000000 1.0
C      1  0.5026580000000  0.5565940000000  0.4728290000000 1.0
C      1  0.4691050000000  0.5817600000000  0.4914060000000 1.0
C      1  0.5131650000000  0.5353580000000  0.5464140000000 1.0
C      1  0.5535210000000  0.4547630000000  0.5313020000000 1.0
C      1  0.4017420000000  0.5108940000000  0.4890500000000 1.0
C      1  0.4597310000000  0.5118510000000  0.5022280000000 1.0
C      1  0.5249390000000  0.5580300000000  0.4391580000000 1.0
C      1  0.4803900000000  0.5423640000000  0.4561800000000 1.0
C      1  0.5347560000000  0.4710460000000  0.5504360000000 1.0
C      1  0.4997230000000  0.5614020000000  0.5291650000000 1.0
C      1  0.5364000000000  0.4520370000000  0.5048470000000 1.0
C      1  0.4345120000000  0.5627280000000  0.5324260000000 1.0
C      1  0.4926730000000  0.5191520000000  0.4364980000000 1.0
C      1  0.5359050000000  0.4932720000000  0.4221350000000 1.0
C      1  0.5172790000000  0.4890360000000  0.5336580000000 1.0
C      1  0.5932750000000  0.4814980000000  0.4991760000000 1.0
C      1  0.5495370000000  0.4186430000000  0.4860020000000 1.0
C      1  0.4581750000000  0.4859270000000  0.5742050000000 1.0
C      1  0.4836210000000  0.4444550000000  0.4669380000000 1.0
C      1  0.4366780000000  0.4529090000000  0.4439920000000 1.0
C      1  0.5575340000000  0.4670900000000  0.4431770000000 1.0
C      1  0.5496610000000  0.4636010000000  0.4122510000000 1.0
C      1  0.5680920000000  0.5359630000000  0.4635280000000 1.0
C      1  0.5599040000000  0.4438780000000  0.4669750000000 1.0
C      1  0.5228950000000  0.5194500000000  0.4733980000000 1.0
C      1  0.4752040000000  0.4256540000000  0.5275660000000 1.0
C      1  0.5845740000000  0.4618280000000  0.5240370000000 1.0
C      1  0.5668300000000  0.4976640000000  0.4748870000000 1.0
C      1  0.4329980000000  0.4921370000000  0.5095400000000 1.0
C      1  0.4638200000000  0.5862460000000  0.5552920000000 1.0
C      1  0.5035360000000  0.5490320000000  0.4244320000000 1.0
C      1  0.4088470000000  0.5162020000000  0.5519400000000 1.0
C      1  0.5613360000000  0.4852640000000  0.5560470000000 1.0
C      1  0.5347680000000  0.3833340000000  0.5348990000000 1.0
C      1  0.4324540000000  0.5459360000000  0.4561060000000 1.0
C      1  0.4302090000000  0.4410530000000  0.5176390000000 1.0
C      1  0.4232850000000  0.4884410000000  0.4770500000000 1.0
C      1  0.5851080000000  0.5117190000000  0.4947820000000 1.0
C      1  0.5161480000000  0.5772230000000  0.5538310000000 1.0
C      1  0.5400410000000  0.5347450000000  0.4529170000000 1.0
C      1  0.4656930000000  0.5218880000000  0.5341900000000 1.0
C      1  0.5215240000000  0.5802740000000  0.4572430000000 1.0
C      1  0.4372890000000  0.4144560000000  0.4788690000000 1.0
C      1  0.4993080000000  0.5568830000000  0.5688380000000 1.0
C      1  0.5429570000000  0.4935650000000  0.5905760000000 1.0
C      1  0.5150770000000  0.4530560000000  0.5662990000000 1.0
C      1  0.5009560000000  0.5750510000000  0.5013350000000 1.0
C      1  0.5141430000000  0.4778400000000  0.5045090000000 1.0
C      1  0.4029920000000  0.5392580000000  0.5050430000000 1.0
C      1  0.4985370000000  0.4601970000000  0.4084820000000 1.0
C      1  0.4864010000000  0.4587640000000  0.5088140000000 1.0
C      1  0.4370260000000  0.4408160000000  0.4889900000000 1.0
C      1  0.4263900000000  0.4608520000000  0.4677130000000 1.0
C      1  0.4719950000000  0.5616370000000  0.5694020000000 1.0
C      1  0.5252540000000  0.5164220000000  0.4309550000000 1.0
C      1  0.5627730000000  0.5084550000000  0.5730020000000 1.0
C      1  0.4185730000000  0.5186870000000  0.4616290000000 1.0
C      1  0.4540760000000  0.5095330000000  0.5818700000000 1.0
C      1  0.4677220000000  0.5555250000000  0.5302530000000 1.0
C      1  0.4915770000000  0.4518790000000  0.5417160000000 1.0
C      1  0.5175130000000  0.4815170000000  0.5847780000000 1.0
C      1  0.5689170000000  0.5415590000000  0.4971060000000 1.0
C      1  0.5299360000000  0.5824130000000  0.4859110000000 1.0
C      1  0.4602860000000  0.4761570000000  0.5220440000000 1.0
C      1  0.4549190000000  0.5296350000000  0.4734290000000 1.0
C      1  0.4625770000000  0.4608590000000  0.4846320000000 1.0
C      1  0.4755030000000  0.4795990000000  0.5494220000000 1.0
C      1  0.4974190000000  0.5043080000000  0.4912440000000 1.0
C      1  0.4555110000000  0.5365100000000  0.5631820000000 1.0
C      1  0.4477220000000  0.4234960000000  0.5313290000000 1.0
C      1  0.5851490000000  0.5205610000000  0.4478820000000 1.0
C      1  0.4949680000000  0.4288710000000  0.4950550000000 1.0
C      1  0.5164580000000  0.4232810000000  0.5544110000000 1.0
END
