TITL C-2847957-7266-418 0.00172684429073883 125000 -468.745448951108 0 0 89 (C1) n - 1
REM
REM in /home/bkarasulu/work/CARBON/AIRSS/Generating-Clusters/AIREBO/with-SteepDescent/Only-C1/SD-CG-opt/Try1-1.4A-POS3A/HFTN-CG
REM
REM
REM
REM
REM
REM ./C.cell (11c1c37f851c82e70ff6c80c92926a4b)
REM
REM compiler GCC version 9.2.1 20190827 (Red Hat 9.2.1-1)
REM options -cpp -mtune=generic -march=x86-64 -g -O0 -fpre-include=/usr/include/finclude/math-vector-fortran.h
REM seed -84972123 1202525208 -1125583183 -1973553489 -317155625 1627914659 315509375 1523713450 140687581 1817877362 494406372 -582426195 790344387 1273048423 -33562760 1618931759 404839510 -553195428 913469987 541941797 351723445 -625042018 195822535 -943101837 -1865481963 -1576583693 721345323 1287966788 1295285792 -1315122983 -752919974 1300946637 -1102606248
REM
CELL 1.54180   50.00000   50.00000   50.00000   90.00000   90.00000   90.00000
LATT -1
SFAC C  
C      1  0.5528160000000  0.5337040000000  0.5272280000000 1.0
C      1  0.5261550000000  0.5213390000000  0.4434640000000 1.0
C      1  0.4328350000000  0.5132560000000  0.5688780000000 1.0
C      1  0.4357390000000  0.4743420000000  0.4502200000000 1.0
C      1  0.5338430000000  0.4742450000000  0.5203980000000 1.0
C      1  0.5479170000000  0.5033780000000  0.5309080000000 1.0
C      1  0.4590340000000  0.4380650000000  0.5339920000000 1.0
C      1  0.4649210000000  0.5132260000000  0.4796710000000 1.0
C      1  0.4396670000000  0.4963610000000  0.4329010000000 1.0
C      1  0.5331880000000  0.4138210000000  0.4889030000000 1.0
C      1  0.4287680000000  0.4648410000000  0.5289590000000 1.0
C      1  0.4480190000000  0.4554780000000  0.5553810000000 1.0
C      1  0.4120050000000  0.4741960000000  0.5036170000000 1.0
C      1  0.4589180000000  0.5245150000000  0.5709380000000 1.0
C      1  0.5585500000000  0.4780450000000  0.4972960000000 1.0
C      1  0.4568390000000  0.4853120000000  0.4893510000000 1.0
C      1  0.5025430000000  0.5411730000000  0.4577870000000 1.0
C      1  0.5036740000000  0.4549410000000  0.4603890000000 1.0
C      1  0.4792410000000  0.4667530000000  0.4894950000000 1.0
C      1  0.4966050000000  0.5049110000000  0.5251710000000 1.0
C      1  0.5178720000000  0.5625730000000  0.4362330000000 1.0
C      1  0.4888810000000  0.5286870000000  0.5798520000000 1.0
C      1  0.4617080000000  0.4966240000000  0.5425630000000 1.0
C      1  0.5901870000000  0.5367840000000  0.4651980000000 1.0
C      1  0.5528590000000  0.4500330000000  0.4518000000000 1.0
C      1  0.5520670000000  0.5276470000000  0.4726800000000 1.0
C      1  0.4690820000000  0.5416210000000  0.4359100000000 1.0
C      1  0.5331120000000  0.5208210000000  0.4121040000000 1.0
C      1  0.5593740000000  0.5282380000000  0.4411720000000 1.0
C      1  0.5835590000000  0.5095730000000  0.4564810000000 1.0
C      1  0.5022190000000  0.4500400000000  0.5864830000000 1.0
C      1  0.4524660000000  0.5768920000000  0.5031000000000 1.0
C      1  0.5787410000000  0.4876320000000  0.4716590000000 1.0
C      1  0.4385230000000  0.5196490000000  0.4975170000000 1.0
C      1  0.4944300000000  0.4709800000000  0.5260240000000 1.0
C      1  0.5395000000000  0.5032560000000  0.4847310000000 1.0
C      1  0.4084790000000  0.5319220000000  0.5115630000000 1.0
C      1  0.5584110000000  0.4880030000000  0.5754430000000 1.0
C      1  0.5094620000000  0.4762430000000  0.4962250000000 1.0
C      1  0.5154550000000  0.5595290000000  0.4833710000000 1.0
C      1  0.5116290000000  0.4271550000000  0.5420380000000 1.0
C      1  0.4664140000000  0.4760300000000  0.5603820000000 1.0
C      1  0.5114540000000  0.3997510000000  0.5346560000000 1.0
C      1  0.4807440000000  0.4365290000000  0.4430260000000 1.0
C      1  0.5503170000000  0.4274340000000  0.5095340000000 1.0
C      1  0.4245140000000  0.4878010000000  0.5537310000000 1.0
C      1  0.4891690000000  0.5542660000000  0.4224370000000 1.0
C      1  0.5419550000000  0.5496020000000  0.4210260000000 1.0
C      1  0.5467540000000  0.5728240000000  0.4830370000000 1.0
C      1  0.5351430000000  0.5774510000000  0.5128800000000 1.0
C      1  0.4352460000000  0.5081130000000  0.5293320000000 1.0
C      1  0.4609390000000  0.4555000000000  0.4631270000000 1.0
C      1  0.5188720000000  0.4850560000000  0.4647460000000 1.0
C      1  0.5223610000000  0.4355470000000  0.4729470000000 1.0
C      1  0.4610000000000  0.5508330000000  0.5227190000000 1.0
C      1  0.5039990000000  0.5765460000000  0.5117030000000 1.0
C      1  0.4494930000000  0.5220640000000  0.4294180000000 1.0
C      1  0.5689920000000  0.5515060000000  0.4851970000000 1.0
C      1  0.5118920000000  0.4577670000000  0.4215500000000 1.0
C      1  0.5065360000000  0.5373750000000  0.5045610000000 1.0
C      1  0.4869880000000  0.4424090000000  0.5314940000000 1.0
C      1  0.5361350000000  0.4418240000000  0.5294960000000 1.0
C      1  0.4405700000000  0.4384670000000  0.5107190000000 1.0
C      1  0.4319820000000  0.5408670000000  0.5305420000000 1.0
C      1  0.4940860000000  0.5086070000000  0.4628050000000 1.0
C      1  0.5746320000000  0.5436840000000  0.5145740000000 1.0
C      1  0.4895140000000  0.5661030000000  0.5330880000000 1.0
C      1  0.4979380000000  0.5486850000000  0.5571720000000 1.0
C      1  0.4090530000000  0.5028290000000  0.4996940000000 1.0
C      1  0.4310370000000  0.4755450000000  0.4804360000000 1.0
C      1  0.5167640000000  0.4811800000000  0.5489850000000 1.0
C      1  0.5500840000000  0.4816640000000  0.4171870000000 1.0
C      1  0.5107180000000  0.4306640000000  0.5730370000000 1.0
C      1  0.5521010000000  0.4484610000000  0.4834710000000 1.0
C      1  0.4819520000000  0.4794660000000  0.4512830000000 1.0
C      1  0.4458940000000  0.4346800000000  0.4846760000000 1.0
C      1  0.4774570000000  0.5374660000000  0.4970080000000 1.0
C      1  0.4549070000000  0.5745770000000  0.4779310000000 1.0
C      1  0.4767610000000  0.5268870000000  0.5419190000000 1.0
C      1  0.5040260000000  0.5056180000000  0.5850600000000 1.0
C      1  0.5239690000000  0.5116600000000  0.5104600000000 1.0
C      1  0.5800020000000  0.4807180000000  0.5235580000000 1.0
C      1  0.5303290000000  0.5493070000000  0.5241210000000 1.0
C      1  0.4708260000000  0.5502110000000  0.4660960000000 1.0
C      1  0.5304310000000  0.4911400000000  0.5765090000000 1.0
C      1  0.4936750000000  0.4761480000000  0.5726840000000 1.0
C      1  0.5690800000000  0.4894130000000  0.5494620000000 1.0
C      1  0.5312120000000  0.5838180000000  0.4558900000000 1.0
C      1  0.5327880000000  0.4701050000000  0.4375350000000 1.0
END
