TITL C-2847950-6905-326 -0.00191848279030431 125000 -890.330531271059 0 0 162 (C1) n - 1
REM
REM in /home/bkarasulu/work/CARBON/AIRSS/Generating-Clusters/AIREBO/with-SteepDescent/Only-C1/SD-CG-opt/Try1-1.4A-POS3A/HFTN-CG
REM
REM
REM
REM
REM
REM ./C.cell (11c1c37f851c82e70ff6c80c92926a4b)
REM
REM compiler GCC version 9.2.1 20190827 (Red Hat 9.2.1-1)
REM options -cpp -mtune=generic -march=x86-64 -g -O0 -fpre-include=/usr/include/finclude/math-vector-fortran.h
REM seed -1379530459 -932890316 -1592212268 388976144 254452708 -822321324 -1259489712 -484687399 1249777835 -679439417 2060561099 2309873 1001612621 1261482956 -779067524 -1436612384 -120677171 1634573863 -1324372548 -1348362212 741195710 1252134689 -1227353891 1097445231 732886204 -2109917275 -1296106050 707712982 -1249360490 55239346 -1668745093 -875258412 1424094188
REM
CELL 1.54180   50.00000   50.00000   50.00000   90.00000   90.00000   90.00000
LATT -1
SFAC C  
C      1  0.4919200000000  0.5034210000000  0.4421790000000 1.0
C      1  0.5084540000000  0.4688970000000  0.6092340000000 1.0
C      1  0.4219430000000  0.5456970000000  0.5540540000000 1.0
C      1  0.5793260000000  0.4520200000000  0.5228180000000 1.0
C      1  0.5047240000000  0.4147700000000  0.4482590000000 1.0
C      1  0.5230420000000  0.6121190000000  0.4958870000000 1.0
C      1  0.6051060000000  0.5154860000000  0.4899250000000 1.0
C      1  0.5254810000000  0.4559510000000  0.4286830000000 1.0
C      1  0.4902300000000  0.4569680000000  0.4793880000000 1.0
C      1  0.4710440000000  0.4003650000000  0.4701840000000 1.0
C      1  0.5328160000000  0.5041420000000  0.4423790000000 1.0
C      1  0.4075240000000  0.4993230000000  0.5366940000000 1.0
C      1  0.4311750000000  0.4595830000000  0.4536180000000 1.0
C      1  0.4703770000000  0.4809840000000  0.4004410000000 1.0
C      1  0.6080640000000  0.4687530000000  0.5299200000000 1.0
C      1  0.5546290000000  0.5913710000000  0.4581730000000 1.0
C      1  0.6091430000000  0.5596400000000  0.4574370000000 1.0
C      1  0.5086510000000  0.5372190000000  0.4131570000000 1.0
C      1  0.5252830000000  0.4041050000000  0.5412370000000 1.0
C      1  0.5738900000000  0.5833920000000  0.5619060000000 1.0
C      1  0.4642280000000  0.4547140000000  0.4066550000000 1.0
C      1  0.5225060000000  0.4749070000000  0.5128770000000 1.0
C      1  0.4971580000000  0.4961750000000  0.5208000000000 1.0
C      1  0.5512040000000  0.4982870000000  0.4074780000000 1.0
C      1  0.5524360000000  0.4331170000000  0.5140890000000 1.0
C      1  0.5631400000000  0.4764690000000  0.5631590000000 1.0
C      1  0.4232940000000  0.4821350000000  0.5595900000000 1.0
C      1  0.4926920000000  0.4111600000000  0.5493630000000 1.0
C      1  0.4678720000000  0.5638770000000  0.4743320000000 1.0
C      1  0.5416430000000  0.4430200000000  0.5674680000000 1.0
C      1  0.5744650000000  0.4809970000000  0.5056450000000 1.0
C      1  0.5724180000000  0.5211450000000  0.5467700000000 1.0
C      1  0.4584060000000  0.4455150000000  0.4388720000000 1.0
C      1  0.4350510000000  0.4516100000000  0.5503010000000 1.0
C      1  0.5252000000000  0.4694750000000  0.5796390000000 1.0
C      1  0.5271920000000  0.5065070000000  0.4888970000000 1.0
C      1  0.5790590000000  0.4729200000000  0.4387200000000 1.0
C      1  0.6124200000000  0.5532410000000  0.5690220000000 1.0
C      1  0.4946540000000  0.4960930000000  0.3927430000000 1.0
C      1  0.4863800000000  0.5344920000000  0.5532980000000 1.0
C      1  0.5115120000000  0.4275060000000  0.4967720000000 1.0
C      1  0.5758350000000  0.4471360000000  0.4277860000000 1.0
C      1  0.5503120000000  0.5843490000000  0.4873320000000 1.0
C      1  0.5916330000000  0.4380200000000  0.4943800000000 1.0
C      1  0.5083360000000  0.4825790000000  0.4737690000000 1.0
C      1  0.5493470000000  0.4558740000000  0.4720580000000 1.0
C      1  0.4274100000000  0.4801400000000  0.4266920000000 1.0
C      1  0.4482200000000  0.4974680000000  0.5422810000000 1.0
C      1  0.4102230000000  0.4629750000000  0.5070970000000 1.0
C      1  0.5011490000000  0.5265540000000  0.5113570000000 1.0
C      1  0.4647890000000  0.5147230000000  0.4797570000000 1.0
C      1  0.5215030000000  0.4840280000000  0.4009390000000 1.0
C      1  0.4918550000000  0.4732110000000  0.5731740000000 1.0
C      1  0.4301180000000  0.5851900000000  0.4861030000000 1.0
C      1  0.4164790000000  0.5688730000000  0.5066840000000 1.0
C      1  0.5774780000000  0.4396600000000  0.4734010000000 1.0
C      1  0.5582050000000  0.5544820000000  0.4731320000000 1.0
C      1  0.4369080000000  0.5268380000000  0.4950020000000 1.0
C      1  0.4182070000000  0.5244060000000  0.5331110000000 1.0
C      1  0.4130160000000  0.4459390000000  0.4789420000000 1.0
C      1  0.4603500000000  0.5979890000000  0.4501220000000 1.0
C      1  0.4947480000000  0.4452000000000  0.5922300000000 1.0
C      1  0.3778930000000  0.4806170000000  0.4915770000000 1.0
C      1  0.5361330000000  0.5920370000000  0.5172760000000 1.0
C      1  0.5119770000000  0.5220610000000  0.4624000000000 1.0
C      1  0.4847440000000  0.5747740000000  0.5182030000000 1.0
C      1  0.4324570000000  0.5688490000000  0.5349850000000 1.0
C      1  0.5596270000000  0.4929790000000  0.5413630000000 1.0
C      1  0.4847280000000  0.4357680000000  0.4580640000000 1.0
C      1  0.5221780000000  0.4233110000000  0.4292970000000 1.0
C      1  0.4613940000000  0.4202250000000  0.5721960000000 1.0
C      1  0.4854060000000  0.5741740000000  0.5579690000000 1.0
C      1  0.4872890000000  0.5373310000000  0.4755320000000 1.0
C      1  0.4373670000000  0.4774650000000  0.4818710000000 1.0
C      1  0.4344440000000  0.5474390000000  0.4258040000000 1.0
C      1  0.5262500000000  0.3984210000000  0.4902060000000 1.0
C      1  0.5455000000000  0.5190670000000  0.5675090000000 1.0
C      1  0.5831570000000  0.5123110000000  0.5157070000000 1.0
C      1  0.5166680000000  0.5286130000000  0.5539910000000 1.0
C      1  0.4605330000000  0.4614650000000  0.4908330000000 1.0
C      1  0.4467620000000  0.4961840000000  0.4576570000000 1.0
C      1  0.5367230000000  0.5802590000000  0.4324130000000 1.0
C      1  0.5232200000000  0.4953420000000  0.5576470000000 1.0
C      1  0.5006650000000  0.4208470000000  0.5809690000000 1.0
C      1  0.5299330000000  0.5506430000000  0.4583220000000 1.0
C      1  0.5306110000000  0.4723470000000  0.4538890000000 1.0
C      1  0.4165510000000  0.5100490000000  0.4504800000000 1.0
C      1  0.4599770000000  0.5269280000000  0.4483800000000 1.0
C      1  0.5110770000000  0.5785960000000  0.5360740000000 1.0
C      1  0.4863180000000  0.5319430000000  0.6019220000000 1.0
C      1  0.4508840000000  0.5014100000000  0.4135250000000 1.0
C      1  0.4530680000000  0.4129840000000  0.4472530000000 1.0
C      1  0.5575930000000  0.5992920000000  0.5390900000000 1.0
C      1  0.5663700000000  0.5698770000000  0.4372700000000 1.0
C      1  0.5534310000000  0.4855980000000  0.5896030000000 1.0
C      1  0.5142600000000  0.4668650000000  0.5413610000000 1.0
C      1  0.4683490000000  0.4687270000000  0.5211240000000 1.0
C      1  0.5976750000000  0.5023400000000  0.4666920000000 1.0
C      1  0.4795550000000  0.5709420000000  0.4438820000000 1.0
C      1  0.6073330000000  0.4942190000000  0.5313530000000 1.0
C      1  0.4701250000000  0.4773170000000  0.4416930000000 1.0
C      1  0.4396390000000  0.5555220000000  0.4769330000000 1.0
C      1  0.4612140000000  0.4297860000000  0.4823530000000 1.0
C      1  0.5282800000000  0.5494460000000  0.5350720000000 1.0
C      1  0.4669470000000  0.5481020000000  0.4263700000000 1.0
C      1  0.4001910000000  0.4837370000000  0.4467530000000 1.0
C      1  0.5508060000000  0.4356740000000  0.4280680000000 1.0
C      1  0.5003460000000  0.5572030000000  0.4965780000000 1.0
C      1  0.5332700000000  0.4504280000000  0.4971840000000 1.0
C      1  0.5289540000000  0.5294440000000  0.6229000000000 1.0
C      1  0.4778850000000  0.5898900000000  0.4918650000000 1.0
C      1  0.5101970000000  0.3934830000000  0.4662520000000 1.0
C      1  0.3931640000000  0.4703490000000  0.4696260000000 1.0
C      1  0.5521310000000  0.5028870000000  0.4678630000000 1.0
C      1  0.5837560000000  0.5482600000000  0.4514570000000 1.0
C      1  0.5675070000000  0.4491760000000  0.5545860000000 1.0
C      1  0.5275190000000  0.4190890000000  0.5671890000000 1.0
C      1  0.4659920000000  0.4529850000000  0.5643280000000 1.0
C      1  0.4872980000000  0.4036330000000  0.4973820000000 1.0
C      1  0.5466060000000  0.4934050000000  0.5135560000000 1.0
C      1  0.4222180000000  0.5563170000000  0.4495090000000 1.0
C      1  0.4856700000000  0.3920750000000  0.5221000000000 1.0
C      1  0.4611470000000  0.4185250000000  0.5389810000000 1.0
C      1  0.4800450000000  0.5188920000000  0.4148720000000 1.0
C      1  0.5336420000000  0.5341120000000  0.5076950000000 1.0
C      1  0.4068310000000  0.5426880000000  0.4957950000000 1.0
C      1  0.4518320000000  0.4805730000000  0.5782930000000 1.0
C      1  0.5745470000000  0.4983480000000  0.4251920000000 1.0
C      1  0.4725900000000  0.5036120000000  0.5904320000000 1.0
C      1  0.5043790000000  0.6009290000000  0.4796640000000 1.0
C      1  0.4843370000000  0.4939090000000  0.4930810000000 1.0
C      1  0.4276570000000  0.5198490000000  0.4228490000000 1.0
C      1  0.5952370000000  0.5431780000000  0.4934790000000 1.0
C      1  0.4599640000000  0.5809950000000  0.5489770000000 1.0
C      1  0.5635220000000  0.5369630000000  0.5012870000000 1.0
C      1  0.5043950000000  0.5366810000000  0.6253340000000 1.0
C      1  0.5354620000000  0.5110780000000  0.5983730000000 1.0
C      1  0.4372590000000  0.4967850000000  0.5100820000000 1.0
C      1  0.5057500000000  0.5713330000000  0.4656630000000 1.0
C      1  0.4761650000000  0.5443320000000  0.5255260000000 1.0
C      1  0.5004480000000  0.4753040000000  0.4261910000000 1.0
C      1  0.3933840000000  0.4846750000000  0.5170470000000 1.0
C      1  0.4385270000000  0.5369970000000  0.5736700000000 1.0
C      1  0.5947550000000  0.5375010000000  0.5594540000000 1.0
C      1  0.4907570000000  0.4459940000000  0.5112980000000 1.0
C      1  0.4342480000000  0.4318510000000  0.5001700000000 1.0
C      1  0.4466670000000  0.5403850000000  0.5233080000000 1.0
C      1  0.4793520000000  0.4859430000000  0.5454840000000 1.0
C      1  0.4363680000000  0.4650500000000  0.5222600000000 1.0
C      1  0.4617050000000  0.5177580000000  0.5641430000000 1.0
C      1  0.5302860000000  0.5199820000000  0.4148820000000 1.0
C      1  0.4349830000000  0.4257090000000  0.5287710000000 1.0
C      1  0.4070520000000  0.5352600000000  0.4663480000000 1.0
C      1  0.5480760000000  0.5694640000000  0.5479550000000 1.0
C      1  0.5733130000000  0.4793850000000  0.4716070000000 1.0
C      1  0.5155690000000  0.5594980000000  0.4287990000000 1.0
C      1  0.4521840000000  0.6005080000000  0.4772100000000 1.0
C      1  0.5868230000000  0.5179510000000  0.4438270000000 1.0
C      1  0.5393950000000  0.4077410000000  0.5174310000000 1.0
C      1  0.4861570000000  0.5524370000000  0.5802280000000 1.0
C      1  0.5042930000000  0.4995500000000  0.6004960000000 1.0
C      1  0.4912000000000  0.4445580000000  0.5431160000000 1.0
END
