TITL C-2848498-1409-670 -0.00386078396694932 125000 -171.520972623311 0 0 33 (C1) n - 1
REM
REM in /home/bkarasulu/work/CARBON/AIRSS/Generating-Clusters/AIREBO/with-SteepDescent/Only-C1/SD-CG-opt/Try1-1.4A-POS3A/HFTN-CG
REM
REM
REM
REM
REM
REM ./C.cell (11c1c37f851c82e70ff6c80c92926a4b)
REM
REM compiler GCC version 9.2.1 20190827 (Red Hat 9.2.1-1)
REM options -cpp -mtune=generic -march=x86-64 -g -O0 -fpre-include=/usr/include/finclude/math-vector-fortran.h
REM seed 1411140445 -411380332 -536585291 -1186892426 841273168 174366573 -1970616367 1040951798 -1835672487 455742358 1797504526 -986063801 -603833128 2147414505 -2026710224 256087488 -773941456 -944934092 -1144438154 1422789926 -1686704347 71975279 216638828 893563224 -130677298 1167960311 -229171543 -923846820 -1693907410 1695636473 -464940578 -187204134 382697644
REM
CELL 1.54180   50.00000   50.00000   50.00000   90.00000   90.00000   90.00000
LATT -1
SFAC C  
C      1  0.4881190000000  0.5402670000000  0.5183940000000 1.0
C      1  0.4572240000000  0.5283160000000  0.4723880000000 1.0
C      1  0.4814550000000  0.5626030000000  0.4579200000000 1.0
C      1  0.4857310000000  0.4934460000000  0.5283080000000 1.0
C      1  0.5445170000000  0.4467960000000  0.5502330000000 1.0
C      1  0.4757430000000  0.4550290000000  0.5675570000000 1.0
C      1  0.4939710000000  0.5703130000000  0.5066250000000 1.0
C      1  0.4647580000000  0.4306170000000  0.4619700000000 1.0
C      1  0.5208880000000  0.5033680000000  0.4869350000000 1.0
C      1  0.4667070000000  0.4820710000000  0.4436630000000 1.0
C      1  0.5486570000000  0.4907130000000  0.4714820000000 1.0
C      1  0.5173140000000  0.4578770000000  0.5121660000000 1.0
C      1  0.4692720000000  0.5569370000000  0.4874450000000 1.0
C      1  0.5408750000000  0.4605040000000  0.5272900000000 1.0
C      1  0.5605340000000  0.4777130000000  0.5171110000000 1.0
C      1  0.5042030000000  0.5201970000000  0.4650870000000 1.0
C      1  0.4789770000000  0.4726200000000  0.5493450000000 1.0
C      1  0.4955790000000  0.5212910000000  0.5379210000000 1.0
C      1  0.5478880000000  0.5211480000000  0.5391730000000 1.0
C      1  0.4824600000000  0.4785600000000  0.4795770000000 1.0
C      1  0.5585230000000  0.4983150000000  0.4985280000000 1.0
C      1  0.4596750000000  0.5122270000000  0.5198550000000 1.0
C      1  0.4766250000000  0.5072540000000  0.4634640000000 1.0
C      1  0.5010290000000  0.5482600000000  0.4502240000000 1.0
C      1  0.4567710000000  0.4056760000000  0.4630780000000 1.0
C      1  0.5016030000000  0.4826280000000  0.5038050000000 1.0
C      1  0.5247770000000  0.5543790000000  0.5127970000000 1.0
C      1  0.4706540000000  0.4570140000000  0.4619070000000 1.0
C      1  0.5398430000000  0.5239660000000  0.5062500000000 1.0
C      1  0.4523800000000  0.5318910000000  0.5030570000000 1.0
C      1  0.5214970000000  0.5348850000000  0.5397500000000 1.0
C      1  0.5054070000000  0.5400220000000  0.4891170000000 1.0
C      1  0.5063440000000  0.4330980000000  0.5075760000000 1.0
END
