TITL C-2848508-1660-224 0.00250637806526416 125000 -349.776961966875 0 0 64 (C1) n - 1
REM
REM in /home/bkarasulu/work/CARBON/AIRSS/Generating-Clusters/AIREBO/with-SteepDescent/Only-C1/SD-CG-opt/Try1-1.4A-POS3A/HFTN-CG
REM
REM
REM
REM
REM
REM ./C.cell (11c1c37f851c82e70ff6c80c92926a4b)
REM
REM compiler GCC version 9.2.1 20190827 (Red Hat 9.2.1-1)
REM options -cpp -mtune=generic -march=x86-64 -g -O0 -fpre-include=/usr/include/finclude/math-vector-fortran.h
REM seed -1931680834 -442168543 -366390030 160790989 903458467 -1828215404 1737989332 866715662 221949516 -1758402171 470201450 913485425 -498561805 -471302930 144539826 305371933 1648582406 1478407402 1904115356 -149072797 1901468511 1283894937 -1079926959 -2027832277 -1789565930 1421040633 1093584886 -1120354260 994372823 172472033 -238765410 -788122758 -2045435047
REM
CELL 1.54180   50.00000   50.00000   50.00000   90.00000   90.00000   90.00000
LATT -1
SFAC C  
C      1  0.4560160000000  0.4227660000000  0.4945410000000 1.0
C      1  0.4620150000000  0.4998730000000  0.5567820000000 1.0
C      1  0.5594420000000  0.4949820000000  0.4638120000000 1.0
C      1  0.5579890000000  0.5453720000000  0.4717080000000 1.0
C      1  0.5175470000000  0.4384910000000  0.5188760000000 1.0
C      1  0.4734420000000  0.4736070000000  0.5732280000000 1.0
C      1  0.5383370000000  0.4165890000000  0.4562900000000 1.0
C      1  0.4118130000000  0.4809350000000  0.5401700000000 1.0
C      1  0.4626230000000  0.5017840000000  0.5237730000000 1.0
C      1  0.5628900000000  0.4633610000000  0.5130170000000 1.0
C      1  0.5190500000000  0.5626930000000  0.5168820000000 1.0
C      1  0.4912010000000  0.5654890000000  0.5170630000000 1.0
C      1  0.5349650000000  0.5556310000000  0.4619000000000 1.0
C      1  0.5321700000000  0.5653740000000  0.5419890000000 1.0
C      1  0.4745500000000  0.4411270000000  0.4522870000000 1.0
C      1  0.5145310000000  0.5107570000000  0.4499150000000 1.0
C      1  0.4718920000000  0.5855700000000  0.5155400000000 1.0
C      1  0.4524340000000  0.5647730000000  0.4486530000000 1.0
C      1  0.4971450000000  0.5166640000000  0.4230220000000 1.0
C      1  0.5329860000000  0.4596030000000  0.4971440000000 1.0
C      1  0.5649540000000  0.5177860000000  0.4840420000000 1.0
C      1  0.5915100000000  0.5174850000000  0.4945980000000 1.0
C      1  0.4454050000000  0.5781440000000  0.5127590000000 1.0
C      1  0.4990500000000  0.4655640000000  0.5657720000000 1.0
C      1  0.4980450000000  0.4410310000000  0.4919080000000 1.0
C      1  0.5413290000000  0.4914600000000  0.5466110000000 1.0
C      1  0.5357370000000  0.4349660000000  0.4738710000000 1.0
C      1  0.4708030000000  0.5211440000000  0.4296160000000 1.0
C      1  0.5255400000000  0.5454310000000  0.5608810000000 1.0
C      1  0.5438990000000  0.5098280000000  0.5084830000000 1.0
C      1  0.4379610000000  0.5518520000000  0.5150340000000 1.0
C      1  0.5507620000000  0.4368560000000  0.5245520000000 1.0
C      1  0.4508900000000  0.5213290000000  0.4764760000000 1.0
C      1  0.4567470000000  0.4990030000000  0.4484810000000 1.0
C      1  0.5581640000000  0.4710610000000  0.4773590000000 1.0
C      1  0.4994190000000  0.4894610000000  0.4660690000000 1.0
C      1  0.4289120000000  0.4997700000000  0.4657400000000 1.0
C      1  0.5004540000000  0.5422300000000  0.5751100000000 1.0
C      1  0.4568930000000  0.4383840000000  0.5175110000000 1.0
C      1  0.4748000000000  0.4751250000000  0.4514930000000 1.0
C      1  0.5091040000000  0.5119830000000  0.4893360000000 1.0
C      1  0.5186310000000  0.4870840000000  0.5091620000000 1.0
C      1  0.5067110000000  0.5231790000000  0.5212670000000 1.0
C      1  0.5222380000000  0.5182480000000  0.5467320000000 1.0
C      1  0.4754590000000  0.5371470000000  0.5555430000000 1.0
C      1  0.5268940000000  0.5075200000000  0.4128910000000 1.0
C      1  0.4354200000000  0.4899950000000  0.5404610000000 1.0
C      1  0.4911430000000  0.4686100000000  0.4874070000000 1.0
C      1  0.5154330000000  0.4914560000000  0.5668200000000 1.0
C      1  0.4780420000000  0.4550410000000  0.5253240000000 1.0
C      1  0.5642400000000  0.4907690000000  0.5264940000000 1.0
C      1  0.5164440000000  0.5430610000000  0.4460500000000 1.0
C      1  0.4848650000000  0.4839810000000  0.5141070000000 1.0
C      1  0.4773130000000  0.4284110000000  0.4766710000000 1.0
C      1  0.4556270000000  0.5269510000000  0.5052880000000 1.0
C      1  0.5001360000000  0.4489090000000  0.5435790000000 1.0
C      1  0.4894160000000  0.5106420000000  0.5721300000000 1.0
C      1  0.5897420000000  0.5014170000000  0.5303960000000 1.0
C      1  0.4730330000000  0.4545750000000  0.4243730000000 1.0
C      1  0.5283240000000  0.5384490000000  0.4986260000000 1.0
C      1  0.4045800000000  0.4920690000000  0.4663760000000 1.0
C      1  0.5442270000000  0.5005700000000  0.4412120000000 1.0
C      1  0.4590320000000  0.5386530000000  0.4513250000000 1.0
C      1  0.4796350000000  0.5379300000000  0.5254730000000 1.0
END
