TITL C-2848495-5024-583 -0.00597766963028506 125000 -995.238536469138 0 0 188 (C1) n - 1
REM
REM in /home/bkarasulu/work/CARBON/AIRSS/Generating-Clusters/AIREBO/with-SteepDescent/Only-C1/SD-CG-opt/Try1-1.4A-POS3A/HFTN-CG
REM
REM
REM
REM
REM
REM ./C.cell (11c1c37f851c82e70ff6c80c92926a4b)
REM
REM compiler GCC version 9.2.1 20190827 (Red Hat 9.2.1-1)
REM options -cpp -mtune=generic -march=x86-64 -g -O0 -fpre-include=/usr/include/finclude/math-vector-fortran.h
REM seed -1309485342 1539385192 -171016643 1607355102 -2017546612 -1897834484 386333306 501440685 -2008822352 -426530558 -123885157 -955756207 -477100171 692485307 1765211240 -1309023657 -639935345 94171259 1722421771 -310984770 -370665072 2087012749 -1333075265 1169703761 680384132 1957551945 -1705394984 -1135169796 2027714932 -1501672072 1186056821 -1096689951 548962440
REM
CELL 1.54180   50.00000   50.00000   50.00000   90.00000   90.00000   90.00000
LATT -1
SFAC C  
C      1  0.5112150000000  0.5405070000000  0.5737690000000 1.0
C      1  0.5236430000000  0.3942870000000  0.5168700000000 1.0
C      1  0.5505940000000  0.5578750000000  0.5815690000000 1.0
C      1  0.4498880000000  0.5459010000000  0.5411830000000 1.0
C      1  0.5028820000000  0.5297030000000  0.5036600000000 1.0
C      1  0.4954330000000  0.5904270000000  0.4791610000000 1.0
C      1  0.5632470000000  0.4284830000000  0.4190530000000 1.0
C      1  0.6057880000000  0.5581660000000  0.5095730000000 1.0
C      1  0.4273920000000  0.5359240000000  0.4930660000000 1.0
C      1  0.5890800000000  0.5340440000000  0.4970300000000 1.0
C      1  0.3950720000000  0.5161830000000  0.5198790000000 1.0
C      1  0.5334130000000  0.4385240000000  0.5327990000000 1.0
C      1  0.5194600000000  0.5126250000000  0.5916120000000 1.0
C      1  0.5973440000000  0.5262970000000  0.4649630000000 1.0
C      1  0.4792790000000  0.4003210000000  0.4893630000000 1.0
C      1  0.5425090000000  0.4981570000000  0.5325110000000 1.0
C      1  0.4856490000000  0.4302300000000  0.4636140000000 1.0
C      1  0.5583400000000  0.5279380000000  0.5538220000000 1.0
C      1  0.5138540000000  0.4284120000000  0.4986820000000 1.0
C      1  0.5577380000000  0.5755770000000  0.4497270000000 1.0
C      1  0.5101390000000  0.5478830000000  0.6076540000000 1.0
C      1  0.4094360000000  0.4416000000000  0.5124090000000 1.0
C      1  0.4534080000000  0.4891080000000  0.4258840000000 1.0
C      1  0.5824520000000  0.5335540000000  0.5304410000000 1.0
C      1  0.4749040000000  0.4637820000000  0.5803550000000 1.0
C      1  0.4926390000000  0.4715240000000  0.6021770000000 1.0
C      1  0.5975480000000  0.4701210000000  0.4396390000000 1.0
C      1  0.6134120000000  0.4735110000000  0.5319080000000 1.0
C      1  0.5327290000000  0.4942840000000  0.4384340000000 1.0
C      1  0.5391980000000  0.5741500000000  0.4849150000000 1.0
C      1  0.4614710000000  0.5137340000000  0.4472690000000 1.0
C      1  0.3958940000000  0.5129570000000  0.4633780000000 1.0
C      1  0.4758790000000  0.5993580000000  0.4544630000000 1.0
C      1  0.5628470000000  0.4484350000000  0.5239180000000 1.0
C      1  0.3762720000000  0.5362570000000  0.5093590000000 1.0
C      1  0.5557960000000  0.4074000000000  0.4708520000000 1.0
C      1  0.5555620000000  0.4801080000000  0.4679240000000 1.0
C      1  0.4800160000000  0.4384140000000  0.5634530000000 1.0
C      1  0.4425720000000  0.4655260000000  0.5806980000000 1.0
C      1  0.5062630000000  0.4025010000000  0.5849290000000 1.0
C      1  0.4588060000000  0.4671390000000  0.4037160000000 1.0
C      1  0.5564400000000  0.4831850000000  0.5905400000000 1.0
C      1  0.5959270000000  0.4470710000000  0.4847650000000 1.0
C      1  0.6028670000000  0.4960560000000  0.4502920000000 1.0
C      1  0.4991860000000  0.4308170000000  0.5974180000000 1.0
C      1  0.4362760000000  0.5784920000000  0.4972980000000 1.0
C      1  0.5257260000000  0.5182560000000  0.5525270000000 1.0
C      1  0.5380780000000  0.5968060000000  0.5177190000000 1.0
C      1  0.4445310000000  0.4300940000000  0.5787150000000 1.0
C      1  0.5393300000000  0.5300780000000  0.4578430000000 1.0
C      1  0.5092100000000  0.6201360000000  0.4820830000000 1.0
C      1  0.5434030000000  0.4317990000000  0.5718270000000 1.0
C      1  0.5356140000000  0.5788700000000  0.5457670000000 1.0
C      1  0.5671780000000  0.5126300000000  0.5810140000000 1.0
C      1  0.4222130000000  0.4896510000000  0.4306730000000 1.0
C      1  0.4848060000000  0.5824140000000  0.4278930000000 1.0
C      1  0.5654520000000  0.4379420000000  0.5561970000000 1.0
C      1  0.6076370000000  0.4503330000000  0.4557960000000 1.0
C      1  0.5754030000000  0.4910680000000  0.5007310000000 1.0
C      1  0.4477420000000  0.5374950000000  0.5731790000000 1.0
C      1  0.4970070000000  0.4737750000000  0.4476830000000 1.0
C      1  0.5079080000000  0.6022570000000  0.4433860000000 1.0
C      1  0.5192960000000  0.4498870000000  0.5823230000000 1.0
C      1  0.4529530000000  0.5651820000000  0.5941630000000 1.0
C      1  0.5298060000000  0.4043190000000  0.5693430000000 1.0
C      1  0.4024800000000  0.4636530000000  0.4798240000000 1.0
C      1  0.4206580000000  0.4914490000000  0.4723940000000 1.0
C      1  0.4173880000000  0.5281790000000  0.5753990000000 1.0
C      1  0.5315340000000  0.5567510000000  0.4389700000000 1.0
C      1  0.4475750000000  0.5559210000000  0.4743590000000 1.0
C      1  0.4629560000000  0.5746380000000  0.5399270000000 1.0
C      1  0.4702020000000  0.5242480000000  0.3930930000000 1.0
C      1  0.5413270000000  0.5638060000000  0.5164940000000 1.0
C      1  0.4736480000000  0.4954440000000  0.4732490000000 1.0
C      1  0.5494070000000  0.5112770000000  0.5050640000000 1.0
C      1  0.5383960000000  0.4432010000000  0.4803340000000 1.0
C      1  0.5722080000000  0.5719500000000  0.4927830000000 1.0
C      1  0.4198700000000  0.5619050000000  0.5408050000000 1.0
C      1  0.5460810000000  0.5326220000000  0.5915970000000 1.0
C      1  0.5694110000000  0.6000830000000  0.4813100000000 1.0
C      1  0.4386040000000  0.4911540000000  0.5110510000000 1.0
C      1  0.5509330000000  0.5054730000000  0.4726100000000 1.0
C      1  0.4628330000000  0.5102550000000  0.5848960000000 1.0
C      1  0.5047000000000  0.5654260000000  0.4580360000000 1.0
C      1  0.5648900000000  0.4746170000000  0.5404890000000 1.0
C      1  0.5732080000000  0.4607120000000  0.4233440000000 1.0
C      1  0.4898020000000  0.5037390000000  0.4324500000000 1.0
C      1  0.4903110000000  0.6099350000000  0.5364770000000 1.0
C      1  0.4784200000000  0.4761660000000  0.4971410000000 1.0
C      1  0.5337800000000  0.4427530000000  0.4501760000000 1.0
C      1  0.4421270000000  0.5534960000000  0.4216440000000 1.0
C      1  0.5093970000000  0.6071440000000  0.5124470000000 1.0
C      1  0.5039110000000  0.4022850000000  0.4700800000000 1.0
C      1  0.5856930000000  0.5573730000000  0.4566070000000 1.0
C      1  0.4271210000000  0.5259370000000  0.5257060000000 1.0
C      1  0.5098190000000  0.5648830000000  0.5518080000000 1.0
C      1  0.5135270000000  0.4102250000000  0.4399320000000 1.0
C      1  0.4549150000000  0.4207140000000  0.5476950000000 1.0
C      1  0.4892900000000  0.5217680000000  0.6013620000000 1.0
C      1  0.5289050000000  0.4694500000000  0.5238400000000 1.0
C      1  0.5485950000000  0.4675830000000  0.4411660000000 1.0
C      1  0.4790100000000  0.5472420000000  0.5823600000000 1.0
C      1  0.4698270000000  0.4314110000000  0.4937250000000 1.0
C      1  0.5438530000000  0.4735340000000  0.5632210000000 1.0
C      1  0.5752450000000  0.5175250000000  0.3862170000000 1.0
C      1  0.5574230000000  0.5505610000000  0.4177890000000 1.0
C      1  0.4758930000000  0.4419460000000  0.4151120000000 1.0
C      1  0.5015710000000  0.5005740000000  0.4046880000000 1.0
C      1  0.5793290000000  0.5728980000000  0.5250310000000 1.0
C      1  0.5258110000000  0.4703550000000  0.4927980000000 1.0
C      1  0.4413870000000  0.4131080000000  0.4902240000000 1.0
C      1  0.5472670000000  0.4141620000000  0.4414060000000 1.0
C      1  0.4338710000000  0.4440590000000  0.4477870000000 1.0
C      1  0.4980310000000  0.4158770000000  0.5238850000000 1.0
C      1  0.5451280000000  0.4502980000000  0.4053940000000 1.0
C      1  0.4109940000000  0.4670430000000  0.5350480000000 1.0
C      1  0.4737260000000  0.4132050000000  0.5833380000000 1.0
C      1  0.4690320000000  0.4033900000000  0.5220700000000 1.0
C      1  0.6092420000000  0.4714200000000  0.5032880000000 1.0
C      1  0.5329220000000  0.5959480000000  0.4609640000000 1.0
C      1  0.4865770000000  0.5853190000000  0.5501890000000 1.0
C      1  0.4411800000000  0.4664780000000  0.4702200000000 1.0
C      1  0.4527030000000  0.4212230000000  0.4591940000000 1.0
C      1  0.5623450000000  0.5615760000000  0.5504440000000 1.0
C      1  0.4278040000000  0.4480970000000  0.5577120000000 1.0
C      1  0.5335810000000  0.4089420000000  0.5405270000000 1.0
C      1  0.4140230000000  0.5717780000000  0.5141040000000 1.0
C      1  0.3774870000000  0.4635730000000  0.5396610000000 1.0
C      1  0.4043070000000  0.5491690000000  0.5621340000000 1.0
C      1  0.5001570000000  0.4544760000000  0.4825370000000 1.0
C      1  0.5015800000000  0.4889680000000  0.5185020000000 1.0
C      1  0.5124630000000  0.4989660000000  0.4643810000000 1.0
C      1  0.4916230000000  0.5391560000000  0.4028180000000 1.0
C      1  0.4942750000000  0.5548520000000  0.5248680000000 1.0
C      1  0.3969970000000  0.5347520000000  0.4828020000000 1.0
C      1  0.5928350000000  0.4784890000000  0.5507980000000 1.0
C      1  0.5179070000000  0.5034030000000  0.4949680000000 1.0
C      1  0.4180230000000  0.4355080000000  0.4797870000000 1.0
C      1  0.4568820000000  0.5913440000000  0.5133450000000 1.0
C      1  0.3827510000000  0.4829550000000  0.4643220000000 1.0
C      1  0.4966760000000  0.5015410000000  0.5467060000000 1.0
C      1  0.5226880000000  0.4808840000000  0.5959240000000 1.0
C      1  0.4863700000000  0.5805370000000  0.5080970000000 1.0
C      1  0.6386160000000  0.4696390000000  0.5412140000000 1.0
C      1  0.5773990000000  0.4202660000000  0.4817460000000 1.0
C      1  0.4699320000000  0.4890490000000  0.5626660000000 1.0
C      1  0.5409100000000  0.6137970000000  0.4887960000000 1.0
C      1  0.5881950000000  0.4880380000000  0.5775280000000 1.0
C      1  0.6036880000000  0.5569670000000  0.5429710000000 1.0
C      1  0.4877020000000  0.5502210000000  0.4328190000000 1.0
C      1  0.4622790000000  0.4811730000000  0.5333500000000 1.0
C      1  0.4570580000000  0.5724630000000  0.4455900000000 1.0
C      1  0.5177420000000  0.4511590000000  0.4073280000000 1.0
C      1  0.4046640000000  0.4891300000000  0.5104330000000 1.0
C      1  0.5197310000000  0.5387640000000  0.4126130000000 1.0
C      1  0.4748160000000  0.4913020000000  0.3858670000000 1.0
C      1  0.3913060000000  0.5625330000000  0.5008830000000 1.0
C      1  0.5024510000000  0.4421770000000  0.4363520000000 1.0
C      1  0.4652340000000  0.4742500000000  0.4504370000000 1.0
C      1  0.4398660000000  0.5354780000000  0.4482950000000 1.0
C      1  0.6016420000000  0.4985720000000  0.4841940000000 1.0
C      1  0.4462720000000  0.5093020000000  0.4858890000000 1.0
C      1  0.4772550000000  0.5269180000000  0.5341910000000 1.0
C      1  0.5653880000000  0.4594750000000  0.4931130000000 1.0
C      1  0.4298410000000  0.4582560000000  0.4200410000000 1.0
C      1  0.4328690000000  0.4976770000000  0.5748610000000 1.0
C      1  0.4645580000000  0.6206120000000  0.5275740000000 1.0
C      1  0.5312600000000  0.4018010000000  0.4867160000000 1.0
C      1  0.5068000000000  0.5268300000000  0.4484590000000 1.0
C      1  0.3834170000000  0.4627490000000  0.5067440000000 1.0
C      1  0.4262360000000  0.4963150000000  0.5432880000000 1.0
C      1  0.5544820000000  0.5388270000000  0.5156940000000 1.0
C      1  0.4321030000000  0.4183430000000  0.5225230000000 1.0
C      1  0.5318340000000  0.5090590000000  0.4114590000000 1.0
C      1  0.4818310000000  0.4551870000000  0.5233330000000 1.0
C      1  0.4425810000000  0.4560550000000  0.5286300000000 1.0
C      1  0.4986420000000  0.4692960000000  0.3969060000000 1.0
C      1  0.4530410000000  0.3825040000000  0.5005210000000 1.0
C      1  0.5632270000000  0.5432270000000  0.4769330000000 1.0
C      1  0.5102470000000  0.4727610000000  0.5588310000000 1.0
C      1  0.4511900000000  0.4558090000000  0.4976850000000 1.0
C      1  0.4696280000000  0.5288230000000  0.5010390000000 1.0
C      1  0.5569140000000  0.5268290000000  0.4042250000000 1.0
C      1  0.5025310000000  0.4436680000000  0.5429750000000 1.0
C      1  0.5135830000000  0.5551210000000  0.4891240000000 1.0
C      1  0.4157160000000  0.5151360000000  0.4405460000000 1.0
C      1  0.4810950000000  0.5525550000000  0.4793880000000 1.0
C      1  0.4464580000000  0.5395860000000  0.3984300000000 1.0
END
