TITL C-2847947-6848-2 0.0799306094156695 125000 -167.618086882215 0 0 29 (C1) n - 1
REM
REM in /home/bkarasulu/work/CARBON/AIRSS/Generating-Clusters/AIREBO/with-SteepDescent/Only-C1/SD-CG-opt/Try1-1.4A-POS3A/HFTN-CG
REM
REM
REM
REM
REM
REM ./C.cell (11c1c37f851c82e70ff6c80c92926a4b)
REM
REM compiler GCC version 9.2.1 20190827 (Red Hat 9.2.1-1)
REM options -cpp -mtune=generic -march=x86-64 -g -O0 -fpre-include=/usr/include/finclude/math-vector-fortran.h
REM seed -1472607997 -668296491 -758346200 1892969214 -1366152426 -1423519666 279586308 -1297629522 -734759673 -1094883145 -750272173 -2000497570 -812837947 -1641850277 -1136690815 -2046323587 -1280439699 -764411778 -2104701375 1788837169 -371660343 -637630094 498181581 -1547208939 -1159862038 -627477773 1061299440 -612525409 -973290727 1820000068 -88328456 313369771 1855286451
REM
CELL 1.54180   50.00000   50.00000   50.00000   90.00000   90.00000   90.00000
LATT -1
SFAC C  
C      1  0.4403090000000  0.5245770000000  0.5428950000000 1.0
C      1  0.5461860000000  0.3583460000000  0.4717910000000 1.0
C      1  0.5565950000000  0.6042100000000  0.4807860000000 1.0
C      1  0.4316570000000  0.4777770000000  0.5478230000000 1.0
C      1  0.5425440000000  0.6109000000000  0.5027170000000 1.0
C      1  0.5667300000000  0.5843710000000  0.4656710000000 1.0
C      1  0.4406170000000  0.5497340000000  0.5547020000000 1.0
C      1  0.5211570000000  0.4946670000000  0.4522190000000 1.0
C      1  0.5538270000000  0.5366300000000  0.4488240000000 1.0
C      1  0.4793070000000  0.5849890000000  0.5401690000000 1.0
C      1  0.4213380000000  0.5568390000000  0.5722560000000 1.0
C      1  0.4610920000000  0.5673360000000  0.5483490000000 1.0
C      1  0.4756460000000  0.4801190000000  0.4603690000000 1.0
C      1  0.5037300000000  0.4745000000000  0.4598900000000 1.0
C      1  0.4520010000000  0.4935110000000  0.5074800000000 1.0
C      1  0.5451760000000  0.3656250000000  0.5429170000000 1.0
C      1  0.4612590000000  0.4782650000000  0.4375690000000 1.0
C      1  0.5199720000000  0.6099570000000  0.5171770000000 1.0
C      1  0.5007240000000  0.5984830000000  0.5317570000000 1.0
C      1  0.5365820000000  0.5162560000000  0.4498200000000 1.0
C      1  0.5442550000000  0.3716050000000  0.5174130000000 1.0
C      1  0.4639640000000  0.4882380000000  0.4842250000000 1.0
C      1  0.5618180000000  0.5620710000000  0.4515130000000 1.0
C      1  0.5127620000000  0.4492250000000  0.4667230000000 1.0
C      1  0.5322080000000  0.4024100000000  0.4828850000000 1.0
C      1  0.4242440000000  0.4577120000000  0.5629700000000 1.0
C      1  0.5406730000000  0.3770980000000  0.4904550000000 1.0
C      1  0.4420190000000  0.4987540000000  0.5328510000000 1.0
C      1  0.5216070000000  0.4257930000000  0.4757850000000 1.0
END
