TITL C-2848500-1637-522 -0.001849668875924 125000 -675.415472906426 0 0 127 (C1) n - 1
REM
REM in /home/bkarasulu/work/CARBON/AIRSS/Generating-Clusters/AIREBO/with-SteepDescent/Only-C1/SD-CG-opt/Try1-1.4A-POS3A/HFTN-CG
REM
REM
REM
REM
REM
REM ./C.cell (11c1c37f851c82e70ff6c80c92926a4b)
REM
REM compiler GCC version 9.2.1 20190827 (Red Hat 9.2.1-1)
REM options -cpp -mtune=generic -march=x86-64 -g -O0 -fpre-include=/usr/include/finclude/math-vector-fortran.h
REM seed 855172525 -1413758767 -678710698 1241303440 -992235120 847314871 385866986 1025766864 1201623821 862207874 1765702146 -947620440 1654898685 2076165677 1304836791 1990670565 1086726999 22808507 1535005281 261167068 960790106 1955545169 -1989659410 852505879 566492289 -1116824753 2057749649 1522384146 1678522672 -2103601221 -561794596 2142810158 401998393
REM
CELL 1.54180   50.00000   50.00000   50.00000   90.00000   90.00000   90.00000
LATT -1
SFAC C  
C      1  0.5376680000000  0.4242780000000  0.5476760000000 1.0
C      1  0.5619400000000  0.4208240000000  0.5241050000000 1.0
C      1  0.4807060000000  0.4422070000000  0.5177140000000 1.0
C      1  0.4424330000000  0.5694550000000  0.4617340000000 1.0
C      1  0.5781510000000  0.5085110000000  0.5549780000000 1.0
C      1  0.5329530000000  0.5483320000000  0.4560170000000 1.0
C      1  0.4787120000000  0.4170950000000  0.4411240000000 1.0
C      1  0.5331650000000  0.5689550000000  0.4930300000000 1.0
C      1  0.4051280000000  0.5276580000000  0.4698570000000 1.0
C      1  0.4787880000000  0.5406060000000  0.4866510000000 1.0
C      1  0.5467490000000  0.4980000000000  0.5897090000000 1.0
C      1  0.5875930000000  0.4631130000000  0.5204120000000 1.0
C      1  0.5970820000000  0.5103700000000  0.4982130000000 1.0
C      1  0.4394590000000  0.4416540000000  0.4565280000000 1.0
C      1  0.5804570000000  0.4754430000000  0.5484140000000 1.0
C      1  0.5349220000000  0.4456810000000  0.4713100000000 1.0
C      1  0.4982630000000  0.4717770000000  0.4160760000000 1.0
C      1  0.5638070000000  0.4517970000000  0.4782300000000 1.0
C      1  0.5606000000000  0.5199250000000  0.5281700000000 1.0
C      1  0.4836190000000  0.4750530000000  0.5510440000000 1.0
C      1  0.5829410000000  0.5584150000000  0.5026160000000 1.0
C      1  0.4720360000000  0.5616290000000  0.5499920000000 1.0
C      1  0.4834990000000  0.4255250000000  0.5536310000000 1.0
C      1  0.4902070000000  0.5714110000000  0.4391570000000 1.0
C      1  0.4587440000000  0.4880450000000  0.5702570000000 1.0
C      1  0.4334440000000  0.5456190000000  0.5131840000000 1.0
C      1  0.5763340000000  0.5040630000000  0.4646910000000 1.0
C      1  0.4985740000000  0.4114940000000  0.4607020000000 1.0
C      1  0.5624900000000  0.5634480000000  0.4782980000000 1.0
C      1  0.4286500000000  0.5413360000000  0.4672720000000 1.0
C      1  0.4890430000000  0.4936580000000  0.4404150000000 1.0
C      1  0.5376930000000  0.5275950000000  0.4825710000000 1.0
C      1  0.4228800000000  0.4825950000000  0.4312140000000 1.0
C      1  0.4492950000000  0.5723140000000  0.5270650000000 1.0
C      1  0.5302500000000  0.4553590000000  0.4420330000000 1.0
C      1  0.4825480000000  0.5916690000000  0.4893930000000 1.0
C      1  0.5690530000000  0.5281470000000  0.4957560000000 1.0
C      1  0.4005400000000  0.4954570000000  0.5336430000000 1.0
C      1  0.4799160000000  0.5476970000000  0.5199780000000 1.0
C      1  0.5486880000000  0.5202520000000  0.4413900000000 1.0
C      1  0.4527240000000  0.4597420000000  0.4803530000000 1.0
C      1  0.5680850000000  0.5138980000000  0.5799790000000 1.0
C      1  0.5766410000000  0.5640950000000  0.5291360000000 1.0
C      1  0.4585530000000  0.5074170000000  0.4341270000000 1.0
C      1  0.4520720000000  0.4161000000000  0.4534660000000 1.0
C      1  0.4637760000000  0.5965670000000  0.5092650000000 1.0
C      1  0.5771260000000  0.4667680000000  0.4507160000000 1.0
C      1  0.5151550000000  0.5928640000000  0.5258580000000 1.0
C      1  0.4322350000000  0.5024250000000  0.4550240000000 1.0
C      1  0.4221310000000  0.4627290000000  0.5278150000000 1.0
C      1  0.5096640000000  0.5205900000000  0.4006090000000 1.0
C      1  0.4853310000000  0.5571240000000  0.5814740000000 1.0
C      1  0.5517870000000  0.4874830000000  0.5346570000000 1.0
C      1  0.5347650000000  0.4974330000000  0.4709930000000 1.0
C      1  0.5890100000000  0.4845160000000  0.5028970000000 1.0
C      1  0.5463510000000  0.5499560000000  0.5353700000000 1.0
C      1  0.4375940000000  0.4651990000000  0.5580050000000 1.0
C      1  0.4885730000000  0.4392250000000  0.4186670000000 1.0
C      1  0.5014070000000  0.5368980000000  0.4615390000000 1.0
C      1  0.5014880000000  0.4814340000000  0.5985690000000 1.0
C      1  0.5394960000000  0.4641950000000  0.5561910000000 1.0
C      1  0.5194840000000  0.4946830000000  0.4084350000000 1.0
C      1  0.5450190000000  0.5801220000000  0.4568840000000 1.0
C      1  0.4429120000000  0.4819250000000  0.4996790000000 1.0
C      1  0.5743460000000  0.4540790000000  0.5729040000000 1.0
C      1  0.5683640000000  0.4375350000000  0.5498670000000 1.0
C      1  0.4754220000000  0.5700370000000  0.4699460000000 1.0
C      1  0.4791770000000  0.5332020000000  0.4405940000000 1.0
C      1  0.4601760000000  0.4754330000000  0.5257630000000 1.0
C      1  0.4355580000000  0.5151610000000  0.4982090000000 1.0
C      1  0.4738790000000  0.4935520000000  0.4773770000000 1.0
C      1  0.5214140000000  0.5475840000000  0.4040720000000 1.0
C      1  0.5116590000000  0.5939410000000  0.4952620000000 1.0
C      1  0.4479080000000  0.4440710000000  0.5256840000000 1.0
C      1  0.4534040000000  0.4375650000000  0.5646900000000 1.0
C      1  0.4641200000000  0.4150550000000  0.5277020000000 1.0
C      1  0.5687850000000  0.4931460000000  0.4368950000000 1.0
C      1  0.4062550000000  0.4986700000000  0.4766440000000 1.0
C      1  0.4106080000000  0.4846210000000  0.5042680000000 1.0
C      1  0.5503900000000  0.4704760000000  0.5837230000000 1.0
C      1  0.5113790000000  0.5374310000000  0.5859640000000 1.0
C      1  0.4555290000000  0.5209360000000  0.4715050000000 1.0
C      1  0.4586090000000  0.5594240000000  0.4354190000000 1.0
C      1  0.4829470000000  0.5246260000000  0.4079700000000 1.0
C      1  0.4763650000000  0.5139460000000  0.5454220000000 1.0
C      1  0.5049510000000  0.4865710000000  0.4709510000000 1.0
C      1  0.4945990000000  0.5863110000000  0.5437700000000 1.0
C      1  0.4537170000000  0.5386180000000  0.5670810000000 1.0
C      1  0.5295940000000  0.4852650000000  0.4396270000000 1.0
C      1  0.5108500000000  0.4055270000000  0.5541580000000 1.0
C      1  0.5043740000000  0.4995920000000  0.5582860000000 1.0
C      1  0.5709090000000  0.5357040000000  0.4625450000000 1.0
C      1  0.4490750000000  0.3981110000000  0.4764920000000 1.0
C      1  0.4423040000000  0.5161310000000  0.5471010000000 1.0
C      1  0.4937900000000  0.4583080000000  0.5788350000000 1.0
C      1  0.5261370000000  0.4169450000000  0.4599870000000 1.0
C      1  0.4835770000000  0.4485760000000  0.4870100000000 1.0
C      1  0.4708670000000  0.4689680000000  0.4551130000000 1.0
C      1  0.5613210000000  0.4839770000000  0.4866250000000 1.0
C      1  0.5149890000000  0.5156040000000  0.4418880000000 1.0
C      1  0.4517150000000  0.5340400000000  0.4134140000000 1.0
C      1  0.4709150000000  0.4401880000000  0.5885460000000 1.0
C      1  0.5144810000000  0.5595910000000  0.4297790000000 1.0
C      1  0.4218260000000  0.4947230000000  0.5519100000000 1.0
C      1  0.5169670000000  0.5049790000000  0.5271600000000 1.0
C      1  0.5395400000000  0.5832260000000  0.5335600000000 1.0
C      1  0.4342570000000  0.4568930000000  0.4308500000000 1.0
C      1  0.4670120000000  0.4037900000000  0.4983080000000 1.0
C      1  0.5235280000000  0.5469680000000  0.5570950000000 1.0
C      1  0.5270630000000  0.5431300000000  0.5085740000000 1.0
C      1  0.5302780000000  0.6006440000000  0.4688550000000 1.0
C      1  0.5736490000000  0.4416700000000  0.5069700000000 1.0
C      1  0.5172560000000  0.5067290000000  0.5863260000000 1.0
C      1  0.4640000000000  0.4557840000000  0.4284410000000 1.0
C      1  0.4878420000000  0.4178830000000  0.4859260000000 1.0
C      1  0.4991240000000  0.4679650000000  0.5216130000000 1.0
C      1  0.5027560000000  0.5211210000000  0.5008830000000 1.0
C      1  0.5116050000000  0.4447680000000  0.5552510000000 1.0
C      1  0.4826200000000  0.4950760000000  0.5094140000000 1.0
C      1  0.5143760000000  0.4622440000000  0.4915720000000 1.0
C      1  0.5351890000000  0.4832330000000  0.5083820000000 1.0
C      1  0.4400290000000  0.5685940000000  0.4940170000000 1.0
C      1  0.5206250000000  0.4394060000000  0.4220020000000 1.0
C      1  0.5027840000000  0.5337090000000  0.5386430000000 1.0
C      1  0.4585590000000  0.5123070000000  0.5831310000000 1.0
C      1  0.5068320000000  0.5720890000000  0.5665840000000 1.0
C      1  0.4574260000000  0.5146960000000  0.5194850000000 1.0
END
