TITL C-2848504-8560-130 0.00010494311442683 125000 -166.37302561442 0 0 31 (C1) n - 1
REM
REM in /home/bkarasulu/work/CARBON/AIRSS/Generating-Clusters/AIREBO/with-SteepDescent/Only-C1/SD-CG-opt/Try1-1.4A-POS3A/HFTN-CG
REM
REM
REM
REM
REM
REM ./C.cell (11c1c37f851c82e70ff6c80c92926a4b)
REM
REM compiler GCC version 9.2.1 20190827 (Red Hat 9.2.1-1)
REM options -cpp -mtune=generic -march=x86-64 -g -O0 -fpre-include=/usr/include/finclude/math-vector-fortran.h
REM seed 1816903570 -1055770707 -1563490676 855424530 1514519588 1069746409 245546486 2067298334 -1975883873 478725505 275516809 15918266 1379100999 -622284297 -1669556884 -1317953414 -1244215088 -501621053 -2089873238 -1952160423 1217780045 -1739223938 1824551167 -559988162 -1365246307 2137513287 1697611632 -385880803 203844461 -2084793527 2017931653 265563138 826545544
REM
CELL 1.54180   50.00000   50.00000   50.00000   90.00000   90.00000   90.00000
LATT -1
SFAC C  
C      1  0.5000910000000  0.4370770000000  0.5142520000000 1.0
C      1  0.5351180000000  0.4582640000000  0.4606620000000 1.0
C      1  0.4677080000000  0.5366760000000  0.4641560000000 1.0
C      1  0.5311610000000  0.4581020000000  0.5695960000000 1.0
C      1  0.5339800000000  0.5087880000000  0.5121020000000 1.0
C      1  0.4333870000000  0.5212710000000  0.5010350000000 1.0
C      1  0.4941020000000  0.4971060000000  0.4844120000000 1.0
C      1  0.5349770000000  0.4748640000000  0.5505260000000 1.0
C      1  0.4966860000000  0.4124170000000  0.5198720000000 1.0
C      1  0.5355810000000  0.5605940000000  0.4848010000000 1.0
C      1  0.4168580000000  0.5659350000000  0.5122610000000 1.0
C      1  0.5153630000000  0.5178640000000  0.4915780000000 1.0
C      1  0.4568610000000  0.5579690000000  0.4856260000000 1.0
C      1  0.5577900000000  0.4590790000000  0.4760410000000 1.0
C      1  0.5068940000000  0.4694590000000  0.4742990000000 1.0
C      1  0.4382060000000  0.5066110000000  0.5246530000000 1.0
C      1  0.5065040000000  0.4659180000000  0.5061690000000 1.0
C      1  0.5137260000000  0.5448320000000  0.4855270000000 1.0
C      1  0.5332030000000  0.4763670000000  0.5176480000000 1.0
C      1  0.4740750000000  0.4934830000000  0.4393050000000 1.0
C      1  0.5570160000000  0.4623220000000  0.5032070000000 1.0
C      1  0.4345680000000  0.5497270000000  0.5002680000000 1.0
C      1  0.5622310000000  0.5242150000000  0.5215700000000 1.0
C      1  0.5418600000000  0.5039940000000  0.5448660000000 1.0
C      1  0.4812490000000  0.4851480000000  0.5123580000000 1.0
C      1  0.4426140000000  0.5085430000000  0.4774400000000 1.0
C      1  0.4629310000000  0.4952610000000  0.5280450000000 1.0
C      1  0.4884580000000  0.5544660000000  0.4798220000000 1.0
C      1  0.5103500000000  0.4598890000000  0.4417750000000 1.0
C      1  0.4723530000000  0.5058660000000  0.4643540000000 1.0
C      1  0.5640970000000  0.5278930000000  0.5517750000000 1.0
END
