TITL C-2847947-6848-682 -0.00112133935338896 125000 -701.054258588009 0 0 129 (C1) n - 1
REM
REM in /home/bkarasulu/work/CARBON/AIRSS/Generating-Clusters/AIREBO/with-SteepDescent/Only-C1/SD-CG-opt/Try1-1.4A-POS3A/HFTN-CG
REM
REM
REM
REM
REM
REM ./C.cell (11c1c37f851c82e70ff6c80c92926a4b)
REM
REM compiler GCC version 9.2.1 20190827 (Red Hat 9.2.1-1)
REM options -cpp -mtune=generic -march=x86-64 -g -O0 -fpre-include=/usr/include/finclude/math-vector-fortran.h
REM seed 727857133 -1317232121 1243760443 878939544 -48776927 134203866 -2122247440 381063441 -1446923400 -689300570 1063053481 -308632601 765780784 -643533428 1071097023 484161555 -522901 -61325955 -24431478 393617640 664016213 393699624 -517535917 -1187363543 -892205435 1067586711 986378830 -1445323228 -389450326 1353174106 -385576866 1867604300 874532822
REM
CELL 1.54180   50.00000   50.00000   50.00000   90.00000   90.00000   90.00000
LATT -1
SFAC C  
C      1  0.4718600000000  0.5463770000000  0.5487560000000 1.0
C      1  0.5814160000000  0.5448900000000  0.5214660000000 1.0
C      1  0.5520300000000  0.4707300000000  0.5145390000000 1.0
C      1  0.4714320000000  0.4267090000000  0.4373270000000 1.0
C      1  0.4237960000000  0.4711640000000  0.5246500000000 1.0
C      1  0.4261940000000  0.5224220000000  0.5324670000000 1.0
C      1  0.4042790000000  0.5078030000000  0.5138460000000 1.0
C      1  0.4726900000000  0.5650810000000  0.4752790000000 1.0
C      1  0.4764810000000  0.4453980000000  0.4886760000000 1.0
C      1  0.5545670000000  0.4453680000000  0.4317010000000 1.0
C      1  0.4382040000000  0.4998290000000  0.4783010000000 1.0
C      1  0.4809270000000  0.4722360000000  0.5873800000000 1.0
C      1  0.4950640000000  0.4856000000000  0.4221130000000 1.0
C      1  0.5150790000000  0.4484530000000  0.4531470000000 1.0
C      1  0.5121280000000  0.5141670000000  0.5871460000000 1.0
C      1  0.4091450000000  0.4885290000000  0.4918830000000 1.0
C      1  0.4610670000000  0.4360840000000  0.5510410000000 1.0
C      1  0.4772090000000  0.5281850000000  0.4388130000000 1.0
C      1  0.5427190000000  0.5255220000000  0.4309340000000 1.0
C      1  0.4200700000000  0.4793120000000  0.4581400000000 1.0
C      1  0.4277810000000  0.5307000000000  0.4781550000000 1.0
C      1  0.4379030000000  0.5680560000000  0.5709050000000 1.0
C      1  0.5617290000000  0.5516440000000  0.4420070000000 1.0
C      1  0.5284810000000  0.4361620000000  0.4177250000000 1.0
C      1  0.5036970000000  0.4455660000000  0.5065610000000 1.0
C      1  0.4980240000000  0.4001670000000  0.5048340000000 1.0
C      1  0.4529670000000  0.4586570000000  0.5338650000000 1.0
C      1  0.4415030000000  0.5394090000000  0.5577190000000 1.0
C      1  0.5132890000000  0.5412610000000  0.5860800000000 1.0
C      1  0.4987320000000  0.4100260000000  0.4787870000000 1.0
C      1  0.5598980000000  0.4963450000000  0.4275600000000 1.0
C      1  0.4706820000000  0.4694020000000  0.5068370000000 1.0
C      1  0.5689430000000  0.5151140000000  0.5273650000000 1.0
C      1  0.4602910000000  0.5831240000000  0.5757360000000 1.0
C      1  0.5005770000000  0.4526270000000  0.5809240000000 1.0
C      1  0.4182580000000  0.5611320000000  0.4735440000000 1.0
C      1  0.5290770000000  0.4217180000000  0.4688460000000 1.0
C      1  0.5248610000000  0.3967010000000  0.5214390000000 1.0
C      1  0.5970760000000  0.5131840000000  0.4896790000000 1.0
C      1  0.4779520000000  0.5314740000000  0.4726700000000 1.0
C      1  0.5293290000000  0.4619930000000  0.5815840000000 1.0
C      1  0.5569880000000  0.5957310000000  0.5052560000000 1.0
C      1  0.4501910000000  0.3929810000000  0.4812960000000 1.0
C      1  0.5242260000000  0.5006930000000  0.4168050000000 1.0
C      1  0.5863090000000  0.4596300000000  0.4974660000000 1.0
C      1  0.4615940000000  0.5042150000000  0.5311300000000 1.0
C      1  0.5408640000000  0.5922470000000  0.4192900000000 1.0
C      1  0.5168780000000  0.5015510000000  0.4942700000000 1.0
C      1  0.4754160000000  0.5141090000000  0.5018250000000 1.0
C      1  0.4220500000000  0.4925790000000  0.5482780000000 1.0
C      1  0.5311050000000  0.4941130000000  0.5930670000000 1.0
C      1  0.4508650000000  0.4253740000000  0.4866670000000 1.0
C      1  0.4492040000000  0.4466300000000  0.4340710000000 1.0
C      1  0.5071240000000  0.5970380000000  0.5158520000000 1.0
C      1  0.5921910000000  0.5017550000000  0.4634120000000 1.0
C      1  0.5295200000000  0.4247140000000  0.5027320000000 1.0
C      1  0.4956510000000  0.4906390000000  0.5159190000000 1.0
C      1  0.5905170000000  0.5406220000000  0.4938000000000 1.0
C      1  0.4982920000000  0.4314850000000  0.4289200000000 1.0
C      1  0.4885780000000  0.5012630000000  0.5729040000000 1.0
C      1  0.5090630000000  0.5298680000000  0.4849400000000 1.0
C      1  0.5407170000000  0.4288070000000  0.5347520000000 1.0
C      1  0.4563120000000  0.4730620000000  0.4180200000000 1.0
C      1  0.5063510000000  0.5891920000000  0.5427320000000 1.0
C      1  0.4564710000000  0.4941990000000  0.5954650000000 1.0
C      1  0.5297170000000  0.5442620000000  0.4642740000000 1.0
C      1  0.4286070000000  0.4529280000000  0.4534200000000 1.0
C      1  0.5107840000000  0.5363390000000  0.5243570000000 1.0
C      1  0.4672960000000  0.5000210000000  0.4653160000000 1.0
C      1  0.4721590000000  0.4123380000000  0.4642560000000 1.0
C      1  0.5662720000000  0.4690510000000  0.4205930000000 1.0
C      1  0.4005010000000  0.5512740000000  0.4492260000000 1.0
C      1  0.5284770000000  0.4636880000000  0.4967800000000 1.0
C      1  0.4818230000000  0.5945430000000  0.5007110000000 1.0
C      1  0.4734850000000  0.4756750000000  0.4465120000000 1.0
C      1  0.5280240000000  0.5972620000000  0.4966070000000 1.0
C      1  0.5658000000000  0.5036230000000  0.4550700000000 1.0
C      1  0.5817140000000  0.4927250000000  0.5674890000000 1.0
C      1  0.5185090000000  0.4778080000000  0.4699810000000 1.0
C      1  0.5407800000000  0.4809850000000  0.5426640000000 1.0
C      1  0.4744510000000  0.6181080000000  0.4539100000000 1.0
C      1  0.5451300000000  0.5758250000000  0.4405720000000 1.0
C      1  0.5180700000000  0.5006110000000  0.5394630000000 1.0
C      1  0.4584730000000  0.5709340000000  0.4449430000000 1.0
C      1  0.5109870000000  0.5272070000000  0.4430930000000 1.0
C      1  0.4254810000000  0.4377670000000  0.4789180000000 1.0
C      1  0.5534380000000  0.4837300000000  0.5714710000000 1.0
C      1  0.4752420000000  0.4797660000000  0.5485470000000 1.0
C      1  0.5004720000000  0.5019400000000  0.4580430000000 1.0
C      1  0.4893640000000  0.4104720000000  0.5322620000000 1.0
C      1  0.5204860000000  0.5561870000000  0.5010870000000 1.0
C      1  0.4524900000000  0.5458630000000  0.4342310000000 1.0
C      1  0.5172630000000  0.5684070000000  0.5676710000000 1.0
C      1  0.5509490000000  0.5657150000000  0.4904600000000 1.0
C      1  0.5185180000000  0.4112780000000  0.5514990000000 1.0
C      1  0.4993960000000  0.4614900000000  0.5330820000000 1.0
C      1  0.3949550000000  0.4296430000000  0.4917890000000 1.0
C      1  0.4839980000000  0.5717060000000  0.5614560000000 1.0
C      1  0.5386560000000  0.5261110000000  0.5369870000000 1.0
C      1  0.5578010000000  0.4370300000000  0.4590000000000 1.0
C      1  0.5897370000000  0.4697290000000  0.5276860000000 1.0
C      1  0.5456570000000  0.5148060000000  0.4706010000000 1.0
C      1  0.4622180000000  0.6057040000000  0.5909260000000 1.0
C      1  0.4888510000000  0.5635120000000  0.5041140000000 1.0
C      1  0.5786880000000  0.4427350000000  0.4768600000000 1.0
C      1  0.5469380000000  0.5082210000000  0.5023670000000 1.0
C      1  0.5862090000000  0.4941150000000  0.5404900000000 1.0
C      1  0.4284460000000  0.5359580000000  0.4444130000000 1.0
C      1  0.4849350000000  0.4545200000000  0.4624240000000 1.0
C      1  0.5741010000000  0.4898890000000  0.4970440000000 1.0
C      1  0.5744880000000  0.5544430000000  0.4734560000000 1.0
C      1  0.5505850000000  0.4450630000000  0.5627690000000 1.0
C      1  0.4086830000000  0.4570470000000  0.5012510000000 1.0
C      1  0.5668170000000  0.4476230000000  0.5328570000000 1.0
C      1  0.4693490000000  0.5040200000000  0.4190770000000 1.0
C      1  0.5220870000000  0.4679160000000  0.4257760000000 1.0
C      1  0.4670880000000  0.5492610000000  0.5186750000000 1.0
C      1  0.4396990000000  0.5778420000000  0.4700400000000 1.0
C      1  0.4759180000000  0.5990130000000  0.4726330000000 1.0
C      1  0.4891080000000  0.5186460000000  0.5436870000000 1.0
C      1  0.4455210000000  0.4884630000000  0.5084390000000 1.0
C      1  0.5382730000000  0.3942080000000  0.4588800000000 1.0
C      1  0.4452750000000  0.5295060000000  0.5052250000000 1.0
C      1  0.5591160000000  0.5501580000000  0.5430360000000 1.0
C      1  0.4948780000000  0.4355480000000  0.5545900000000 1.0
C      1  0.4469700000000  0.4802830000000  0.5669370000000 1.0
C      1  0.5293420000000  0.5780490000000  0.4682170000000 1.0
C      1  0.4391190000000  0.5124070000000  0.5723190000000 1.0
C      1  0.5484530000000  0.5681870000000  0.5601720000000 1.0
END
