TITL C-2847944-5688-650 0.000952629072414438 125000 -785.596498368778 0 0 150 (C1) n - 1
REM
REM in /home/bkarasulu/work/CARBON/AIRSS/Generating-Clusters/AIREBO/with-SteepDescent/Only-C1/SD-CG-opt/Try1-1.4A-POS3A/HFTN-CG
REM
REM
REM
REM
REM
REM ./C.cell (11c1c37f851c82e70ff6c80c92926a4b)
REM
REM compiler GCC version 9.2.1 20190827 (Red Hat 9.2.1-1)
REM options -cpp -mtune=generic -march=x86-64 -g -O0 -fpre-include=/usr/include/finclude/math-vector-fortran.h
REM seed 1495786001 -396463335 12494778 -2117400508 -637326324 -1778711133 -1246737974 -835028964 -571744872 657815116 1975041046 -11948826 1195223959 -55525500 -933054501 1652700701 1694263324 1541802403 1189649249 -1831458166 -1203387100 -394957276 1525098546 -1322658571 1525932878 1042230218 -1424572098 -1652567208 -1846910901 -929340228 724441848 -1780074252 -1406205863
REM
CELL 1.54180   50.00000   50.00000   50.00000   90.00000   90.00000   90.00000
LATT -1
SFAC C  
C      1  0.4889760000000  0.5783280000000  0.5697620000000 1.0
C      1  0.4695200000000  0.4287850000000  0.5290700000000 1.0
C      1  0.4434000000000  0.5685770000000  0.4623050000000 1.0
C      1  0.4490290000000  0.4262200000000  0.5631200000000 1.0
C      1  0.5028020000000  0.4982280000000  0.4743930000000 1.0
C      1  0.5916180000000  0.5114820000000  0.4417120000000 1.0
C      1  0.5932200000000  0.5153280000000  0.5541230000000 1.0
C      1  0.5686860000000  0.5698270000000  0.4963980000000 1.0
C      1  0.4096270000000  0.4948710000000  0.4496050000000 1.0
C      1  0.5659890000000  0.5214950000000  0.5651490000000 1.0
C      1  0.4165880000000  0.5266840000000  0.4519720000000 1.0
C      1  0.5019620000000  0.6088880000000  0.4900440000000 1.0
C      1  0.5314660000000  0.5455250000000  0.5038790000000 1.0
C      1  0.5291880000000  0.4563690000000  0.4881520000000 1.0
C      1  0.4716140000000  0.5313220000000  0.4398860000000 1.0
C      1  0.4370460000000  0.5502000000000  0.5072570000000 1.0
C      1  0.5385820000000  0.4640360000000  0.4563670000000 1.0
C      1  0.5692560000000  0.5485550000000  0.5302380000000 1.0
C      1  0.4474680000000  0.5380310000000  0.4604500000000 1.0
C      1  0.5687210000000  0.5347920000000  0.4435440000000 1.0
C      1  0.4916300000000  0.5238250000000  0.5549820000000 1.0
C      1  0.5279110000000  0.5924280000000  0.5241110000000 1.0
C      1  0.4414640000000  0.4196150000000  0.5333280000000 1.0
C      1  0.5895510000000  0.4842930000000  0.4230660000000 1.0
C      1  0.4278310000000  0.4215560000000  0.5087290000000 1.0
C      1  0.5101240000000  0.4113090000000  0.4686170000000 1.0
C      1  0.4260960000000  0.5313180000000  0.5426930000000 1.0
C      1  0.5362230000000  0.4150160000000  0.4803060000000 1.0
C      1  0.3811600000000  0.4397490000000  0.5173430000000 1.0
C      1  0.4446240000000  0.4910720000000  0.5525910000000 1.0
C      1  0.5416420000000  0.4823320000000  0.5877020000000 1.0
C      1  0.4391990000000  0.5119150000000  0.4960730000000 1.0
C      1  0.5767430000000  0.4440280000000  0.4815210000000 1.0
C      1  0.5649980000000  0.4769670000000  0.4141060000000 1.0
C      1  0.4979160000000  0.4669370000000  0.5215970000000 1.0
C      1  0.4225360000000  0.4713710000000  0.4434060000000 1.0
C      1  0.5057660000000  0.5395490000000  0.4733620000000 1.0
C      1  0.4774580000000  0.5889410000000  0.5009200000000 1.0
C      1  0.5013480000000  0.5035730000000  0.5883380000000 1.0
C      1  0.5722470000000  0.5431430000000  0.4755340000000 1.0
C      1  0.5343760000000  0.5116870000000  0.5879080000000 1.0
C      1  0.5254560000000  0.5922230000000  0.4794930000000 1.0
C      1  0.4371410000000  0.4714630000000  0.4175660000000 1.0
C      1  0.5538190000000  0.4348990000000  0.4652740000000 1.0
C      1  0.5087210000000  0.5798850000000  0.4318820000000 1.0
C      1  0.5529780000000  0.5779640000000  0.4692500000000 1.0
C      1  0.5206220000000  0.4471180000000  0.4329610000000 1.0
C      1  0.5460650000000  0.4087980000000  0.5098010000000 1.0
C      1  0.4880470000000  0.4700490000000  0.4339230000000 1.0
C      1  0.5205130000000  0.5172060000000  0.5406810000000 1.0
C      1  0.4583800000000  0.5218580000000  0.5481190000000 1.0
C      1  0.5182940000000  0.4591050000000  0.5888120000000 1.0
C      1  0.5669390000000  0.4694970000000  0.5027790000000 1.0
C      1  0.5386890000000  0.5352740000000  0.4373700000000 1.0
C      1  0.4516980000000  0.4654020000000  0.5191620000000 1.0
C      1  0.5984370000000  0.5015750000000  0.4978410000000 1.0
C      1  0.5840230000000  0.4680710000000  0.5307360000000 1.0
C      1  0.5027360000000  0.4062180000000  0.5746580000000 1.0
C      1  0.5514410000000  0.4261470000000  0.5385810000000 1.0
C      1  0.5497100000000  0.4970920000000  0.4981300000000 1.0
C      1  0.5161980000000  0.5175440000000  0.5094780000000 1.0
C      1  0.4292580000000  0.5336360000000  0.5726100000000 1.0
C      1  0.4336340000000  0.5351210000000  0.4235410000000 1.0
C      1  0.4511780000000  0.4172630000000  0.4520000000000 1.0
C      1  0.5084690000000  0.4202550000000  0.5448330000000 1.0
C      1  0.4701450000000  0.4289380000000  0.4342710000000 1.0
C      1  0.5646380000000  0.5737580000000  0.5511950000000 1.0
C      1  0.4136310000000  0.4587100000000  0.5694410000000 1.0
C      1  0.4171740000000  0.4804060000000  0.5503330000000 1.0
C      1  0.4469070000000  0.4252080000000  0.4840290000000 1.0
C      1  0.4038070000000  0.4908290000000  0.5243080000000 1.0
C      1  0.5725530000000  0.4500090000000  0.5504760000000 1.0
C      1  0.5142900000000  0.4914520000000  0.5602680000000 1.0
C      1  0.4411780000000  0.5020650000000  0.4261230000000 1.0
C      1  0.5131360000000  0.5710210000000  0.5030750000000 1.0
C      1  0.5605390000000  0.5287990000000  0.5039710000000 1.0
C      1  0.4363420000000  0.5767720000000  0.4878660000000 1.0
C      1  0.5425170000000  0.5406680000000  0.5497160000000 1.0
C      1  0.5513150000000  0.4901070000000  0.5372370000000 1.0
C      1  0.4613610000000  0.5135950000000  0.4055330000000 1.0
C      1  0.4739210000000  0.4588680000000  0.5442950000000 1.0
C      1  0.4875910000000  0.4557040000000  0.5954910000000 1.0
C      1  0.4486040000000  0.5040940000000  0.4579940000000 1.0
C      1  0.5420370000000  0.4547440000000  0.5648630000000 1.0
C      1  0.6030420000000  0.4934070000000  0.5299970000000 1.0
C      1  0.4059030000000  0.4431950000000  0.5054490000000 1.0
C      1  0.5185030000000  0.4165260000000  0.5182820000000 1.0
C      1  0.5290510000000  0.5152040000000  0.4780740000000 1.0
C      1  0.4405310000000  0.4532350000000  0.4658460000000 1.0
C      1  0.5733520000000  0.5085680000000  0.5281110000000 1.0
C      1  0.5345930000000  0.5970920000000  0.4469330000000 1.0
C      1  0.4935300000000  0.4441290000000  0.4126100000000 1.0
C      1  0.5003490000000  0.5475660000000  0.5743760000000 1.0
C      1  0.4521530000000  0.5788670000000  0.5176120000000 1.0
C      1  0.4976500000000  0.4347760000000  0.4509860000000 1.0
C      1  0.5285010000000  0.5410880000000  0.5871380000000 1.0
C      1  0.4650700000000  0.4721830000000  0.5921690000000 1.0
C      1  0.4779230000000  0.5125160000000  0.4649030000000 1.0
C      1  0.4550600000000  0.5191670000000  0.5818560000000 1.0
C      1  0.4670800000000  0.4970120000000  0.4996900000000 1.0
C      1  0.4891820000000  0.5583300000000  0.5236060000000 1.0
C      1  0.5480100000000  0.4329640000000  0.4332870000000 1.0
C      1  0.4761700000000  0.4643560000000  0.4955720000000 1.0
C      1  0.5304900000000  0.5155430000000  0.4129620000000 1.0
C      1  0.3761300000000  0.4895190000000  0.5218870000000 1.0
C      1  0.5170490000000  0.5385870000000  0.3984060000000 1.0
C      1  0.5495770000000  0.5616560000000  0.5759030000000 1.0
C      1  0.5422590000000  0.4891140000000  0.4277770000000 1.0
C      1  0.4975390000000  0.5520780000000  0.4176040000000 1.0
C      1  0.5493010000000  0.4962480000000  0.4583950000000 1.0
C      1  0.5143610000000  0.5593140000000  0.5456950000000 1.0
C      1  0.4836310000000  0.4911810000000  0.5497010000000 1.0
C      1  0.5937050000000  0.5516350000000  0.5080700000000 1.0
C      1  0.4772210000000  0.5836320000000  0.5403820000000 1.0
C      1  0.4807530000000  0.5274920000000  0.4933100000000 1.0
C      1  0.4168210000000  0.5338940000000  0.4852720000000 1.0
C      1  0.4727990000000  0.4998490000000  0.5924290000000 1.0
C      1  0.5772650000000  0.5096350000000  0.4724780000000 1.0
C      1  0.4856440000000  0.5834050000000  0.4506790000000 1.0
C      1  0.4988910000000  0.4467260000000  0.5639360000000 1.0
C      1  0.5055100000000  0.5287720000000  0.4410760000000 1.0
C      1  0.4620310000000  0.4567340000000  0.4170820000000 1.0
C      1  0.5359910000000  0.5641760000000  0.4432200000000 1.0
C      1  0.4222870000000  0.4697900000000  0.5094440000000 1.0
C      1  0.4743770000000  0.4568990000000  0.4624260000000 1.0
C      1  0.5324310000000  0.4221770000000  0.5668700000000 1.0
C      1  0.4920290000000  0.5705080000000  0.4764200000000 1.0
C      1  0.5164390000000  0.5918730000000  0.5551010000000 1.0
C      1  0.4840060000000  0.4989000000000  0.4009270000000 1.0
C      1  0.4479650000000  0.4601030000000  0.5662470000000 1.0
C      1  0.4163030000000  0.5179420000000  0.5183960000000 1.0
C      1  0.6102230000000  0.5312740000000  0.5013050000000 1.0
C      1  0.4751300000000  0.4156110000000  0.5688740000000 1.0
C      1  0.5568020000000  0.5856120000000  0.5233540000000 1.0
C      1  0.4648730000000  0.5380270000000  0.5188960000000 1.0
C      1  0.4647490000000  0.5448070000000  0.4111840000000 1.0
C      1  0.4929270000000  0.4989630000000  0.5182320000000 1.0
C      1  0.5045080000000  0.4737680000000  0.4827940000000 1.0
C      1  0.5054250000000  0.4978460000000  0.4249030000000 1.0
C      1  0.6002820000000  0.4804210000000  0.4529150000000 1.0
C      1  0.5082600000000  0.4349190000000  0.5007950000000 1.0
C      1  0.4591920000000  0.5856510000000  0.4467800000000 1.0
C      1  0.4091930000000  0.4423560000000  0.4733400000000 1.0
C      1  0.5432200000000  0.4499200000000  0.5172870000000 1.0
C      1  0.5927830000000  0.4740050000000  0.4811200000000 1.0
C      1  0.4346420000000  0.4831660000000  0.4808680000000 1.0
C      1  0.4896650000000  0.4024390000000  0.4852070000000 1.0
C      1  0.5275020000000  0.4699660000000  0.5381470000000 1.0
C      1  0.4967820000000  0.6056450000000  0.5233860000000 1.0
C      1  0.4756490000000  0.4304680000000  0.4983960000000 1.0
END
