TITL C-2848508-1660-587 0.00254183475601833 125000 -242.942938513257 0 0 43 (C1) n - 1
REM
REM in /home/bkarasulu/work/CARBON/AIRSS/Generating-Clusters/AIREBO/with-SteepDescent/Only-C1/SD-CG-opt/Try1-1.4A-POS3A/HFTN-CG
REM
REM
REM
REM
REM
REM ./C.cell (11c1c37f851c82e70ff6c80c92926a4b)
REM
REM compiler GCC version 9.2.1 20190827 (Red Hat 9.2.1-1)
REM options -cpp -mtune=generic -march=x86-64 -g -O0 -fpre-include=/usr/include/finclude/math-vector-fortran.h
REM seed 166084056 1602647755 588875813 -239248755 -182043390 40559368 -839362208 -672296795 -2104076093 -382605262 827425516 -1131557961 2022672055 -188222304 1280386706 -1998759319 -550059576 336969787 -1768800906 1056739628 -917201048 -964191015 -481691393 529024760 1753945601 -1945419651 -1349650803 803518668 1575340455 940978704 -530347085 131587578 -1573469851
REM
CELL 1.54180   50.00000   50.00000   50.00000   90.00000   90.00000   90.00000
LATT -1
SFAC C  
C      1  0.4063720000000  0.4931210000000  0.4705870000000 1.0
C      1  0.5549910000000  0.5194110000000  0.4406300000000 1.0
C      1  0.4704270000000  0.4603620000000  0.4855620000000 1.0
C      1  0.4811310000000  0.4538770000000  0.5617010000000 1.0
C      1  0.4987510000000  0.4449220000000  0.4840050000000 1.0
C      1  0.4825890000000  0.5134510000000  0.4467140000000 1.0
C      1  0.4529280000000  0.5597260000000  0.4442820000000 1.0
C      1  0.5091410000000  0.5119900000000  0.4553460000000 1.0
C      1  0.5987250000000  0.4652830000000  0.5602030000000 1.0
C      1  0.5774220000000  0.4730990000000  0.5467150000000 1.0
C      1  0.4982930000000  0.4888730000000  0.5195650000000 1.0
C      1  0.5176280000000  0.4920210000000  0.4732060000000 1.0
C      1  0.4683120000000  0.4895190000000  0.4470300000000 1.0
C      1  0.5554510000000  0.4790160000000  0.5002910000000 1.0
C      1  0.4993890000000  0.4769370000000  0.4922890000000 1.0
C      1  0.4531090000000  0.4477400000000  0.5072390000000 1.0
C      1  0.5454330000000  0.4879930000000  0.4760540000000 1.0
C      1  0.4600700000000  0.5200750000000  0.5230280000000 1.0
C      1  0.4686480000000  0.5368650000000  0.4415730000000 1.0
C      1  0.5490370000000  0.5806800000000  0.5621920000000 1.0
C      1  0.5382430000000  0.5586190000000  0.5518790000000 1.0
C      1  0.5244300000000  0.4262580000000  0.4964160000000 1.0
C      1  0.4956290000000  0.4684410000000  0.5464430000000 1.0
C      1  0.4279300000000  0.5555740000000  0.4559350000000 1.0
C      1  0.5621210000000  0.4969470000000  0.4550440000000 1.0
C      1  0.5399170000000  0.5116320000000  0.5415790000000 1.0
C      1  0.5107750000000  0.4156310000000  0.4716170000000 1.0
C      1  0.3959920000000  0.5170650000000  0.4633600000000 1.0
C      1  0.5573110000000  0.6030090000000  0.5731450000000 1.0
C      1  0.4613240000000  0.5840490000000  0.4363110000000 1.0
C      1  0.4267880000000  0.4761280000000  0.4656900000000 1.0
C      1  0.5548140000000  0.4842370000000  0.5302590000000 1.0
C      1  0.5285850000000  0.5361480000000  0.5389470000000 1.0
C      1  0.5234870000000  0.4834420000000  0.5399720000000 1.0
C      1  0.4045550000000  0.5424610000000  0.4591100000000 1.0
C      1  0.5008870000000  0.5600760000000  0.5078020000000 1.0
C      1  0.4542960000000  0.4733560000000  0.4645630000000 1.0
C      1  0.4381580000000  0.4352910000000  0.5237630000000 1.0
C      1  0.6182860000000  0.4568720000000  0.5754880000000 1.0
C      1  0.5052950000000  0.5380120000000  0.5227780000000 1.0
C      1  0.4872590000000  0.5164880000000  0.5221880000000 1.0
C      1  0.5290420000000  0.5283560000000  0.4436020000000 1.0
C      1  0.4670270000000  0.4369470000000  0.5758940000000 1.0
END
