TITL C-2847953-8112-580 0.00124676745493941 125000 -958.647278420099 0 0 184 (C1) n - 1
REM
REM in /home/bkarasulu/work/CARBON/AIRSS/Generating-Clusters/AIREBO/with-SteepDescent/Only-C1/SD-CG-opt/Try1-1.4A-POS3A/HFTN-CG
REM
REM
REM
REM
REM
REM ./C.cell (11c1c37f851c82e70ff6c80c92926a4b)
REM
REM compiler GCC version 9.2.1 20190827 (Red Hat 9.2.1-1)
REM options -cpp -mtune=generic -march=x86-64 -g -O0 -fpre-include=/usr/include/finclude/math-vector-fortran.h
REM seed 2092215081 -1228421549 35583648 -1556474983 -1772514056 -850835730 -1900901137 -1955203001 -1553191786 -970532230 1979195096 2016619385 -216702709 1209489583 -1128003341 -126614938 1985308562 -697187951 1711121508 -1309888073 1885226011 1022596073 949107090 1374743710 1541707120 464762440 -2112958491 -1404842362 170851484 1117943614 1544499020 -1786958032 327433059
REM
CELL 1.54180   50.00000   50.00000   50.00000   90.00000   90.00000   90.00000
LATT -1
SFAC C  
C      1  0.4274410000000  0.4332590000000  0.5030250000000 1.0
C      1  0.5598760000000  0.5683850000000  0.4419960000000 1.0
C      1  0.4598640000000  0.4517650000000  0.4072540000000 1.0
C      1  0.4854490000000  0.5894830000000  0.4347870000000 1.0
C      1  0.4438210000000  0.5326670000000  0.5168990000000 1.0
C      1  0.4896510000000  0.4474300000000  0.4920160000000 1.0
C      1  0.5349990000000  0.5146970000000  0.5044800000000 1.0
C      1  0.5467540000000  0.5171430000000  0.4019140000000 1.0
C      1  0.4583170000000  0.4342380000000  0.4518310000000 1.0
C      1  0.4327940000000  0.5751270000000  0.5463000000000 1.0
C      1  0.4309750000000  0.5751420000000  0.4710240000000 1.0
C      1  0.5258200000000  0.4710410000000  0.4648510000000 1.0
C      1  0.4711970000000  0.4692880000000  0.3827520000000 1.0
C      1  0.5189470000000  0.5131750000000  0.5323120000000 1.0
C      1  0.4037680000000  0.5061490000000  0.5386290000000 1.0
C      1  0.5587890000000  0.4617800000000  0.4299850000000 1.0
C      1  0.5739850000000  0.4388030000000  0.4499710000000 1.0
C      1  0.6164600000000  0.5120640000000  0.4908350000000 1.0
C      1  0.4323210000000  0.4891600000000  0.5607740000000 1.0
C      1  0.5484890000000  0.5404750000000  0.5368660000000 1.0
C      1  0.4849740000000  0.4915960000000  0.4918260000000 1.0
C      1  0.5229970000000  0.5324910000000  0.4489080000000 1.0
C      1  0.4150440000000  0.5292070000000  0.5609460000000 1.0
C      1  0.4781540000000  0.6073920000000  0.5321010000000 1.0
C      1  0.4603080000000  0.4003710000000  0.4920940000000 1.0
C      1  0.4761100000000  0.4994910000000  0.6144940000000 1.0
C      1  0.4800470000000  0.4791820000000  0.4597830000000 1.0
C      1  0.5504260000000  0.5850520000000  0.5643560000000 1.0
C      1  0.5893350000000  0.4162250000000  0.5112410000000 1.0
C      1  0.4850360000000  0.4161600000000  0.4408630000000 1.0
C      1  0.5325380000000  0.5417910000000  0.4864530000000 1.0
C      1  0.5150970000000  0.4971150000000  0.4838610000000 1.0
C      1  0.5415380000000  0.5475370000000  0.5867180000000 1.0
C      1  0.4308730000000  0.5226600000000  0.5880350000000 1.0
C      1  0.4402360000000  0.4855450000000  0.4691210000000 1.0
C      1  0.5923400000000  0.4673510000000  0.4474310000000 1.0
C      1  0.5275410000000  0.5966780000000  0.4673410000000 1.0
C      1  0.4406600000000  0.5317990000000  0.4774800000000 1.0
C      1  0.5445890000000  0.4830600000000  0.4075690000000 1.0
C      1  0.4906880000000  0.4024670000000  0.5537560000000 1.0
C      1  0.5842450000000  0.5362760000000  0.5201350000000 1.0
C      1  0.5721330000000  0.5231910000000  0.4243190000000 1.0
C      1  0.4926010000000  0.4851040000000  0.3900930000000 1.0
C      1  0.4937790000000  0.4343890000000  0.5292790000000 1.0
C      1  0.5234720000000  0.4345570000000  0.5783710000000 1.0
C      1  0.5618380000000  0.4877060000000  0.5337750000000 1.0
C      1  0.5022030000000  0.4775080000000  0.5481040000000 1.0
C      1  0.4907410000000  0.5393730000000  0.5785680000000 1.0
C      1  0.5226210000000  0.5518410000000  0.5234240000000 1.0
C      1  0.5365070000000  0.5189650000000  0.5832440000000 1.0
C      1  0.4441830000000  0.5575080000000  0.4470610000000 1.0
C      1  0.4648550000000  0.5544250000000  0.4738900000000 1.0
C      1  0.5273050000000  0.5813580000000  0.5169810000000 1.0
C      1  0.5431250000000  0.4298320000000  0.4910040000000 1.0
C      1  0.4523710000000  0.5900310000000  0.5228300000000 1.0
C      1  0.3893810000000  0.4980520000000  0.4658970000000 1.0
C      1  0.4083230000000  0.4935560000000  0.4463810000000 1.0
C      1  0.4645420000000  0.5250170000000  0.3865550000000 1.0
C      1  0.4616100000000  0.5689470000000  0.4215280000000 1.0
C      1  0.4089730000000  0.5557000000000  0.4730360000000 1.0
C      1  0.5415620000000  0.5091810000000  0.4654400000000 1.0
C      1  0.4821360000000  0.5130930000000  0.4584010000000 1.0
C      1  0.4188630000000  0.4656920000000  0.4411300000000 1.0
C      1  0.5385630000000  0.4639960000000  0.5410170000000 1.0
C      1  0.4655080000000  0.5154890000000  0.4331910000000 1.0
C      1  0.5457880000000  0.5106810000000  0.5530370000000 1.0
C      1  0.4782800000000  0.5795870000000  0.5512890000000 1.0
C      1  0.5021390000000  0.5371240000000  0.5005190000000 1.0
C      1  0.4863260000000  0.5096460000000  0.4069470000000 1.0
C      1  0.5160130000000  0.5614430000000  0.5857990000000 1.0
C      1  0.5547400000000  0.4704390000000  0.5053570000000 1.0
C      1  0.4631330000000  0.4474740000000  0.5360310000000 1.0
C      1  0.4687690000000  0.4668850000000  0.5086740000000 1.0
C      1  0.5017110000000  0.4835670000000  0.6083480000000 1.0
C      1  0.4021830000000  0.4921080000000  0.5675270000000 1.0
C      1  0.4675180000000  0.5611010000000  0.5711180000000 1.0
C      1  0.5796750000000  0.5493160000000  0.4399630000000 1.0
C      1  0.5155570000000  0.4696400000000  0.4042740000000 1.0
C      1  0.6042440000000  0.5385550000000  0.4929840000000 1.0
C      1  0.5823360000000  0.5285420000000  0.5539520000000 1.0
C      1  0.5135550000000  0.4573140000000  0.5225240000000 1.0
C      1  0.4036250000000  0.5699370000000  0.5299770000000 1.0
C      1  0.5114880000000  0.5968010000000  0.4944590000000 1.0
C      1  0.3924900000000  0.5023180000000  0.4930510000000 1.0
C      1  0.4921950000000  0.6180140000000  0.5095130000000 1.0
C      1  0.5229270000000  0.5859570000000  0.5739640000000 1.0
C      1  0.4851430000000  0.5461010000000  0.3886740000000 1.0
C      1  0.4774650000000  0.4240340000000  0.4773530000000 1.0
C      1  0.5984710000000  0.5478860000000  0.4643230000000 1.0
C      1  0.4843530000000  0.5616400000000  0.5265970000000 1.0
C      1  0.5491330000000  0.4813970000000  0.5877540000000 1.0
C      1  0.4934480000000  0.4773220000000  0.4291370000000 1.0
C      1  0.4434480000000  0.4100480000000  0.5151680000000 1.0
C      1  0.4557750000000  0.5827980000000  0.4897730000000 1.0
C      1  0.5325600000000  0.4977570000000  0.6095230000000 1.0
C      1  0.4505290000000  0.4837590000000  0.4140090000000 1.0
C      1  0.5355920000000  0.4466330000000  0.4432800000000 1.0
C      1  0.4539050000000  0.4162280000000  0.5466160000000 1.0
C      1  0.6024300000000  0.4593630000000  0.5080850000000 1.0
C      1  0.4441020000000  0.4596080000000  0.4894260000000 1.0
C      1  0.4812700000000  0.4595170000000  0.5608010000000 1.0
C      1  0.5297790000000  0.4036040000000  0.4956230000000 1.0
C      1  0.4131110000000  0.4501730000000  0.4657220000000 1.0
C      1  0.4881670000000  0.4445460000000  0.4224070000000 1.0
C      1  0.4352370000000  0.5141900000000  0.4488950000000 1.0
C      1  0.4316240000000  0.4274690000000  0.4696520000000 1.0
C      1  0.4570220000000  0.4670410000000  0.5914390000000 1.0
C      1  0.4750650000000  0.4281780000000  0.5689680000000 1.0
C      1  0.4213890000000  0.4887010000000  0.5162070000000 1.0
C      1  0.5564410000000  0.5809920000000  0.4668180000000 1.0
C      1  0.5136880000000  0.4149870000000  0.4591480000000 1.0
C      1  0.4338250000000  0.5621410000000  0.5157050000000 1.0
C      1  0.5670050000000  0.5094770000000  0.5082710000000 1.0
C      1  0.5919080000000  0.4972730000000  0.4318700000000 1.0
C      1  0.5846160000000  0.4627000000000  0.4802140000000 1.0
C      1  0.4500690000000  0.4910030000000  0.5214040000000 1.0
C      1  0.5828990000000  0.4609560000000  0.5332640000000 1.0
C      1  0.5856430000000  0.4730040000000  0.5642390000000 1.0
C      1  0.5761210000000  0.4298740000000  0.4827850000000 1.0
C      1  0.4592030000000  0.5076820000000  0.4801480000000 1.0
C      1  0.5654300000000  0.5633030000000  0.5182120000000 1.0
C      1  0.5261070000000  0.4675240000000  0.5695020000000 1.0
C      1  0.5635910000000  0.5326290000000  0.4760460000000 1.0
C      1  0.4856890000000  0.4503770000000  0.5927870000000 1.0
C      1  0.5891510000000  0.4938530000000  0.4930990000000 1.0
C      1  0.4996340000000  0.4005830000000  0.4865600000000 1.0
C      1  0.5196450000000  0.4907260000000  0.4378150000000 1.0
C      1  0.5525860000000  0.4990460000000  0.4364990000000 1.0
C      1  0.5330830000000  0.5593020000000  0.4305540000000 1.0
C      1  0.5319220000000  0.3960850000000  0.5246780000000 1.0
C      1  0.5005980000000  0.5386880000000  0.5457500000000 1.0
C      1  0.4488830000000  0.5149680000000  0.5454940000000 1.0
C      1  0.5469020000000  0.4179840000000  0.4512190000000 1.0
C      1  0.5098820000000  0.4097300000000  0.5753790000000 1.0
C      1  0.5561400000000  0.5903970000000  0.5325640000000 1.0
C      1  0.5044640000000  0.4469280000000  0.4522640000000 1.0
C      1  0.4420830000000  0.5093970000000  0.4019380000000 1.0
C      1  0.3960140000000  0.5377370000000  0.5339750000000 1.0
C      1  0.5925120000000  0.5017900000000  0.5379730000000 1.0
C      1  0.5169880000000  0.4537670000000  0.6056780000000 1.0
C      1  0.4329060000000  0.4589100000000  0.5466430000000 1.0
C      1  0.5266890000000  0.6057880000000  0.5397620000000 1.0
C      1  0.5483740000000  0.4374920000000  0.5554070000000 1.0
C      1  0.4894410000000  0.5055000000000  0.5225400000000 1.0
C      1  0.5113980000000  0.4373650000000  0.3998070000000 1.0
C      1  0.6097830000000  0.4900160000000  0.4658280000000 1.0
C      1  0.5836870000000  0.4225070000000  0.5442180000000 1.0
C      1  0.5885860000000  0.5160440000000  0.4600300000000 1.0
C      1  0.3903430000000  0.4760400000000  0.5145930000000 1.0
C      1  0.4987370000000  0.4023530000000  0.5207030000000 1.0
C      1  0.4438230000000  0.5458700000000  0.5588060000000 1.0
C      1  0.5722650000000  0.5007160000000  0.5719200000000 1.0
C      1  0.4102310000000  0.5370230000000  0.4521790000000 1.0
C      1  0.4849760000000  0.5793730000000  0.5022910000000 1.0
C      1  0.5622580000000  0.5542650000000  0.5636070000000 1.0
C      1  0.4117610000000  0.4677450000000  0.4904390000000 1.0
C      1  0.4291620000000  0.4494120000000  0.4156380000000 1.0
C      1  0.5159860000000  0.5863210000000  0.4375580000000 1.0
C      1  0.4778850000000  0.4980750000000  0.5509550000000 1.0
C      1  0.5170710000000  0.5185620000000  0.4184570000000 1.0
C      1  0.4111620000000  0.4515730000000  0.5260210000000 1.0
C      1  0.4604820000000  0.4948230000000  0.5779890000000 1.0
C      1  0.4892520000000  0.5566910000000  0.4369540000000 1.0
C      1  0.4352720000000  0.4539500000000  0.5794570000000 1.0
C      1  0.3969830000000  0.5514460000000  0.5026740000000 1.0
C      1  0.4957410000000  0.5419650000000  0.4669200000000 1.0
C      1  0.5002970000000  0.6024240000000  0.5580240000000 1.0
C      1  0.5527090000000  0.4128280000000  0.5354780000000 1.0
C      1  0.5212740000000  0.4522430000000  0.4923770000000 1.0
C      1  0.5502810000000  0.4480510000000  0.5943680000000 1.0
C      1  0.4155090000000  0.5254750000000  0.4994850000000 1.0
C      1  0.4680670000000  0.3909960000000  0.5300540000000 1.0
C      1  0.4459940000000  0.5385730000000  0.4191530000000 1.0
C      1  0.5655140000000  0.5638320000000  0.4874560000000 1.0
C      1  0.5197610000000  0.5656650000000  0.4711190000000 1.0
C      1  0.5753580000000  0.4435610000000  0.5703370000000 1.0
C      1  0.4646190000000  0.5225500000000  0.5924310000000 1.0
C      1  0.5007830000000  0.5466110000000  0.4108700000000 1.0
C      1  0.4741260000000  0.5327680000000  0.5165040000000 1.0
C      1  0.5392050000000  0.5473180000000  0.4016660000000 1.0
C      1  0.5557240000000  0.4801920000000  0.4762060000000 1.0
C      1  0.5071040000000  0.5148550000000  0.5948080000000 1.0
C      1  0.5605290000000  0.4406840000000  0.5176150000000 1.0
C      1  0.4527660000000  0.4669800000000  0.4435280000000 1.0
END
