TITL C-2847944-5688-25 -0.00173134335354077 125000 -783.310588668152 0 0 140 (C1) n - 1
REM
REM in /home/bkarasulu/work/CARBON/AIRSS/Generating-Clusters/AIREBO/with-SteepDescent/Only-C1/SD-CG-opt/Try1-1.4A-POS3A/HFTN-CG
REM
REM
REM
REM
REM
REM ./C.cell (11c1c37f851c82e70ff6c80c92926a4b)
REM
REM compiler GCC version 9.2.1 20190827 (Red Hat 9.2.1-1)
REM options -cpp -mtune=generic -march=x86-64 -g -O0 -fpre-include=/usr/include/finclude/math-vector-fortran.h
REM seed -1033535142 -1191073890 2019625107 -749233002 -335481112 -308169040 1977952941 1385268629 1047908270 -1314627913 -879680969 1199773460 -1715473381 2006504587 1212503723 1758652008 268688408 906470779 624335103 503096160 -27376272 1115276379 -1913558189 1313243986 246264442 -1326456216 -647800300 -1774127153 -1501945618 -2032216366 -933565467 617598307 -699300723
REM
CELL 1.54180   50.00000   50.00000   50.00000   90.00000   90.00000   90.00000
LATT -1
SFAC C  
C      1  0.4676160000000  0.4216980000000  0.4823460000000 1.0
C      1  0.5823160000000  0.5463000000000  0.4719520000000 1.0
C      1  0.4845480000000  0.4507990000000  0.5170350000000 1.0
C      1  0.5230200000000  0.5891460000000  0.4792380000000 1.0
C      1  0.4532740000000  0.4396710000000  0.5149710000000 1.0
C      1  0.3840850000000  0.4980150000000  0.4798960000000 1.0
C      1  0.5020200000000  0.5419780000000  0.4209730000000 1.0
C      1  0.5155280000000  0.5975320000000  0.5041240000000 1.0
C      1  0.4454860000000  0.5332950000000  0.5509400000000 1.0
C      1  0.5272450000000  0.5144060000000  0.5423030000000 1.0
C      1  0.5174130000000  0.5880820000000  0.5558910000000 1.0
C      1  0.4296520000000  0.4453480000000  0.5345290000000 1.0
C      1  0.4967940000000  0.4099890000000  0.5524340000000 1.0
C      1  0.5471870000000  0.4097020000000  0.4879390000000 1.0
C      1  0.4705990000000  0.5809380000000  0.4647990000000 1.0
C      1  0.4358960000000  0.5084520000000  0.4863070000000 1.0
C      1  0.5241170000000  0.4156110000000  0.5587640000000 1.0
C      1  0.4896610000000  0.5819950000000  0.4422330000000 1.0
C      1  0.4117990000000  0.4572200000000  0.4888120000000 1.0
C      1  0.5599170000000  0.5222110000000  0.5475760000000 1.0
C      1  0.5937100000000  0.4697210000000  0.5377910000000 1.0
C      1  0.6037350000000  0.5221020000000  0.4395520000000 1.0
C      1  0.4530630000000  0.5133600000000  0.5725710000000 1.0
C      1  0.5837300000000  0.5487290000000  0.4322910000000 1.0
C      1  0.4862780000000  0.5282690000000  0.5510340000000 1.0
C      1  0.4244400000000  0.4205030000000  0.5519400000000 1.0
C      1  0.5366450000000  0.5233030000000  0.4451560000000 1.0
C      1  0.4391160000000  0.4679360000000  0.5514050000000 1.0
C      1  0.5254560000000  0.4431350000000  0.4873130000000 1.0
C      1  0.5873390000000  0.5161720000000  0.5283920000000 1.0
C      1  0.5166110000000  0.5869130000000  0.4506240000000 1.0
C      1  0.4351720000000  0.5859120000000  0.4826860000000 1.0
C      1  0.4937030000000  0.5313770000000  0.5977450000000 1.0
C      1  0.3957510000000  0.4930480000000  0.4546950000000 1.0
C      1  0.4661060000000  0.5293000000000  0.5972720000000 1.0
C      1  0.4049860000000  0.5482820000000  0.4927590000000 1.0
C      1  0.4911030000000  0.5170290000000  0.4364470000000 1.0
C      1  0.4197100000000  0.4613960000000  0.4588050000000 1.0
C      1  0.4519240000000  0.4084760000000  0.5067010000000 1.0
C      1  0.5810510000000  0.4972640000000  0.4445070000000 1.0
C      1  0.5414700000000  0.4072540000000  0.5391290000000 1.0
C      1  0.5135370000000  0.4763250000000  0.5020210000000 1.0
C      1  0.5462200000000  0.4807130000000  0.5881180000000 1.0
C      1  0.4772760000000  0.4751510000000  0.4404020000000 1.0
C      1  0.5517340000000  0.4832990000000  0.4821570000000 1.0
C      1  0.4651210000000  0.5319450000000  0.5242500000000 1.0
C      1  0.3963560000000  0.4821950000000  0.5068090000000 1.0
C      1  0.5705850000000  0.4561330000000  0.5535690000000 1.0
C      1  0.4368630000000  0.5737100000000  0.5796100000000 1.0
C      1  0.4515290000000  0.5615420000000  0.5600560000000 1.0
C      1  0.5087830000000  0.5594070000000  0.5141020000000 1.0
C      1  0.5497900000000  0.4601230000000  0.5039840000000 1.0
C      1  0.5244680000000  0.4465890000000  0.5584420000000 1.0
C      1  0.4628380000000  0.4211950000000  0.4503860000000 1.0
C      1  0.6008590000000  0.4908850000000  0.5219460000000 1.0
C      1  0.4826820000000  0.4715030000000  0.4721760000000 1.0
C      1  0.4058410000000  0.5096930000000  0.5248090000000 1.0
C      1  0.4866160000000  0.5023990000000  0.4810030000000 1.0
C      1  0.5145480000000  0.5201810000000  0.4708140000000 1.0
C      1  0.4977170000000  0.4262750000000  0.4974910000000 1.0
C      1  0.5333810000000  0.5054620000000  0.5925560000000 1.0
C      1  0.5326360000000  0.5006140000000  0.4204310000000 1.0
C      1  0.4979720000000  0.5708060000000  0.5628020000000 1.0
C      1  0.4300830000000  0.5569500000000  0.4797240000000 1.0
C      1  0.4339860000000  0.4899620000000  0.5760110000000 1.0
C      1  0.5429800000000  0.5026060000000  0.5075550000000 1.0
C      1  0.4701520000000  0.6040130000000  0.4878960000000 1.0
C      1  0.5362450000000  0.5710480000000  0.4382340000000 1.0
C      1  0.5120410000000  0.5497330000000  0.4816710000000 1.0
C      1  0.4748860000000  0.5693000000000  0.5138660000000 1.0
C      1  0.4478870000000  0.4621400000000  0.5830620000000 1.0
C      1  0.5057310000000  0.5427190000000  0.5711270000000 1.0
C      1  0.4884120000000  0.5999400000000  0.5079840000000 1.0
C      1  0.4914960000000  0.4316320000000  0.4376340000000 1.0
C      1  0.4047790000000  0.5183930000000  0.4933060000000 1.0
C      1  0.4416580000000  0.5771570000000  0.5121080000000 1.0
C      1  0.5386210000000  0.4782220000000  0.5308480000000 1.0
C      1  0.4927680000000  0.5147670000000  0.5220690000000 1.0
C      1  0.4196450000000  0.5568880000000  0.5182880000000 1.0
C      1  0.5561930000000  0.5735610000000  0.5275720000000 1.0
C      1  0.4471750000000  0.3854150000000  0.5165530000000 1.0
C      1  0.5581640000000  0.5566700000000  0.5017520000000 1.0
C      1  0.5240300000000  0.4580620000000  0.4375090000000 1.0
C      1  0.4746770000000  0.4613200000000  0.5887420000000 1.0
C      1  0.4585200000000  0.4609830000000  0.4889610000000 1.0
C      1  0.5893900000000  0.3987600000000  0.4682040000000 1.0
C      1  0.4432170000000  0.4416050000000  0.4695100000000 1.0
C      1  0.5842990000000  0.4397400000000  0.4929360000000 1.0
C      1  0.4832010000000  0.4847480000000  0.5098810000000 1.0
C      1  0.5048830000000  0.4488420000000  0.4620560000000 1.0
C      1  0.5542880000000  0.4553140000000  0.4448450000000 1.0
C      1  0.5342250000000  0.4247270000000  0.5145210000000 1.0
C      1  0.5634370000000  0.5250010000000  0.5066790000000 1.0
C      1  0.4804510000000  0.4968320000000  0.5610110000000 1.0
C      1  0.4499120000000  0.4886120000000  0.5041250000000 1.0
C      1  0.4515380000000  0.5364830000000  0.4938240000000 1.0
C      1  0.5661780000000  0.5265920000000  0.4512190000000 1.0
C      1  0.5272050000000  0.5470380000000  0.4289220000000 1.0
C      1  0.5488400000000  0.4603840000000  0.5687070000000 1.0
C      1  0.4484340000000  0.6076860000000  0.4650840000000 1.0
C      1  0.5933740000000  0.4630130000000  0.4793890000000 1.0
C      1  0.5095610000000  0.4300350000000  0.4129720000000 1.0
C      1  0.4602540000000  0.5235330000000  0.4264090000000 1.0
C      1  0.4282930000000  0.4943500000000  0.4577270000000 1.0
C      1  0.4048470000000  0.4528770000000  0.5188850000000 1.0
C      1  0.5240500000000  0.4809550000000  0.3966090000000 1.0
C      1  0.4633870000000  0.4469060000000  0.4290340000000 1.0
C      1  0.5904500000000  0.5467030000000  0.5032700000000 1.0
C      1  0.4193300000000  0.5337740000000  0.5359290000000 1.0
C      1  0.5067650000000  0.5061800000000  0.6025260000000 1.0
C      1  0.5777630000000  0.5484840000000  0.5354360000000 1.0
C      1  0.4512040000000  0.4963990000000  0.4352400000000 1.0
C      1  0.4784190000000  0.5545400000000  0.4834260000000 1.0
C      1  0.5746830000000  0.5284700000000  0.4076360000000 1.0
C      1  0.5642040000000  0.5668920000000  0.4515810000000 1.0
C      1  0.4927220000000  0.4061890000000  0.5244760000000 1.0
C      1  0.5086700000000  0.4863310000000  0.5451920000000 1.0
C      1  0.4760160000000  0.5269920000000  0.4636360000000 1.0
C      1  0.5283360000000  0.5822810000000  0.5283450000000 1.0
C      1  0.4393200000000  0.4658580000000  0.4326840000000 1.0
C      1  0.5360050000000  0.5277220000000  0.5711630000000 1.0
C      1  0.5086830000000  0.4881980000000  0.4411460000000 1.0
C      1  0.4581950000000  0.5496100000000  0.4183400000000 1.0
C      1  0.5206150000000  0.5275080000000  0.5136700000000 1.0
C      1  0.5745490000000  0.4485000000000  0.5210350000000 1.0
C      1  0.4896310000000  0.4870410000000  0.5913910000000 1.0
C      1  0.5226260000000  0.4886130000000  0.4721870000000 1.0
C      1  0.6080040000000  0.4820170000000  0.4956250000000 1.0
C      1  0.4834550000000  0.5635950000000  0.4216220000000 1.0
C      1  0.5174180000000  0.4521470000000  0.5256330000000 1.0
C      1  0.4959600000000  0.4600580000000  0.5627410000000 1.0
C      1  0.5721470000000  0.4753020000000  0.4613250000000 1.0
C      1  0.4606240000000  0.4847220000000  0.5361750000000 1.0
C      1  0.5200050000000  0.4558390000000  0.4060660000000 1.0
C      1  0.5639300000000  0.5047090000000  0.4179300000000 1.0
C      1  0.4809820000000  0.4296720000000  0.5657740000000 1.0
C      1  0.5183910000000  0.4018510000000  0.4859680000000 1.0
C      1  0.5426800000000  0.5636150000000  0.4776500000000 1.0
C      1  0.4744280000000  0.5711520000000  0.5478720000000 1.0
C      1  0.5737720000000  0.4155050000000  0.4824810000000 1.0
END
