TITL C-2848499-1157-407 0.0012046883307378 125000 -669.458560634557 0 0 122 (C1) n - 1
REM
REM in /home/bkarasulu/work/CARBON/AIRSS/Generating-Clusters/AIREBO/with-SteepDescent/Only-C1/SD-CG-opt/Try1-1.4A-POS3A/HFTN-CG
REM
REM
REM
REM
REM
REM ./C.cell (11c1c37f851c82e70ff6c80c92926a4b)
REM
REM compiler GCC version 9.2.1 20190827 (Red Hat 9.2.1-1)
REM options -cpp -mtune=generic -march=x86-64 -g -O0 -fpre-include=/usr/include/finclude/math-vector-fortran.h
REM seed -782572546 -1247011359 613516386 448284803 -783957076 1589292344 1548112840 884916111 -1906532249 1496216846 1396310754 -1693828373 -698677713 1489625672 -871038288 628588137 -939027281 -234748415 -649056156 1920177420 1942243793 -945712610 -983144130 -1442985025 -1690855851 987273939 -622292521 59933609 466256933 -1024398034 954001669 -1719034971 -893762886
REM
CELL 1.54180   50.00000   50.00000   50.00000   90.00000   90.00000   90.00000
LATT -1
SFAC C  
C      1  0.5389360000000  0.4564140000000  0.4740180000000 1.0
C      1  0.5340140000000  0.4262470000000  0.5196940000000 1.0
C      1  0.5009140000000  0.4602010000000  0.5608080000000 1.0
C      1  0.5555280000000  0.4688070000000  0.5565190000000 1.0
C      1  0.5516470000000  0.5760360000000  0.5492780000000 1.0
C      1  0.4278780000000  0.4246510000000  0.5160900000000 1.0
C      1  0.4398900000000  0.4563570000000  0.5133420000000 1.0
C      1  0.4363470000000  0.4425560000000  0.5442320000000 1.0
C      1  0.5294650000000  0.5646220000000  0.5687390000000 1.0
C      1  0.5440780000000  0.4864230000000  0.5771600000000 1.0
C      1  0.4427460000000  0.4902480000000  0.5129700000000 1.0
C      1  0.4088740000000  0.4971950000000  0.5551370000000 1.0
C      1  0.5277320000000  0.4864510000000  0.4745280000000 1.0
C      1  0.4948350000000  0.4999700000000  0.5917080000000 1.0
C      1  0.5744980000000  0.4576060000000  0.4927920000000 1.0
C      1  0.5657390000000  0.4647170000000  0.4315700000000 1.0
C      1  0.4615530000000  0.5695840000000  0.5247460000000 1.0
C      1  0.4595300000000  0.4528590000000  0.4878340000000 1.0
C      1  0.5345500000000  0.5861110000000  0.4708500000000 1.0
C      1  0.4675870000000  0.4474400000000  0.5406610000000 1.0
C      1  0.5751200000000  0.5158570000000  0.4391560000000 1.0
C      1  0.4505840000000  0.5559050000000  0.5761150000000 1.0
C      1  0.5844780000000  0.4935820000000  0.5253520000000 1.0
C      1  0.5080060000000  0.4193240000000  0.5346110000000 1.0
C      1  0.4557860000000  0.5181160000000  0.4576720000000 1.0
C      1  0.5740740000000  0.5223950000000  0.5298690000000 1.0
C      1  0.5287390000000  0.5419670000000  0.5163890000000 1.0
C      1  0.5047960000000  0.5600980000000  0.5549050000000 1.0
C      1  0.4853700000000  0.4482250000000  0.4246330000000 1.0
C      1  0.5388130000000  0.5251240000000  0.4681100000000 1.0
C      1  0.4984650000000  0.5332160000000  0.5516580000000 1.0
C      1  0.5628010000000  0.5693000000000  0.5178240000000 1.0
C      1  0.5686890000000  0.4560760000000  0.4593250000000 1.0
C      1  0.4676470000000  0.3819090000000  0.4560130000000 1.0
C      1  0.5834030000000  0.5458260000000  0.5074530000000 1.0
C      1  0.5687920000000  0.4266050000000  0.4859500000000 1.0
C      1  0.4062550000000  0.4515560000000  0.5118800000000 1.0
C      1  0.4910930000000  0.5797550000000  0.5333730000000 1.0
C      1  0.4359240000000  0.4447950000000  0.4435810000000 1.0
C      1  0.4655920000000  0.4884010000000  0.5926620000000 1.0
C      1  0.4814110000000  0.4237500000000  0.5205220000000 1.0
C      1  0.4708610000000  0.4683740000000  0.5670700000000 1.0
C      1  0.5199540000000  0.5745010000000  0.4284910000000 1.0
C      1  0.4862930000000  0.5101780000000  0.4115150000000 1.0
C      1  0.4004030000000  0.5047310000000  0.5268040000000 1.0
C      1  0.5109500000000  0.5071620000000  0.5443520000000 1.0
C      1  0.4884330000000  0.4612510000000  0.4988300000000 1.0
C      1  0.4238830000000  0.5641330000000  0.4735580000000 1.0
C      1  0.4123700000000  0.5259370000000  0.5104510000000 1.0
C      1  0.5180930000000  0.5380850000000  0.4859250000000 1.0
C      1  0.4421600000000  0.5834080000000  0.4923230000000 1.0
C      1  0.4682880000000  0.4796370000000  0.5291560000000 1.0
C      1  0.5130620000000  0.4878660000000  0.5702230000000 1.0
C      1  0.4636940000000  0.4895780000000  0.4623070000000 1.0
C      1  0.5366880000000  0.5897930000000  0.4444670000000 1.0
C      1  0.4971290000000  0.5522950000000  0.5166460000000 1.0
C      1  0.5615580000000  0.5052870000000  0.4837930000000 1.0
C      1  0.4881680000000  0.4248880000000  0.4872090000000 1.0
C      1  0.5397840000000  0.4915280000000  0.5059880000000 1.0
C      1  0.4981730000000  0.4919900000000  0.4882320000000 1.0
C      1  0.5519760000000  0.4468260000000  0.4160610000000 1.0
C      1  0.5384670000000  0.5695290000000  0.4994080000000 1.0
C      1  0.5559940000000  0.4163230000000  0.5352160000000 1.0
C      1  0.5408470000000  0.4201320000000  0.4900050000000 1.0
C      1  0.5050200000000  0.4638490000000  0.5287630000000 1.0
C      1  0.4664860000000  0.5283000000000  0.5520000000000 1.0
C      1  0.5306270000000  0.5278730000000  0.4368450000000 1.0
C      1  0.4757060000000  0.5285360000000  0.5192570000000 1.0
C      1  0.5670730000000  0.5086270000000  0.5880810000000 1.0
C      1  0.4475750000000  0.4977990000000  0.4242890000000 1.0
C      1  0.5785720000000  0.4839440000000  0.4999310000000 1.0
C      1  0.4628880000000  0.5273820000000  0.4264030000000 1.0
C      1  0.4820200000000  0.5747950000000  0.4647090000000 1.0
C      1  0.5362340000000  0.4606400000000  0.5393000000000 1.0
C      1  0.5917870000000  0.5411320000000  0.4820260000000 1.0
C      1  0.4560750000000  0.4204660000000  0.4975680000000 1.0
C      1  0.5072980000000  0.4295970000000  0.5607290000000 1.0
C      1  0.4202140000000  0.4811390000000  0.4891500000000 1.0
C      1  0.5096850000000  0.5499920000000  0.4348080000000 1.0
C      1  0.5253180000000  0.5376770000000  0.5808530000000 1.0
C      1  0.4699970000000  0.5386420000000  0.4766580000000 1.0
C      1  0.4373140000000  0.4895520000000  0.5729190000000 1.0
C      1  0.5246880000000  0.4962830000000  0.4445110000000 1.0
C      1  0.4148680000000  0.5374520000000  0.4810220000000 1.0
C      1  0.4489320000000  0.5568940000000  0.5464860000000 1.0
C      1  0.4616700000000  0.4986610000000  0.5546320000000 1.0
C      1  0.4913040000000  0.4786570000000  0.4577160000000 1.0
C      1  0.4227430000000  0.4690820000000  0.5501970000000 1.0
C      1  0.5757070000000  0.5529300000000  0.5447340000000 1.0
C      1  0.4963150000000  0.4928270000000  0.5217080000000 1.0
C      1  0.4235490000000  0.5181210000000  0.4622960000000 1.0
C      1  0.5327730000000  0.4809630000000  0.4085180000000 1.0
C      1  0.5881080000000  0.4088900000000  0.4799670000000 1.0
C      1  0.5335340000000  0.6025000000000  0.5468650000000 1.0
C      1  0.5089530000000  0.5687450000000  0.4789110000000 1.0
C      1  0.5476370000000  0.5306370000000  0.4143650000000 1.0
C      1  0.4277660000000  0.4928190000000  0.4450260000000 1.0
C      1  0.4669380000000  0.4759430000000  0.4180670000000 1.0
C      1  0.5410510000000  0.5144590000000  0.5315130000000 1.0
C      1  0.4385630000000  0.4682390000000  0.4659050000000 1.0
C      1  0.4804370000000  0.5468900000000  0.4453470000000 1.0
C      1  0.4538280000000  0.4460410000000  0.4234950000000 1.0
C      1  0.4981250000000  0.4862680000000  0.4269230000000 1.0
C      1  0.5958920000000  0.4437810000000  0.4621320000000 1.0
C      1  0.4631920000000  0.5976260000000  0.4806490000000 1.0
C      1  0.3972470000000  0.4808050000000  0.5098520000000 1.0
C      1  0.5082710000000  0.4518860000000  0.4466840000000 1.0
C      1  0.4530780000000  0.5534280000000  0.4984250000000 1.0
C      1  0.5433130000000  0.5177790000000  0.5652990000000 1.0
C      1  0.4989460000000  0.5283260000000  0.5913450000000 1.0
C      1  0.5166110000000  0.4310280000000  0.4701720000000 1.0
C      1  0.5103370000000  0.6040270000000  0.5368950000000 1.0
C      1  0.4924990000000  0.5227620000000  0.4902370000000 1.0
C      1  0.5551670000000  0.4944690000000  0.4295430000000 1.0
C      1  0.4495700000000  0.5700230000000  0.4555090000000 1.0
C      1  0.5785100000000  0.5228500000000  0.4649330000000 1.0
C      1  0.5230330000000  0.4539580000000  0.4170790000000 1.0
C      1  0.4746170000000  0.5398200000000  0.5830320000000 1.0
C      1  0.5373300000000  0.4576040000000  0.5067000000000 1.0
C      1  0.4702000000000  0.3989060000000  0.4746150000000 1.0
C      1  0.5811020000000  0.4754540000000  0.5467820000000 1.0
C      1  0.4443010000000  0.5225120000000  0.5098650000000 1.0
END
