TITL C-2848504-8560-623 0.00163910658901595 125000 -768.055759499645 0 0 144 (C1) n - 1
REM
REM in /home/bkarasulu/work/CARBON/AIRSS/Generating-Clusters/AIREBO/with-SteepDescent/Only-C1/SD-CG-opt/Try1-1.4A-POS3A/HFTN-CG
REM
REM
REM
REM
REM
REM ./C.cell (11c1c37f851c82e70ff6c80c92926a4b)
REM
REM compiler GCC version 9.2.1 20190827 (Red Hat 9.2.1-1)
REM options -cpp -mtune=generic -march=x86-64 -g -O0 -fpre-include=/usr/include/finclude/math-vector-fortran.h
REM seed -1900042477 979532793 1919722718 -1472317336 -1409977029 -402311308 76718901 2110695637 1883734510 599256420 1836721116 477179724 1888864332 -97737406 -899155423 1016906225 -1228879677 -1468854269 -764145972 -507797265 1210216734 1175592229 565697189 -2107953179 1658754698 1832861041 -1541613486 1980055948 692352691 -1007993355 1512646167 -5118924 -1815543435
REM
CELL 1.54180   50.00000   50.00000   50.00000   90.00000   90.00000   90.00000
LATT -1
SFAC C  
C      1  0.5490370000000  0.4948340000000  0.4124200000000 1.0
C      1  0.5070530000000  0.4234150000000  0.5656810000000 1.0
C      1  0.4817900000000  0.5978520000000  0.4794720000000 1.0
C      1  0.5491310000000  0.5149540000000  0.4970970000000 1.0
C      1  0.4990870000000  0.5466200000000  0.4176670000000 1.0
C      1  0.4805290000000  0.3945500000000  0.4952050000000 1.0
C      1  0.5093230000000  0.4984700000000  0.4099120000000 1.0
C      1  0.5289300000000  0.4768280000000  0.5360100000000 1.0
C      1  0.4789010000000  0.5468550000000  0.5185790000000 1.0
C      1  0.5227670000000  0.4546960000000  0.5109350000000 1.0
C      1  0.4341130000000  0.5615180000000  0.4691910000000 1.0
C      1  0.5966920000000  0.5347310000000  0.4797890000000 1.0
C      1  0.4780620000000  0.5784710000000  0.4529100000000 1.0
C      1  0.4215140000000  0.4306640000000  0.4958240000000 1.0
C      1  0.5257050000000  0.4468810000000  0.4779650000000 1.0
C      1  0.5304110000000  0.4229230000000  0.5409440000000 1.0
C      1  0.4965720000000  0.4307070000000  0.4258440000000 1.0
C      1  0.5439050000000  0.4172050000000  0.5101850000000 1.0
C      1  0.4450300000000  0.4878510000000  0.4879020000000 1.0
C      1  0.4806330000000  0.4341210000000  0.5006660000000 1.0
C      1  0.5871080000000  0.4656940000000  0.5265250000000 1.0
C      1  0.5943930000000  0.5126160000000  0.5009510000000 1.0
C      1  0.5164930000000  0.4440660000000  0.5909900000000 1.0
C      1  0.5840220000000  0.4865870000000  0.4868060000000 1.0
C      1  0.4596610000000  0.5493040000000  0.5465130000000 1.0
C      1  0.5755030000000  0.4579770000000  0.4705290000000 1.0
C      1  0.4909480000000  0.5593310000000  0.5819810000000 1.0
C      1  0.4423940000000  0.5199900000000  0.5113270000000 1.0
C      1  0.4843380000000  0.4575700000000  0.5466390000000 1.0
C      1  0.4574460000000  0.4028700000000  0.5098070000000 1.0
C      1  0.4530100000000  0.6135320000000  0.5309140000000 1.0
C      1  0.4731450000000  0.5777060000000  0.5054850000000 1.0
C      1  0.5089960000000  0.5876290000000  0.4608100000000 1.0
C      1  0.5483970000000  0.5601400000000  0.5144750000000 1.0
C      1  0.4844290000000  0.5454610000000  0.4850450000000 1.0
C      1  0.5543110000000  0.4578450000000  0.5700610000000 1.0
C      1  0.5645990000000  0.5380100000000  0.5588540000000 1.0
C      1  0.5328650000000  0.5276750000000  0.5598520000000 1.0
C      1  0.5519830000000  0.4661810000000  0.5033750000000 1.0
C      1  0.4486790000000  0.4458850000000  0.4298430000000 1.0
C      1  0.4567090000000  0.5942740000000  0.5574450000000 1.0
C      1  0.5728520000000  0.5417110000000  0.4362940000000 1.0
C      1  0.5333650000000  0.5839060000000  0.4468360000000 1.0
C      1  0.5081870000000  0.5696300000000  0.4881630000000 1.0
C      1  0.4847490000000  0.4076080000000  0.5390000000000 1.0
C      1  0.4374060000000  0.5013110000000  0.4301940000000 1.0
C      1  0.4607050000000  0.4097480000000  0.5825060000000 1.0
C      1  0.4611250000000  0.4769260000000  0.4324940000000 1.0
C      1  0.5953460000000  0.5272520000000  0.4523520000000 1.0
C      1  0.5238840000000  0.5465550000000  0.4038770000000 1.0
C      1  0.5958000000000  0.4560560000000  0.4962540000000 1.0
C      1  0.5195030000000  0.4986590000000  0.5006830000000 1.0
C      1  0.5313070000000  0.4082340000000  0.4859770000000 1.0
C      1  0.4962210000000  0.5521650000000  0.4474290000000 1.0
C      1  0.4253930000000  0.5406410000000  0.5279180000000 1.0
C      1  0.4565290000000  0.5091650000000  0.5787580000000 1.0
C      1  0.4141700000000  0.4663930000000  0.5279180000000 1.0
C      1  0.5274780000000  0.4187120000000  0.4320890000000 1.0
C      1  0.5186960000000  0.5969450000000  0.5406120000000 1.0
C      1  0.5137210000000  0.5019540000000  0.5630860000000 1.0
C      1  0.4705210000000  0.5704550000000  0.5648850000000 1.0
C      1  0.5242980000000  0.4475110000000  0.4153750000000 1.0
C      1  0.5641820000000  0.5627630000000  0.5423380000000 1.0
C      1  0.4369020000000  0.4878290000000  0.5209280000000 1.0
C      1  0.4289830000000  0.5402510000000  0.5581070000000 1.0
C      1  0.5212850000000  0.5572330000000  0.5719660000000 1.0
C      1  0.4834600000000  0.4637330000000  0.5802260000000 1.0
C      1  0.4680670000000  0.4236520000000  0.4708380000000 1.0
C      1  0.4796880000000  0.4302300000000  0.5846980000000 1.0
C      1  0.4617900000000  0.4302630000000  0.5282330000000 1.0
C      1  0.5114490000000  0.5876840000000  0.5627310000000 1.0
C      1  0.5420370000000  0.5292290000000  0.5271350000000 1.0
C      1  0.5381080000000  0.5880910000000  0.4878840000000 1.0
C      1  0.4986640000000  0.4912360000000  0.5884800000000 1.0
C      1  0.4812180000000  0.5065720000000  0.4923450000000 1.0
C      1  0.5014660000000  0.4350220000000  0.5278130000000 1.0
C      1  0.4622930000000  0.4628370000000  0.5031670000000 1.0
C      1  0.5207970000000  0.4943440000000  0.4406890000000 1.0
C      1  0.5490490000000  0.5743970000000  0.5643470000000 1.0
C      1  0.4783950000000  0.5119480000000  0.5962200000000 1.0
C      1  0.5798960000000  0.5561260000000  0.4843750000000 1.0
C      1  0.5198230000000  0.4712490000000  0.6022210000000 1.0
C      1  0.5203260000000  0.5361770000000  0.4653080000000 1.0
C      1  0.5159900000000  0.4555100000000  0.5588890000000 1.0
C      1  0.5474540000000  0.5459980000000  0.4833260000000 1.0
C      1  0.5707020000000  0.5141240000000  0.4237810000000 1.0
C      1  0.4175930000000  0.5327150000000  0.5796530000000 1.0
C      1  0.5739010000000  0.5173700000000  0.5280840000000 1.0
C      1  0.4114130000000  0.5480600000000  0.4988230000000 1.0
C      1  0.5621850000000  0.5822320000000  0.4757720000000 1.0
C      1  0.4535370000000  0.4622250000000  0.5360160000000 1.0
C      1  0.4449350000000  0.4409280000000  0.4841900000000 1.0
C      1  0.5445000000000  0.4896640000000  0.5634550000000 1.0
C      1  0.4047030000000  0.4521540000000  0.5049570000000 1.0
C      1  0.4129900000000  0.5273480000000  0.4800620000000 1.0
C      1  0.4288060000000  0.4042150000000  0.5044900000000 1.0
C      1  0.5322220000000  0.5210290000000  0.3988250000000 1.0
C      1  0.4091390000000  0.4883720000000  0.4321030000000 1.0
C      1  0.5940560000000  0.4984340000000  0.4378820000000 1.0
C      1  0.5114890000000  0.5440820000000  0.5254550000000 1.0
C      1  0.4734910000000  0.5131720000000  0.5232950000000 1.0
C      1  0.4591380000000  0.5093190000000  0.4091960000000 1.0
C      1  0.5274570000000  0.4730530000000  0.3968610000000 1.0
C      1  0.5241870000000  0.5812290000000  0.5158360000000 1.0
C      1  0.5713300000000  0.4961350000000  0.4594500000000 1.0
C      1  0.4746310000000  0.4473050000000  0.6119250000000 1.0
C      1  0.4857920000000  0.5230040000000  0.4107050000000 1.0
C      1  0.5601810000000  0.4865240000000  0.5261290000000 1.0
C      1  0.4695820000000  0.6077360000000  0.5096830000000 1.0
C      1  0.4998180000000  0.4943770000000  0.5349160000000 1.0
C      1  0.4622670000000  0.4956230000000  0.4608500000000 1.0
C      1  0.5124180000000  0.5298730000000  0.4966620000000 1.0
C      1  0.5559410000000  0.5591240000000  0.4525110000000 1.0
C      1  0.4211830000000  0.5716960000000  0.5195150000000 1.0
C      1  0.4024000000000  0.4799130000000  0.4563720000000 1.0
C      1  0.5400960000000  0.5084830000000  0.4648530000000 1.0
C      1  0.4356860000000  0.5246490000000  0.4548670000000 1.0
C      1  0.4152010000000  0.4963930000000  0.4820290000000 1.0
C      1  0.4848760000000  0.5390450000000  0.6011690000000 1.0
C      1  0.5678610000000  0.4385280000000  0.5046180000000 1.0
C      1  0.5420940000000  0.4240660000000  0.4587700000000 1.0
C      1  0.4609820000000  0.5170630000000  0.5538650000000 1.0
C      1  0.4814000000000  0.5243510000000  0.4585470000000 1.0
C      1  0.5025060000000  0.4066430000000  0.4817230000000 1.0
C      1  0.5412480000000  0.4692260000000  0.4337860000000 1.0
C      1  0.3954240000000  0.4695500000000  0.4850080000000 1.0
C      1  0.4055930000000  0.4631870000000  0.5536700000000 1.0
C      1  0.5011480000000  0.5004170000000  0.4654780000000 1.0
C      1  0.4850110000000  0.4729150000000  0.4719620000000 1.0
C      1  0.4504900000000  0.5754190000000  0.4453500000000 1.0
C      1  0.4300830000000  0.5526600000000  0.4376260000000 1.0
C      1  0.4985000000000  0.4361220000000  0.4652500000000 1.0
C      1  0.5465710000000  0.4773460000000  0.5940600000000 1.0
C      1  0.4787770000000  0.4842600000000  0.4043730000000 1.0
C      1  0.4672380000000  0.4265450000000  0.4391840000000 1.0
C      1  0.5318340000000  0.4788670000000  0.4793850000000 1.0
C      1  0.5574790000000  0.4514950000000  0.4526540000000 1.0
C      1  0.4518600000000  0.5358730000000  0.4827910000000 1.0
C      1  0.5563490000000  0.4361650000000  0.5540000000000 1.0
C      1  0.4893730000000  0.4595420000000  0.4423730000000 1.0
C      1  0.4920090000000  0.4792220000000  0.5054830000000 1.0
C      1  0.5990190000000  0.4948040000000  0.5295410000000 1.0
C      1  0.4301070000000  0.5912470000000  0.5364580000000 1.0
C      1  0.5780070000000  0.4364880000000  0.5362770000000 1.0
END
