TITL C-2848500-1637-289 -302.975986966775 125000 -694.76324432835 0 0 128 (C1) n - 1
REM
REM in /home/bkarasulu/work/CARBON/AIRSS/Generating-Clusters/AIREBO/with-SteepDescent/Only-C1/SD-CG-opt/Try1-1.4A-POS3A/HFTN-CG
REM
REM
REM
REM
REM
REM ./C.cell (11c1c37f851c82e70ff6c80c92926a4b)
REM
REM compiler GCC version 9.2.1 20190827 (Red Hat 9.2.1-1)
REM options -cpp -mtune=generic -march=x86-64 -g -O0 -fpre-include=/usr/include/finclude/math-vector-fortran.h
REM seed -1110190749 879449719 -1735328514 35695395 1039232805 -1920564424 -1401582643 1880915646 -913652505 254870328 -893568517 395121229 1734350805 -1929669232 -1997102020 729859490 689218902 1355589164 1287049875 1894961842 316290979 -1532907930 114335248 471781929 212677805 -1689855075 1813615769 -1799369907 1273826921 368241601 122718038 -851851501 -371313208
REM
CELL 1.54180   50.00000   50.00000   50.00000   90.00000   90.00000   90.00000
LATT -1
SFAC C  
C      1  0.4265810000000  0.5323510000000  0.5534320000000 1.0
C      1  0.4275520000000  0.4627570000000  0.5756150000000 1.0
C      1  0.5304940000000  0.5783340000000  0.4397390000000 1.0
C      1  0.5275940000000  0.3942860000000  0.4831810000000 1.0
C      1  0.5308910000000  0.5053870000000  0.5513660000000 1.0
C      1  0.5459600000000  0.4322930000000  0.4572100000000 1.0
C      1  0.5605550000000  0.4733890000000  0.5406930000000 1.0
C      1  0.4386170000000  0.5681970000000  0.4615600000000 1.0
C      1  0.4457640000000  0.5009710000000  0.4635400000000 1.0
C      1  0.4739000000000  0.4078900000000  0.5280330000000 1.0
C      1  0.4879120000000  0.5509860000000  0.5252050000000 1.0
C      1  0.4969080000000  0.5136990000000  0.4551010000000 1.0
C      1  0.5481160000000  0.5274200000000  0.4181690000000 1.0
C      1  0.5643470000000  0.5623810000000  0.5093930000000 1.0
C      1  0.4991240000000  0.4526730000000  0.4516270000000 1.0
C      1  0.4122900000000  0.4963220000000  0.4424070000000 1.0
C      1  0.4694810000000  0.4375380000000  0.4586010000000 1.0
C      1  0.4642230000000  0.5232590000000  0.4519750000000 1.0
C      1  0.5444140000000  0.4966950000000  0.4213370000000 1.0
C      1  0.4144910000000  0.4970580000000  0.5216250000000 1.0
C      1  0.4510800000000  0.4465910000000  0.5316610000000 1.0
C      1  0.5661450000000  0.4549880000000  0.4554820000000 1.0
C      1  0.4422140000000  0.5414330000000  0.4641800000000 1.0
C      1  0.5738040000000  0.5417500000000  0.4311320000000 1.0
C      1  0.4987670000000  0.5828590000000  0.5304320000000 1.0
C      1  0.5447920000000  0.4678670000000  0.5874840000000 1.0
C      1  0.5819870000000  0.4613750000000  0.4776350000000 1.0
C      1  0.4070120000000  0.4691870000000  0.5350180000000 1.0
C      1  0.5476970000000  0.4112600000000  0.5220590000000 1.0
C      1  0.4234480000000  0.5452580000000  0.5110010000000 1.0
C      1  0.4546830000000  0.4637750000000  0.5030630000000 1.0
C      1  0.4873450000000  0.5031840000000  0.4922250000000 1.0
C      1  0.5348540000000  0.4269450000000  0.4285070000000 1.0
C      1  0.4735570000000  0.5216970000000  0.5279210000000 1.0
C      1  0.4346330000000  0.5284760000000  0.4897520000000 1.0
C      1  0.4033310000000  0.4898780000000  0.4936650000000 1.0
C      1  0.5468410000000  0.4377680000000  0.5041490000000 1.0
C      1  0.5012080000000  0.5295520000000  0.4141890000000 1.0
C      1  0.6002120000000  0.4902920000000  0.5160700000000 1.0
C      1  0.4121140000000  0.5268620000000  0.5304970000000 1.0
C      1  0.5445880000000  0.5323850000000  0.4709770000000 1.0
C      1  0.5104180000000  0.5036250000000  0.6028200000000 1.0
C      1  0.5517010000000  0.5292470000000  0.5615790000000 1.0
C      1  0.4150570000000  0.5077900000000  0.4729900000000 1.0
C      1  0.5170150000000  0.4546840000000  0.5002510000000 1.0
C      1  0.5416750000000  0.5362790000000  0.3922330000000 1.0
C      1  0.5728500000000  0.5139040000000  0.4753060000000 1.0
C      1  0.5113360000000  0.4835230000000  0.4613310000000 1.0
C      1  0.5741140000000  0.4506550000000  0.5021540000000 1.0
C      1  0.4528220000000  0.5069200000000  0.4246950000000 1.0
C      1  0.5123960000000  0.4347650000000  0.5426720000000 1.0
C      1  0.4057060000000  0.4634830000000  0.4870620000000 1.0
C      1  0.5149420000000  0.4456490000000  0.4237550000000 1.0
C      1  0.5474740000000  0.5785670000000  0.5289620000000 1.0
C      1  0.5031090000000  0.5664910000000  0.5586280000000 1.0
C      1  0.4665360000000  0.4726980000000  0.4401770000000 1.0
C      1  0.4590140000000  0.4243570000000  0.5090960000000 1.0
C      1  0.4846550000000  0.4230300000000  0.5514610000000 1.0
C      1  0.4878870000000  0.4741670000000  0.4175790000000 1.0
C      1  0.5357710000000  0.5453730000000  0.4424050000000 1.0
C      1  0.5059270000000  0.4658300000000  0.5304190000000 1.0
C      1  0.4758910000000  0.5575850000000  0.4284180000000 1.0
C      1  0.4732230000000  0.5528310000000  0.5673670000000 1.0
C      1  0.4699430000000  0.4211330000000  0.4826410000000 1.0
C      1  0.5184190000000  0.4790800000000  0.4288810000000 1.0
C      1  0.4465930000000  0.4913360000000  0.5212610000000 1.0
C      1  0.4633960000000  0.5845000000000  0.4725670000000 1.0
C      1  0.5028430000000  0.5454020000000  0.4443150000000 1.0
C      1  0.4916650000000  0.3929940000000  0.5125060000000 1.0
C      1  0.5266610000000  0.5560010000000  0.5207180000000 1.0
C      1  0.4605310000000  0.4868380000000  0.5493970000000 1.0
C      1  0.5119010000000  0.5293050000000  0.5357850000000 1.0
C      1  0.5159880000000  0.5188820000000  0.4827780000000 1.0
C      1  0.4740600000000  0.5637620000000  0.4973030000000 1.0
C      1  0.5253960000000  0.5950280000000  0.5131150000000 1.0
C      1  0.4584290000000  0.5131990000000  0.5013550000000 1.0
C      1  0.4933540000000  0.5283530000000  0.5642810000000 1.0
C      1  0.5307420000000  0.4826220000000  0.4893420000000 1.0
C      1  0.4871960000000  0.4703710000000  0.4955320000000 1.0
C      1  0.4781880000000  0.4582320000000  0.5485740000000 1.0
C      1  0.4928050000000  0.5965080000000  0.4647750000000 1.0
C      1  0.5215760000000  0.5573520000000  0.4918660000000 1.0
C      1  0.4686370000000  0.5816500000000  0.4390910000000 1.0
C      1  0.5895410000000  0.5325860000000  0.4568800000000 1.0
C      1  0.5670720000000  0.4715100000000  0.5722070000000 1.0
C      1  0.5215340000000  0.5957860000000  0.4604500000000 1.0
C      1  0.4833400000000  0.4601330000000  0.3915280000000 1.0
C      1  0.5329460000000  0.4117770000000  0.5423750000000 1.0
C      1  0.5929660000000  0.4874370000000  0.4825040000000 1.0
C      1  0.4223280000000  0.4943980000000  0.5855500000000 1.0
C      1  0.5476280000000  0.4132790000000  0.4822160000000 1.0
C      1  0.4621550000000  0.5381440000000  0.4149850000000 1.0
C      1  0.4970190000000  0.4370800000000  0.5793390000000 1.0
C      1  0.5157360000000  0.4354360000000  0.4728530000000 1.0
C      1  0.4677780000000  0.5908170000000  0.5258940000000 1.0
C      1  0.5521060000000  0.5646240000000  0.4787720000000 1.0
C      1  0.5262120000000  0.4441620000000  0.5789150000000 1.0
C      1  0.5212460000000  0.4861140000000  0.5771950000000 1.0
C      1  0.4471190000000  0.4761680000000  0.5973090000000 1.0
C      1  0.4306050000000  0.4547480000000  0.4808100000000 1.0
C      1  0.5812020000000  0.5158110000000  0.5077770000000 1.0
C      1  0.4416240000000  0.4525560000000  0.4515820000000 1.0
C      1  0.4291320000000  0.5210070000000  0.5785680000000 1.0
C      1  0.4346810000000  0.4797350000000  0.4316180000000 1.0
C      1  0.4990240000000  0.4085780000000  0.4840990000000 1.0
C      1  0.5947430000000  0.5163630000000  0.5374440000000 1.0
C      1  0.4944220000000  0.4682050000000  0.5767380000000 1.0
C      1  0.5373570000000  0.4890190000000  0.5221210000000 1.0
C      1  0.5561890000000  0.4791330000000  0.4418590000000 1.0
C      1  0.4264650000000  0.4559020000000  0.5486520000000 1.0
C      1  0.4563410000000  0.5307320000000  0.5869520000000 1.0
C      1  0.4533740000000  0.5434720000000  0.5436850000000 1.0
C      1  0.5341100000000  0.4598960000000  0.5499490000000 1.0
C      1  0.5311340000000  0.5181220000000  0.5100520000000 1.0
C      1  0.5521660000000  0.4900280000000  0.4686870000000 1.0
C      1  0.5828770000000  0.4658270000000  0.5237080000000 1.0
C      1  0.4621900000000  0.4786110000000  0.4734020000000 1.0
C      1  0.5576430000000  0.5337090000000  0.5090280000000 1.0
C      1  0.5791270000000  0.5248530000000  0.5577320000000 1.0
C      1  0.4616000000000  0.4977110000000  0.5789540000000 1.0
C      1  0.4486730000000  0.5648760000000  0.5199420000000 1.0
C      1  0.4861440000000  0.5048480000000  0.4240810000000 1.0
C      1  0.5770240000000  0.5619650000000  0.4571470000000 1.0
C      1  0.4974390000000  0.5637140000000  0.4724840000000 1.0
C      1  0.5360310000000  0.5939370000000  0.4850180000000 1.0
C      1  0.4895940000000  0.5093440000000  0.5842340000000 1.0
C      1  0.4974210000000  0.4988150000000  0.5306880000000 1.0
C      1  0.5275800000000  0.5477650000000  0.5596690000000 1.0
END
