TITL C-2848497-6229-483 0.000616642708329218 125000 -82.531318128547 0 0 16 (C1) n - 1
REM
REM in /home/bkarasulu/work/CARBON/AIRSS/Generating-Clusters/AIREBO/with-SteepDescent/Only-C1/SD-CG-opt/Try1-1.4A-POS3A/HFTN-CG
REM
REM
REM
REM
REM
REM ./C.cell (11c1c37f851c82e70ff6c80c92926a4b)
REM
REM compiler GCC version 9.2.1 20190827 (Red Hat 9.2.1-1)
REM options -cpp -mtune=generic -march=x86-64 -g -O0 -fpre-include=/usr/include/finclude/math-vector-fortran.h
REM seed -87927120 615524533 -1696300615 236815530 2065978660 465040561 397406247 -429410607 -1883859996 98763933 1924942046 2087528713 417137175 -833277426 -98160165 -1393178925 552155456 1702899092 -349437022 -1491337284 -1762995189 -551479620 422704207 -1030218325 101219483 1869517860 739047109 -1048890486 523976119 -1814836893 -863057366 1776677964 455617602
REM
CELL 1.54180   50.00000   50.00000   50.00000   90.00000   90.00000   90.00000
LATT -1
SFAC C  
C      1  0.4882250000000  0.5549970000000  0.5530060000000 1.0
C      1  0.5328900000000  0.4671980000000  0.5455210000000 1.0
C      1  0.4910780000000  0.5215860000000  0.5161050000000 1.0
C      1  0.5097870000000  0.5098810000000  0.5563770000000 1.0
C      1  0.5251910000000  0.4785250000000  0.4257400000000 1.0
C      1  0.5010070000000  0.4902540000000  0.5143910000000 1.0
C      1  0.4802940000000  0.4497160000000  0.4932460000000 1.0
C      1  0.5155120000000  0.4868620000000  0.5400440000000 1.0
C      1  0.4956550000000  0.5307850000000  0.5423530000000 1.0
C      1  0.5075040000000  0.4859410000000  0.4438790000000 1.0
C      1  0.5445440000000  0.4721890000000  0.4092380000000 1.0
C      1  0.4789210000000  0.5769620000000  0.5638670000000 1.0
C      1  0.4857910000000  0.4917990000000  0.4644080000000 1.0
C      1  0.4948120000000  0.5133040000000  0.4865070000000 1.0
C      1  0.4886230000000  0.4744650000000  0.4914890000000 1.0
C      1  0.4601660000000  0.4955370000000  0.4538300000000 1.0
END
