TITL C-2847956-8218-455 0.00297512791322891 125000 -933.714454042793 0 0 176 (C1) n - 1
REM
REM in /home/bkarasulu/work/CARBON/AIRSS/Generating-Clusters/AIREBO/with-SteepDescent/Only-C1/SD-CG-opt/Try1-1.4A-POS3A/HFTN-CG
REM
REM
REM
REM
REM
REM ./C.cell (11c1c37f851c82e70ff6c80c92926a4b)
REM
REM compiler GCC version 9.2.1 20190827 (Red Hat 9.2.1-1)
REM options -cpp -mtune=generic -march=x86-64 -g -O0 -fpre-include=/usr/include/finclude/math-vector-fortran.h
REM seed -339102513 -702338116 -1830179450 -1228243119 1504927374 1671261866 -465511215 -416898179 942474924 -1505260062 1870041363 2038214378 1505230874 -1992521205 -805120703 948302580 1720141722 904786174 1303592514 -174350623 -349839430 2146472586 -660681788 345214757 -475437153 -1928754781 -393217162 1474547119 156393978 -1751394419 749470296 -1356107689 878280627
REM
CELL 1.54180   50.00000   50.00000   50.00000   90.00000   90.00000   90.00000
LATT -1
SFAC C  
C      1  0.4456360000000  0.5829530000000  0.4519280000000 1.0
C      1  0.5266710000000  0.5899410000000  0.5601570000000 1.0
C      1  0.3840440000000  0.5294710000000  0.5167840000000 1.0
C      1  0.4353570000000  0.4284060000000  0.4714670000000 1.0
C      1  0.5883510000000  0.4884360000000  0.5378980000000 1.0
C      1  0.5528820000000  0.5509300000000  0.4742820000000 1.0
C      1  0.4115780000000  0.4631410000000  0.4356760000000 1.0
C      1  0.5170930000000  0.6106340000000  0.5128610000000 1.0
C      1  0.4482460000000  0.4629770000000  0.5339400000000 1.0
C      1  0.5485870000000  0.4135640000000  0.5093620000000 1.0
C      1  0.5614650000000  0.5417730000000  0.5019670000000 1.0
C      1  0.5479740000000  0.4150180000000  0.5434600000000 1.0
C      1  0.5353370000000  0.4842240000000  0.5917810000000 1.0
C      1  0.4745990000000  0.5745310000000  0.5495140000000 1.0
C      1  0.5050300000000  0.4827730000000  0.4946360000000 1.0
C      1  0.5845430000000  0.4957880000000  0.4982220000000 1.0
C      1  0.4399150000000  0.5744080000000  0.4991170000000 1.0
C      1  0.5805640000000  0.5375150000000  0.4492410000000 1.0
C      1  0.5019280000000  0.5106210000000  0.5738120000000 1.0
C      1  0.5532760000000  0.4613220000000  0.5785580000000 1.0
C      1  0.5110300000000  0.4002910000000  0.4756080000000 1.0
C      1  0.4313760000000  0.4845330000000  0.5205320000000 1.0
C      1  0.5717320000000  0.5607510000000  0.5277030000000 1.0
C      1  0.5374730000000  0.4404140000000  0.5636940000000 1.0
C      1  0.6015650000000  0.4223110000000  0.5243990000000 1.0
C      1  0.4756290000000  0.5737030000000  0.5163410000000 1.0
C      1  0.4312570000000  0.4366490000000  0.5328170000000 1.0
C      1  0.5199170000000  0.4967680000000  0.3994470000000 1.0
C      1  0.4312610000000  0.5017270000000  0.4464820000000 1.0
C      1  0.4972930000000  0.3927280000000  0.4455670000000 1.0
C      1  0.4863700000000  0.5797330000000  0.4884480000000 1.0
C      1  0.4743670000000  0.5718610000000  0.4610190000000 1.0
C      1  0.5580200000000  0.4501000000000  0.5242490000000 1.0
C      1  0.4467380000000  0.4380120000000  0.5025480000000 1.0
C      1  0.5252540000000  0.5584380000000  0.5017300000000 1.0
C      1  0.4402650000000  0.3988740000000  0.5032920000000 1.0
C      1  0.5358660000000  0.5129570000000  0.5736060000000 1.0
C      1  0.4909430000000  0.4987450000000  0.4520500000000 1.0
C      1  0.4781410000000  0.5410980000000  0.4934360000000 1.0
C      1  0.4290710000000  0.5156710000000  0.5954070000000 1.0
C      1  0.4583830000000  0.4690810000000  0.5639280000000 1.0
C      1  0.5229570000000  0.3966160000000  0.5061480000000 1.0
C      1  0.6044550000000  0.4417510000000  0.5029790000000 1.0
C      1  0.6041690000000  0.5486530000000  0.4692460000000 1.0
C      1  0.4729170000000  0.6156400000000  0.4775690000000 1.0
C      1  0.5007880000000  0.6131970000000  0.4725460000000 1.0
C      1  0.5104880000000  0.5399980000000  0.5884140000000 1.0
C      1  0.5302800000000  0.4020250000000  0.5694360000000 1.0
C      1  0.4971590000000  0.6158920000000  0.5318820000000 1.0
C      1  0.5285230000000  0.4600580000000  0.5176500000000 1.0
C      1  0.4382120000000  0.5128180000000  0.4153100000000 1.0
C      1  0.5582060000000  0.5626570000000  0.4437770000000 1.0
C      1  0.5697390000000  0.5144160000000  0.5762340000000 1.0
C      1  0.4029060000000  0.5038210000000  0.4586450000000 1.0
C      1  0.4222120000000  0.5171100000000  0.4833220000000 1.0
C      1  0.4676440000000  0.4325790000000  0.4689540000000 1.0
C      1  0.5094720000000  0.5120740000000  0.4772580000000 1.0
C      1  0.4915530000000  0.4235320000000  0.4497720000000 1.0
C      1  0.6076060000000  0.5346240000000  0.5519390000000 1.0
C      1  0.4571920000000  0.4667110000000  0.4951610000000 1.0
C      1  0.4150340000000  0.4929080000000  0.5838270000000 1.0
C      1  0.5449090000000  0.4448990000000  0.4589620000000 1.0
C      1  0.4866470000000  0.3932900000000  0.4950560000000 1.0
C      1  0.5736640000000  0.5806150000000  0.4930990000000 1.0
C      1  0.4588550000000  0.5053430000000  0.5985550000000 1.0
C      1  0.4710030000000  0.4375520000000  0.5659110000000 1.0
C      1  0.4253340000000  0.5631190000000  0.4474310000000 1.0
C      1  0.5400170000000  0.5515990000000  0.4181890000000 1.0
C      1  0.5239990000000  0.5268730000000  0.4147260000000 1.0
C      1  0.5145750000000  0.5732580000000  0.5264610000000 1.0
C      1  0.6038470000000  0.4968530000000  0.4479110000000 1.0
C      1  0.4761630000000  0.4870200000000  0.5094770000000 1.0
C      1  0.5084430000000  0.5418160000000  0.4821600000000 1.0
C      1  0.5949890000000  0.5620960000000  0.4943750000000 1.0
C      1  0.4937720000000  0.5465410000000  0.5231970000000 1.0
C      1  0.4747840000000  0.5241050000000  0.5379600000000 1.0
C      1  0.5538290000000  0.4837780000000  0.4598770000000 1.0
C      1  0.4048570000000  0.4715020000000  0.5037690000000 1.0
C      1  0.4918390000000  0.4392080000000  0.5872840000000 1.0
C      1  0.4001720000000  0.5511960000000  0.5216590000000 1.0
C      1  0.5154190000000  0.4338420000000  0.4718040000000 1.0
C      1  0.5826480000000  0.5254400000000  0.4816620000000 1.0
C      1  0.5260620000000  0.4939600000000  0.5189140000000 1.0
C      1  0.4275400000000  0.4689510000000  0.4830940000000 1.0
C      1  0.4763830000000  0.5538290000000  0.5733440000000 1.0
C      1  0.4318550000000  0.5397960000000  0.4322360000000 1.0
C      1  0.5403030000000  0.4829750000000  0.5477680000000 1.0
C      1  0.5340680000000  0.5321540000000  0.4530750000000 1.0
C      1  0.4456940000000  0.4094730000000  0.5305020000000 1.0
C      1  0.5486200000000  0.5831950000000  0.4703610000000 1.0
C      1  0.5040380000000  0.5091810000000  0.5399000000000 1.0
C      1  0.5766640000000  0.4529730000000  0.4498550000000 1.0
C      1  0.4781530000000  0.5689320000000  0.5997510000000 1.0
C      1  0.4973990000000  0.5966420000000  0.5539290000000 1.0
C      1  0.4625640000000  0.4034360000000  0.4861090000000 1.0
C      1  0.4964780000000  0.4502650000000  0.3816180000000 1.0
C      1  0.4163750000000  0.5553600000000  0.4735660000000 1.0
C      1  0.4872350000000  0.5448710000000  0.4151470000000 1.0
C      1  0.5010200000000  0.4724880000000  0.4069500000000 1.0
C      1  0.5348610000000  0.5396590000000  0.5569230000000 1.0
C      1  0.5256850000000  0.5148290000000  0.6059970000000 1.0
C      1  0.4792360000000  0.4313300000000  0.5101890000000 1.0
C      1  0.5052140000000  0.4486820000000  0.4967370000000 1.0
C      1  0.4144700000000  0.5104590000000  0.5356430000000 1.0
C      1  0.4716350000000  0.4660830000000  0.4646930000000 1.0
C      1  0.5518100000000  0.4909260000000  0.4987670000000 1.0
C      1  0.3921020000000  0.4812180000000  0.4444490000000 1.0
C      1  0.4969410000000  0.4388420000000  0.4133600000000 1.0
C      1  0.5423980000000  0.5683300000000  0.5688650000000 1.0
C      1  0.5716650000000  0.4350500000000  0.4969850000000 1.0
C      1  0.3993430000000  0.4388210000000  0.5412730000000 1.0
C      1  0.4941280000000  0.4783580000000  0.5371960000000 1.0
C      1  0.4950060000000  0.4670310000000  0.5914960000000 1.0
C      1  0.5056920000000  0.5183480000000  0.3802140000000 1.0
C      1  0.4503770000000  0.5264760000000  0.5232290000000 1.0
C      1  0.5024390000000  0.5287660000000  0.4409590000000 1.0
C      1  0.5810370000000  0.5162620000000  0.5256490000000 1.0
C      1  0.4071320000000  0.5673240000000  0.5002160000000 1.0
C      1  0.5771360000000  0.4241290000000  0.5350610000000 1.0
C      1  0.5693890000000  0.5593870000000  0.5591760000000 1.0
C      1  0.5889830000000  0.5057960000000  0.4266040000000 1.0
C      1  0.5050130000000  0.4714270000000  0.4625720000000 1.0
C      1  0.5682970000000  0.4862610000000  0.5609930000000 1.0
C      1  0.4264940000000  0.5421110000000  0.5389740000000 1.0
C      1  0.5992110000000  0.5433710000000  0.5208900000000 1.0
C      1  0.4404210000000  0.4230770000000  0.4414890000000 1.0
C      1  0.5144850000000  0.4244100000000  0.5820220000000 1.0
C      1  0.4485800000000  0.5050880000000  0.5011210000000 1.0
C      1  0.4499890000000  0.5977520000000  0.4789330000000 1.0
C      1  0.5239480000000  0.5768060000000  0.4278980000000 1.0
C      1  0.4290700000000  0.5375980000000  0.5717160000000 1.0
C      1  0.4852520000000  0.4954900000000  0.6001390000000 1.0
C      1  0.4628920000000  0.5000810000000  0.4706860000000 1.0
C      1  0.5420760000000  0.4167100000000  0.4436930000000 1.0
C      1  0.3979270000000  0.4431020000000  0.5118040000000 1.0
C      1  0.4762220000000  0.5400630000000  0.4594620000000 1.0
C      1  0.4320530000000  0.4702380000000  0.5820660000000 1.0
C      1  0.4706510000000  0.4116130000000  0.5438890000000 1.0
C      1  0.4866390000000  0.5351360000000  0.3905770000000 1.0
C      1  0.5385540000000  0.5969620000000  0.5308690000000 1.0
C      1  0.4456220000000  0.5697950000000  0.5323420000000 1.0
C      1  0.5502150000000  0.4090480000000  0.4756460000000 1.0
C      1  0.4811820000000  0.4884150000000  0.4237230000000 1.0
C      1  0.5191870000000  0.5885490000000  0.4870880000000 1.0
C      1  0.4540800000000  0.4870740000000  0.4171080000000 1.0
C      1  0.5177260000000  0.5616230000000  0.4576440000000 1.0
C      1  0.5648120000000  0.5903640000000  0.5200710000000 1.0
C      1  0.5868610000000  0.4667280000000  0.5157300000000 1.0
C      1  0.5716250000000  0.4847610000000  0.4151200000000 1.0
C      1  0.5220260000000  0.4189390000000  0.4243070000000 1.0
C      1  0.4954630000000  0.4052040000000  0.5243100000000 1.0
C      1  0.4166170000000  0.4227920000000  0.4982810000000 1.0
C      1  0.5863800000000  0.4802380000000  0.4680220000000 1.0
C      1  0.5793610000000  0.4583910000000  0.4227640000000 1.0
C      1  0.5137790000000  0.4438710000000  0.5411620000000 1.0
C      1  0.4670470000000  0.4348260000000  0.4290560000000 1.0
C      1  0.5847390000000  0.5374470000000  0.5696240000000 1.0
C      1  0.5033700000000  0.5468580000000  0.5558400000000 1.0
C      1  0.5130510000000  0.4801630000000  0.5658430000000 1.0
C      1  0.4427530000000  0.4575120000000  0.4217520000000 1.0
C      1  0.4597970000000  0.5294590000000  0.5746000000000 1.0
C      1  0.4446960000000  0.5423620000000  0.4871770000000 1.0
C      1  0.4535680000000  0.5237410000000  0.4504120000000 1.0
C      1  0.4934250000000  0.5673950000000  0.4358710000000 1.0
C      1  0.3996340000000  0.4997740000000  0.5609710000000 1.0
C      1  0.5578560000000  0.5176080000000  0.4336110000000 1.0
C      1  0.5322830000000  0.5260990000000  0.5096450000000 1.0
C      1  0.5299770000000  0.4707750000000  0.4435240000000 1.0
C      1  0.4805540000000  0.4497160000000  0.5368740000000 1.0
C      1  0.5416580000000  0.4910120000000  0.4211240000000 1.0
C      1  0.4715160000000  0.5003740000000  0.5614220000000 1.0
C      1  0.5400240000000  0.5074470000000  0.4741820000000 1.0
C      1  0.4006440000000  0.5044990000000  0.5051570000000 1.0
C      1  0.5564920000000  0.4609510000000  0.4860810000000 1.0
C      1  0.5509020000000  0.5232080000000  0.5350220000000 1.0
C      1  0.4398630000000  0.4712020000000  0.4527460000000 1.0
END
