TITL C-2847950-6905-451 -0.0288434738643 125000 -219.479873873742 0 0 38 (C1) n - 1
REM
REM in /home/bkarasulu/work/CARBON/AIRSS/Generating-Clusters/AIREBO/with-SteepDescent/Only-C1/SD-CG-opt/Try1-1.4A-POS3A/HFTN-CG
REM
REM
REM
REM
REM
REM ./C.cell (11c1c37f851c82e70ff6c80c92926a4b)
REM
REM compiler GCC version 9.2.1 20190827 (Red Hat 9.2.1-1)
REM options -cpp -mtune=generic -march=x86-64 -g -O0 -fpre-include=/usr/include/finclude/math-vector-fortran.h
REM seed 793470454 -1045198079 -190433078 346099774 -398979262 -1410877364 1384781939 1465318240 818312515 1198794056 -1295491793 924978280 -588578919 -460000730 -1846806764 -973192181 839631665 -2041647562 1650692141 96503841 1778993269 -787860276 -33738853 -1381803422 -1576122540 -855365290 -1294733310 -828196864 -86697271 -500382517 108247374 -1801392518 667108833
REM
CELL 1.54180   50.00000   50.00000   50.00000   90.00000   90.00000   90.00000
LATT -1
SFAC C  
C      1  0.4957430000000  0.5642590000000  0.4782910000000 1.0
C      1  0.5385220000000  0.5018380000000  0.4501790000000 1.0
C      1  0.6350280000000  0.5211170000000  0.4504910000000 1.0
C      1  0.4625840000000  0.4977120000000  0.5760180000000 1.0
C      1  0.4661480000000  0.5181910000000  0.4818690000000 1.0
C      1  0.4525180000000  0.5100170000000  0.4578260000000 1.0
C      1  0.4511220000000  0.4950070000000  0.5234880000000 1.0
C      1  0.5547290000000  0.5244730000000  0.4521080000000 1.0
C      1  0.5262200000000  0.5671250000000  0.4680830000000 1.0
C      1  0.4703320000000  0.5011950000000  0.5041840000000 1.0
C      1  0.4621970000000  0.5090150000000  0.4105590000000 1.0
C      1  0.5480380000000  0.4684510000000  0.6115830000000 1.0
C      1  0.4005020000000  0.4995240000000  0.4736520000000 1.0
C      1  0.5063370000000  0.4377600000000  0.5240730000000 1.0
C      1  0.4256290000000  0.4881670000000  0.5148030000000 1.0
C      1  0.5598130000000  0.4652850000000  0.6347850000000 1.0
C      1  0.4927310000000  0.4896610000000  0.4421770000000 1.0
C      1  0.6088310000000  0.5211020000000  0.4513610000000 1.0
C      1  0.4690270000000  0.5028640000000  0.4359040000000 1.0
C      1  0.5414570000000  0.5487240000000  0.4553940000000 1.0
C      1  0.3952890000000  0.5086340000000  0.4431820000000 1.0
C      1  0.5272770000000  0.5073250000000  0.5519100000000 1.0
C      1  0.4253440000000  0.5088530000000  0.4556090000000 1.0
C      1  0.5059210000000  0.4592350000000  0.5073410000000 1.0
C      1  0.5217520000000  0.4508890000000  0.5743180000000 1.0
C      1  0.5333020000000  0.4720790000000  0.5885210000000 1.0
C      1  0.5151850000000  0.5077980000000  0.5280950000000 1.0
C      1  0.4822750000000  0.5408520000000  0.4800290000000 1.0
C      1  0.4573860000000  0.4951220000000  0.5504570000000 1.0
C      1  0.5170740000000  0.4418700000000  0.5494230000000 1.0
C      1  0.5130380000000  0.4769340000000  0.4825630000000 1.0
C      1  0.5291060000000  0.4972750000000  0.5769390000000 1.0
C      1  0.5159540000000  0.4872400000000  0.4574170000000 1.0
C      1  0.4982050000000  0.4917240000000  0.5085850000000 1.0
C      1  0.4036760000000  0.4941060000000  0.5002370000000 1.0
C      1  0.5822720000000  0.5229060000000  0.4503900000000 1.0
C      1  0.4979460000000  0.4133140000000  0.5163600000000 1.0
C      1  0.5114900000000  0.5923550000000  0.4817930000000 1.0
END
