TITL C-2848504-8560-503 0.00133057978354135 125000 -806.967836450539 0 0 154 (C1) n - 1
REM
REM in /home/bkarasulu/work/CARBON/AIRSS/Generating-Clusters/AIREBO/with-SteepDescent/Only-C1/SD-CG-opt/Try1-1.4A-POS3A/HFTN-CG
REM
REM
REM
REM
REM
REM ./C.cell (11c1c37f851c82e70ff6c80c92926a4b)
REM
REM compiler GCC version 9.2.1 20190827 (Red Hat 9.2.1-1)
REM options -cpp -mtune=generic -march=x86-64 -g -O0 -fpre-include=/usr/include/finclude/math-vector-fortran.h
REM seed -1147273081 -1083665381 1484469282 1618994796 -980260651 1104595642 269268450 -86604854 -368997974 670977443 -635129921 2016062758 -865901215 1336218137 -1554375580 267282691 -82991726 1493595364 -1293824097 -1879480161 -2032413030 -320813731 -1318217355 -1018681558 424080 -1917959644 -600266225 715283684 -709968448 1635349034 747740847 -79510724 1508912224
REM
CELL 1.54180   50.00000   50.00000   50.00000   90.00000   90.00000   90.00000
LATT -1
SFAC C  
C      1  0.5035340000000  0.5120560000000  0.4458110000000 1.0
C      1  0.4669520000000  0.5420480000000  0.5193040000000 1.0
C      1  0.6150800000000  0.4501900000000  0.4806210000000 1.0
C      1  0.5413300000000  0.5736840000000  0.4407690000000 1.0
C      1  0.5137750000000  0.4611700000000  0.5252820000000 1.0
C      1  0.5087190000000  0.5566870000000  0.4642020000000 1.0
C      1  0.5666310000000  0.5917980000000  0.5024430000000 1.0
C      1  0.4447540000000  0.5282120000000  0.5410380000000 1.0
C      1  0.5855120000000  0.5214370000000  0.5422910000000 1.0
C      1  0.5512570000000  0.5471320000000  0.5175100000000 1.0
C      1  0.5119790000000  0.6117540000000  0.4328310000000 1.0
C      1  0.4571110000000  0.5439970000000  0.5685240000000 1.0
C      1  0.4351390000000  0.5773620000000  0.5357410000000 1.0
C      1  0.5448950000000  0.4724230000000  0.5294610000000 1.0
C      1  0.4495310000000  0.5511310000000  0.4124010000000 1.0
C      1  0.5139590000000  0.5111260000000  0.5000010000000 1.0
C      1  0.4390440000000  0.4338100000000  0.5402070000000 1.0
C      1  0.4739580000000  0.4150700000000  0.4409330000000 1.0
C      1  0.5548150000000  0.5396680000000  0.5742460000000 1.0
C      1  0.4498350000000  0.5184030000000  0.5899500000000 1.0
C      1  0.4782010000000  0.4310910000000  0.5474700000000 1.0
C      1  0.4727040000000  0.4273220000000  0.5924290000000 1.0
C      1  0.5240500000000  0.5473720000000  0.5379120000000 1.0
C      1  0.4713440000000  0.5267250000000  0.4032030000000 1.0
C      1  0.4270220000000  0.4421630000000  0.4420750000000 1.0
C      1  0.4217980000000  0.5510400000000  0.5351960000000 1.0
C      1  0.5703580000000  0.4209290000000  0.4923100000000 1.0
C      1  0.5634160000000  0.4919540000000  0.5750960000000 1.0
C      1  0.4006630000000  0.5303910000000  0.4770300000000 1.0
C      1  0.5824450000000  0.4922110000000  0.5159520000000 1.0
C      1  0.5516550000000  0.4704410000000  0.4141270000000 1.0
C      1  0.4543290000000  0.5675700000000  0.4748560000000 1.0
C      1  0.4631630000000  0.5711950000000  0.5332550000000 1.0
C      1  0.5669110000000  0.5130280000000  0.4466640000000 1.0
C      1  0.4568290000000  0.4067610000000  0.5248610000000 1.0
C      1  0.5964350000000  0.5376070000000  0.5167450000000 1.0
C      1  0.4387780000000  0.4133780000000  0.5005220000000 1.0
C      1  0.4988610000000  0.5353370000000  0.5184930000000 1.0
C      1  0.4239040000000  0.5041460000000  0.5530120000000 1.0
C      1  0.4124220000000  0.4904020000000  0.4521410000000 1.0
C      1  0.4675630000000  0.4990260000000  0.4343440000000 1.0
C      1  0.4831170000000  0.5834630000000  0.4790530000000 1.0
C      1  0.4558280000000  0.4360650000000  0.5698260000000 1.0
C      1  0.4271700000000  0.5355350000000  0.5056250000000 1.0
C      1  0.5015370000000  0.5594830000000  0.4945990000000 1.0
C      1  0.5248040000000  0.4590720000000  0.6040750000000 1.0
C      1  0.4869350000000  0.5033270000000  0.4808680000000 1.0
C      1  0.5319460000000  0.4958910000000  0.4553340000000 1.0
C      1  0.4963620000000  0.4793490000000  0.5481440000000 1.0
C      1  0.4160620000000  0.4541230000000  0.5349890000000 1.0
C      1  0.4909230000000  0.4099960000000  0.5216980000000 1.0
C      1  0.5187910000000  0.4706380000000  0.4739160000000 1.0
C      1  0.5729310000000  0.4281920000000  0.4619340000000 1.0
C      1  0.4939310000000  0.4866530000000  0.4166910000000 1.0
C      1  0.5427140000000  0.4952770000000  0.3990090000000 1.0
C      1  0.5143930000000  0.5603720000000  0.4248210000000 1.0
C      1  0.4567350000000  0.5387430000000  0.4884800000000 1.0
C      1  0.5047260000000  0.5598360000000  0.5900050000000 1.0
C      1  0.4114600000000  0.4595770000000  0.4580030000000 1.0
C      1  0.5405270000000  0.5981530000000  0.5212930000000 1.0
C      1  0.5374160000000  0.4129950000000  0.4711240000000 1.0
C      1  0.5264320000000  0.4886530000000  0.5610020000000 1.0
C      1  0.5926430000000  0.4628810000000  0.4908690000000 1.0
C      1  0.5070260000000  0.6037940000000  0.5187340000000 1.0
C      1  0.5616110000000  0.5185770000000  0.5203340000000 1.0
C      1  0.5132880000000  0.4364720000000  0.4130010000000 1.0
C      1  0.5034740000000  0.4380060000000  0.5880070000000 1.0
C      1  0.4835200000000  0.4373390000000  0.4935250000000 1.0
C      1  0.5370540000000  0.5840160000000  0.4705530000000 1.0
C      1  0.5311840000000  0.4552870000000  0.5649870000000 1.0
C      1  0.5486990000000  0.5674390000000  0.5621430000000 1.0
C      1  0.5324670000000  0.4454620000000  0.4689440000000 1.0
C      1  0.5095890000000  0.5108100000000  0.5988740000000 1.0
C      1  0.5880850000000  0.4635870000000  0.5237130000000 1.0
C      1  0.4287860000000  0.5054740000000  0.4270260000000 1.0
C      1  0.5516220000000  0.4211620000000  0.5210970000000 1.0
C      1  0.5381320000000  0.5438980000000  0.4666660000000 1.0
C      1  0.5699640000000  0.4429980000000  0.5396940000000 1.0
C      1  0.5240580000000  0.4771920000000  0.4293150000000 1.0
C      1  0.4852070000000  0.4648690000000  0.5768860000000 1.0
C      1  0.4512640000000  0.4665730000000  0.5753780000000 1.0
C      1  0.5184390000000  0.5725610000000  0.5176410000000 1.0
C      1  0.4639510000000  0.4392350000000  0.5176930000000 1.0
C      1  0.5150480000000  0.4909530000000  0.3903730000000 1.0
C      1  0.4794010000000  0.5700950000000  0.5697360000000 1.0
C      1  0.5508300000000  0.5408100000000  0.4359810000000 1.0
C      1  0.5737810000000  0.5179770000000  0.4772500000000 1.0
C      1  0.5007720000000  0.4235350000000  0.4586720000000 1.0
C      1  0.4894940000000  0.5404360000000  0.5587860000000 1.0
C      1  0.5568150000000  0.5625890000000  0.4880680000000 1.0
C      1  0.4290600000000  0.5671300000000  0.4930590000000 1.0
C      1  0.5615690000000  0.4796480000000  0.4514790000000 1.0
C      1  0.4887220000000  0.5855710000000  0.5408820000000 1.0
C      1  0.4694950000000  0.4880440000000  0.5000980000000 1.0
C      1  0.4463280000000  0.5667540000000  0.4418200000000 1.0
C      1  0.5890700000000  0.4951640000000  0.4873140000000 1.0
C      1  0.4830470000000  0.5176070000000  0.5834990000000 1.0
C      1  0.5222930000000  0.4105740000000  0.5348820000000 1.0
C      1  0.4954870000000  0.5123200000000  0.5420860000000 1.0
C      1  0.4286300000000  0.5336460000000  0.4287770000000 1.0
C      1  0.4892290000000  0.4518640000000  0.4437480000000 1.0
C      1  0.4113420000000  0.4873070000000  0.5285010000000 1.0
C      1  0.5547840000000  0.5728180000000  0.5355960000000 1.0
C      1  0.4924620000000  0.4072910000000  0.4878020000000 1.0
C      1  0.4690390000000  0.4483580000000  0.4696410000000 1.0
C      1  0.4643360000000  0.4716220000000  0.3931100000000 1.0
C      1  0.5649440000000  0.4735410000000  0.5537880000000 1.0
C      1  0.5487030000000  0.5220720000000  0.4076590000000 1.0
C      1  0.5372800000000  0.5198260000000  0.5528420000000 1.0
C      1  0.5450920000000  0.5413830000000  0.6035470000000 1.0
C      1  0.5543730000000  0.4386790000000  0.5687280000000 1.0
C      1  0.4564670000000  0.4813600000000  0.5487760000000 1.0
C      1  0.4927670000000  0.4825630000000  0.5999090000000 1.0
C      1  0.4585680000000  0.4974670000000  0.4018800000000 1.0
C      1  0.5633720000000  0.4571620000000  0.4769520000000 1.0
C      1  0.4295080000000  0.5169410000000  0.4650630000000 1.0
C      1  0.4241930000000  0.5874440000000  0.5109080000000 1.0
C      1  0.5265730000000  0.4334100000000  0.4387290000000 1.0
C      1  0.5032060000000  0.5840810000000  0.4447210000000 1.0
C      1  0.4523790000000  0.4317670000000  0.4473730000000 1.0
C      1  0.5010690000000  0.5198130000000  0.4142170000000 1.0
C      1  0.4950510000000  0.4809370000000  0.4565650000000 1.0
C      1  0.4875810000000  0.5393350000000  0.4499110000000 1.0
C      1  0.4633250000000  0.5186780000000  0.4618080000000 1.0
C      1  0.5113680000000  0.4788250000000  0.5006870000000 1.0
C      1  0.4349570000000  0.4453550000000  0.5009420000000 1.0
C      1  0.4527910000000  0.4724180000000  0.4768750000000 1.0
C      1  0.4442530000000  0.4832230000000  0.4505040000000 1.0
C      1  0.4713710000000  0.5880740000000  0.4473580000000 1.0
C      1  0.4673910000000  0.5076080000000  0.5558400000000 1.0
C      1  0.4732000000000  0.4693010000000  0.5253520000000 1.0
C      1  0.5574640000000  0.4477630000000  0.4385260000000 1.0
C      1  0.5357420000000  0.5016860000000  0.5243520000000 1.0
C      1  0.5398980000000  0.5154490000000  0.4789590000000 1.0
C      1  0.4482740000000  0.5001490000000  0.5216390000000 1.0
C      1  0.5841520000000  0.5427750000000  0.4920970000000 1.0
C      1  0.4230930000000  0.5486130000000  0.4588030000000 1.0
C      1  0.4078150000000  0.4515260000000  0.4838370000000 1.0
C      1  0.5180460000000  0.4135340000000  0.5693730000000 1.0
C      1  0.5085540000000  0.4385740000000  0.5484230000000 1.0
C      1  0.4313710000000  0.4773780000000  0.5028740000000 1.0
C      1  0.5138220000000  0.5963180000000  0.4860150000000 1.0
C      1  0.5239240000000  0.5379290000000  0.4065730000000 1.0
C      1  0.5230040000000  0.4030430000000  0.4941280000000 1.0
C      1  0.4348830000000  0.4961770000000  0.5787540000000 1.0
C      1  0.5345740000000  0.4884640000000  0.5928850000000 1.0
C      1  0.5467580000000  0.4502330000000  0.5058080000000 1.0
C      1  0.5162910000000  0.4349560000000  0.5037680000000 1.0
C      1  0.5176990000000  0.5395700000000  0.6048080000000 1.0
C      1  0.4861050000000  0.4540560000000  0.4110140000000 1.0
C      1  0.5744310000000  0.5171570000000  0.5679570000000 1.0
C      1  0.5189460000000  0.5666070000000  0.5655110000000 1.0
C      1  0.4076310000000  0.5089630000000  0.5025140000000 1.0
C      1  0.4812400000000  0.5534330000000  0.4224640000000 1.0
END
