TITL C-2847956-8218-299 -0.000453316007937027 125000 -378.56471249051 0 0 66 (C1) n - 1
REM
REM in /home/bkarasulu/work/CARBON/AIRSS/Generating-Clusters/AIREBO/with-SteepDescent/Only-C1/SD-CG-opt/Try1-1.4A-POS3A/HFTN-CG
REM
REM
REM
REM
REM
REM ./C.cell (11c1c37f851c82e70ff6c80c92926a4b)
REM
REM compiler GCC version 9.2.1 20190827 (Red Hat 9.2.1-1)
REM options -cpp -mtune=generic -march=x86-64 -g -O0 -fpre-include=/usr/include/finclude/math-vector-fortran.h
REM seed -1542128914 -1829882309 -2069117626 -893987720 -1109172101 -1671723824 -714413141 1212606120 682887567 -1778564467 254303125 758943080 -1038493986 841473846 638596045 659426342 312093077 93600790 -1161068225 -452143448 -2137956370 1894320866 -610907564 1250439374 2047127957 890841949 -307104285 -517072214 -584443772 -1349744461 875493464 508865038 776726446
REM
CELL 1.54180   50.00000   50.00000   50.00000   90.00000   90.00000   90.00000
LATT -1
SFAC C  
C      1  0.5138400000000  0.5693130000000  0.5299370000000 1.0
C      1  0.4240000000000  0.5154390000000  0.5622820000000 1.0
C      1  0.4369440000000  0.4979220000000  0.5172280000000 1.0
C      1  0.4882860000000  0.4869930000000  0.4900930000000 1.0
C      1  0.4455330000000  0.5139010000000  0.5793080000000 1.0
C      1  0.5427240000000  0.4435560000000  0.5131900000000 1.0
C      1  0.5552430000000  0.4998130000000  0.4651940000000 1.0
C      1  0.4986540000000  0.5425630000000  0.4573200000000 1.0
C      1  0.5011670000000  0.5031460000000  0.5758770000000 1.0
C      1  0.4419860000000  0.5515720000000  0.4746520000000 1.0
C      1  0.5797800000000  0.4789180000000  0.5431370000000 1.0
C      1  0.4707900000000  0.5019240000000  0.5667910000000 1.0
C      1  0.4835180000000  0.4444460000000  0.4702730000000 1.0
C      1  0.5041020000000  0.5368290000000  0.4894880000000 1.0
C      1  0.4652040000000  0.4715210000000  0.5606160000000 1.0
C      1  0.4704610000000  0.4434740000000  0.4947170000000 1.0
C      1  0.5087480000000  0.5007780000000  0.5338460000000 1.0
C      1  0.4840270000000  0.5184100000000  0.5404080000000 1.0
C      1  0.4224320000000  0.4974890000000  0.4915660000000 1.0
C      1  0.4436440000000  0.4534170000000  0.4928720000000 1.0
C      1  0.5321400000000  0.5446820000000  0.5554730000000 1.0
C      1  0.4834150000000  0.5211530000000  0.5064770000000 1.0
C      1  0.4707670000000  0.5464750000000  0.5346640000000 1.0
C      1  0.5660110000000  0.5295010000000  0.5157370000000 1.0
C      1  0.4943630000000  0.5667020000000  0.4789580000000 1.0
C      1  0.4608800000000  0.5066050000000  0.4855310000000 1.0
C      1  0.4431240000000  0.5440440000000  0.5299120000000 1.0
C      1  0.5284250000000  0.4292850000000  0.5299860000000 1.0
C      1  0.5372720000000  0.5471020000000  0.4666390000000 1.0
C      1  0.4831190000000  0.5079230000000  0.4279080000000 1.0
C      1  0.4920470000000  0.4571380000000  0.5579960000000 1.0
C      1  0.4653270000000  0.4794390000000  0.5140360000000 1.0
C      1  0.5132310000000  0.4519990000000  0.4669210000000 1.0
C      1  0.5784370000000  0.4981070000000  0.4527130000000 1.0
C      1  0.4814840000000  0.4511370000000  0.5237700000000 1.0
C      1  0.4857350000000  0.5676860000000  0.5243790000000 1.0
C      1  0.5278220000000  0.4989320000000  0.4521280000000 1.0
C      1  0.5022090000000  0.4813890000000  0.4631790000000 1.0
C      1  0.4744980000000  0.5294200000000  0.4453160000000 1.0
C      1  0.6238470000000  0.4908510000000  0.4268130000000 1.0
C      1  0.4428690000000  0.4784300000000  0.4790860000000 1.0
C      1  0.5288760000000  0.4852170000000  0.4226430000000 1.0
C      1  0.4496390000000  0.5733740000000  0.4901430000000 1.0
C      1  0.5392960000000  0.5487470000000  0.5242740000000 1.0
C      1  0.5113710000000  0.4875590000000  0.5109170000000 1.0
C      1  0.5410450000000  0.4599740000000  0.4243300000000 1.0
C      1  0.4309110000000  0.4530540000000  0.5186310000000 1.0
C      1  0.4303920000000  0.5192070000000  0.5350280000000 1.0
C      1  0.4477100000000  0.4661440000000  0.5389510000000 1.0
C      1  0.4809850000000  0.4823850000000  0.4397560000000 1.0
C      1  0.4544730000000  0.5281610000000  0.4650020000000 1.0
C      1  0.5530420000000  0.5062250000000  0.4944180000000 1.0
C      1  0.4768080000000  0.5762440000000  0.4984060000000 1.0
C      1  0.6017990000000  0.4938060000000  0.4406700000000 1.0
C      1  0.5039630000000  0.4339780000000  0.5393760000000 1.0
C      1  0.5344220000000  0.5347900000000  0.4948710000000 1.0
C      1  0.5398400000000  0.4475950000000  0.4484890000000 1.0
C      1  0.5112370000000  0.5113950000000  0.4181690000000 1.0
C      1  0.5417060000000  0.4780510000000  0.5065710000000 1.0
C      1  0.5547650000000  0.4822050000000  0.5370190000000 1.0
C      1  0.5212220000000  0.5224910000000  0.5650280000000 1.0
C      1  0.5425140000000  0.4549220000000  0.4816410000000 1.0
C      1  0.5119920000000  0.4742490000000  0.5720240000000 1.0
C      1  0.5230200000000  0.5294290000000  0.4434120000000 1.0
C      1  0.5326430000000  0.4931480000000  0.5537430000000 1.0
C      1  0.4682230000000  0.4582250000000  0.4500660000000 1.0
END
