TITL C-2848504-8560-589 0.000994286755354607 125000 -460.292172697505 0 0 83 (C1) n - 1
REM
REM in /home/bkarasulu/work/CARBON/AIRSS/Generating-Clusters/AIREBO/with-SteepDescent/Only-C1/SD-CG-opt/Try1-1.4A-POS3A/HFTN-CG
REM
REM
REM
REM
REM
REM ./C.cell (11c1c37f851c82e70ff6c80c92926a4b)
REM
REM compiler GCC version 9.2.1 20190827 (Red Hat 9.2.1-1)
REM options -cpp -mtune=generic -march=x86-64 -g -O0 -fpre-include=/usr/include/finclude/math-vector-fortran.h
REM seed -1329229465 -1203592822 -2020521739 1434515007 -1349734645 987213919 1914963893 1058471775 -821667039 2013380721 -1595294232 -1765558891 -1629753632 411165536 2051155160 536705929 -1081318942 -1440338498 966362305 -1937946817 -1393622635 -1023663085 1672041056 901251012 857533936 1526820122 1061096601 -688198488 636824983 1059196566 971355624 -679183901 -1964025818
REM
CELL 1.54180   50.00000   50.00000   50.00000   90.00000   90.00000   90.00000
LATT -1
SFAC C  
C      1  0.4581520000000  0.5499610000000  0.4801320000000 1.0
C      1  0.5939430000000  0.5781810000000  0.4736750000000 1.0
C      1  0.5020230000000  0.5792560000000  0.4703350000000 1.0
C      1  0.5402580000000  0.5464490000000  0.5548100000000 1.0
C      1  0.4344530000000  0.5410280000000  0.4623390000000 1.0
C      1  0.4828760000000  0.5403330000000  0.4396240000000 1.0
C      1  0.4430980000000  0.5628860000000  0.5286280000000 1.0
C      1  0.4697880000000  0.4153020000000  0.5057870000000 1.0
C      1  0.5752470000000  0.4899930000000  0.5031520000000 1.0
C      1  0.5456040000000  0.5469620000000  0.5212320000000 1.0
C      1  0.4757790000000  0.5787880000000  0.4813610000000 1.0
C      1  0.4395670000000  0.5151730000000  0.4516310000000 1.0
C      1  0.4933020000000  0.4206790000000  0.4914100000000 1.0
C      1  0.4819030000000  0.5279190000000  0.4712660000000 1.0
C      1  0.4823700000000  0.4600950000000  0.5066340000000 1.0
C      1  0.4556230000000  0.5378460000000  0.5105070000000 1.0
C      1  0.5156590000000  0.4947480000000  0.4843950000000 1.0
C      1  0.5401760000000  0.5170210000000  0.5648670000000 1.0
C      1  0.4625310000000  0.4305140000000  0.5269600000000 1.0
C      1  0.4817380000000  0.4920620000000  0.4340880000000 1.0
C      1  0.5472190000000  0.5150510000000  0.4535780000000 1.0
C      1  0.4317190000000  0.4924620000000  0.4670040000000 1.0
C      1  0.4676190000000  0.4769420000000  0.4891220000000 1.0
C      1  0.4404250000000  0.4691830000000  0.5412710000000 1.0
C      1  0.5437890000000  0.4570240000000  0.5609140000000 1.0
C      1  0.5288910000000  0.4624160000000  0.4612580000000 1.0
C      1  0.5594400000000  0.4820830000000  0.5246170000000 1.0
C      1  0.5138280000000  0.4365320000000  0.4447530000000 1.0
C      1  0.5413930000000  0.5001610000000  0.5368000000000 1.0
C      1  0.4217680000000  0.4338850000000  0.4201510000000 1.0
C      1  0.5635370000000  0.5401120000000  0.4937420000000 1.0
C      1  0.4947060000000  0.5469150000000  0.5414390000000 1.0
C      1  0.5195970000000  0.4555730000000  0.4932610000000 1.0
C      1  0.5236260000000  0.5875830000000  0.4866840000000 1.0
C      1  0.4642830000000  0.5140750000000  0.4381360000000 1.0
C      1  0.4412440000000  0.4910760000000  0.4973160000000 1.0
C      1  0.5179600000000  0.4144390000000  0.5013610000000 1.0
C      1  0.5309610000000  0.4849430000000  0.5719710000000 1.0
C      1  0.5145950000000  0.5331610000000  0.5185730000000 1.0
C      1  0.4952910000000  0.4447300000000  0.4720510000000 1.0
C      1  0.4567040000000  0.4979220000000  0.5444820000000 1.0
C      1  0.5765990000000  0.4771020000000  0.4742860000000 1.0
C      1  0.4852170000000  0.5372110000000  0.5658970000000 1.0
C      1  0.5325570000000  0.5708190000000  0.5641830000000 1.0
C      1  0.4906070000000  0.5132920000000  0.5790430000000 1.0
C      1  0.5005180000000  0.4279180000000  0.5600970000000 1.0
C      1  0.5100820000000  0.5280070000000  0.4281570000000 1.0
C      1  0.4925940000000  0.5764890000000  0.5384710000000 1.0
C      1  0.4818540000000  0.4558270000000  0.5631690000000 1.0
C      1  0.5085230000000  0.5037080000000  0.5447020000000 1.0
C      1  0.4089070000000  0.5027860000000  0.5341510000000 1.0
C      1  0.4988020000000  0.5036410000000  0.5125530000000 1.0
C      1  0.4650300000000  0.5085910000000  0.5142600000000 1.0
C      1  0.5755380000000  0.5532500000000  0.5333430000000 1.0
C      1  0.4369860000000  0.4488180000000  0.4365650000000 1.0
C      1  0.5798170000000  0.5588880000000  0.4844070000000 1.0
C      1  0.4821600000000  0.4896310000000  0.5609570000000 1.0
C      1  0.5170130000000  0.5095950000000  0.5875500000000 1.0
C      1  0.4875190000000  0.4984350000000  0.4731030000000 1.0
C      1  0.4931530000000  0.5419710000000  0.4976260000000 1.0
C      1  0.4854250000000  0.4310570000000  0.4301050000000 1.0
C      1  0.5540910000000  0.4555230000000  0.5334650000000 1.0
C      1  0.4260550000000  0.4686030000000  0.4534860000000 1.0
C      1  0.5350010000000  0.4380450000000  0.5177690000000 1.0
C      1  0.4644580000000  0.4468020000000  0.4381150000000 1.0
C      1  0.5070400000000  0.4716170000000  0.5205210000000 1.0
C      1  0.5343880000000  0.4891430000000  0.4409610000000 1.0
C      1  0.5496460000000  0.4648630000000  0.4268200000000 1.0
C      1  0.5149530000000  0.4234700000000  0.5400410000000 1.0
C      1  0.5129460000000  0.5880260000000  0.5540280000000 1.0
C      1  0.5078010000000  0.5606760000000  0.4503280000000 1.0
C      1  0.4230420000000  0.4814970000000  0.5202680000000 1.0
C      1  0.5081650000000  0.4996340000000  0.4278460000000 1.0
C      1  0.4558330000000  0.4474520000000  0.5480340000000 1.0
C      1  0.4763500000000  0.4688050000000  0.4572830000000 1.0
C      1  0.4745300000000  0.5660630000000  0.5127590000000 1.0
C      1  0.4284840000000  0.5129580000000  0.5521440000000 1.0
C      1  0.5624860000000  0.5133130000000  0.4819510000000 1.0
C      1  0.5437160000000  0.4850590000000  0.4796040000000 1.0
C      1  0.5121170000000  0.4650030000000  0.5514620000000 1.0
C      1  0.5414930000000  0.4411730000000  0.4298370000000 1.0
C      1  0.5368620000000  0.5770110000000  0.5079410000000 1.0
C      1  0.5289560000000  0.5367640000000  0.4513920000000 1.0
END
