TITL C-2848495-5024-125 -0.00113317637055363 125000 -390.317628567686 0 0 70 (C1) n - 1
REM
REM in /home/bkarasulu/work/CARBON/AIRSS/Generating-Clusters/AIREBO/with-SteepDescent/Only-C1/SD-CG-opt/Try1-1.4A-POS3A/HFTN-CG
REM
REM
REM
REM
REM
REM ./C.cell (11c1c37f851c82e70ff6c80c92926a4b)
REM
REM compiler GCC version 9.2.1 20190827 (Red Hat 9.2.1-1)
REM options -cpp -mtune=generic -march=x86-64 -g -O0 -fpre-include=/usr/include/finclude/math-vector-fortran.h
REM seed 338662474 1430390203 486778316 -1300330020 699949082 -40971131 -325179510 350035579 -272953804 1897806625 -134766788 -1897390328 -1507728566 -1455681639 96862223 -1621124052 1463068433 1816999815 1533673116 -1309619857 561734812 28231951 1122575169 -787459928 698384857 926208301 623438371 -1634446792 -1929049155 1881457127 1325087302 2021706426 863153273
REM
CELL 1.54180   50.00000   50.00000   50.00000   90.00000   90.00000   90.00000
LATT -1
SFAC C  
C      1  0.4433090000000  0.4352310000000  0.4954700000000 1.0
C      1  0.4870130000000  0.5285420000000  0.4948730000000 1.0
C      1  0.4550180000000  0.5218560000000  0.4611090000000 1.0
C      1  0.5692990000000  0.5365770000000  0.5146560000000 1.0
C      1  0.4900660000000  0.4913680000000  0.5082100000000 1.0
C      1  0.5077440000000  0.4587700000000  0.5231600000000 1.0
C      1  0.5384180000000  0.5224770000000  0.5124580000000 1.0
C      1  0.5136310000000  0.5682940000000  0.5135940000000 1.0
C      1  0.4747550000000  0.5550970000000  0.5655160000000 1.0
C      1  0.4247090000000  0.4759750000000  0.5324220000000 1.0
C      1  0.5538840000000  0.4471570000000  0.4354540000000 1.0
C      1  0.5004460000000  0.4280060000000  0.5305130000000 1.0
C      1  0.4815640000000  0.5124700000000  0.4471530000000 1.0
C      1  0.4161650000000  0.5287850000000  0.4926080000000 1.0
C      1  0.4876490000000  0.5020240000000  0.4197810000000 1.0
C      1  0.5449020000000  0.4442710000000  0.5245440000000 1.0
C      1  0.4641020000000  0.5460860000000  0.4807620000000 1.0
C      1  0.4451590000000  0.5313090000000  0.5039130000000 1.0
C      1  0.4862770000000  0.5180250000000  0.5545740000000 1.0
C      1  0.4580760000000  0.4685870000000  0.5117400000000 1.0
C      1  0.5139430000000  0.5122910000000  0.5703700000000 1.0
C      1  0.5083100000000  0.4227670000000  0.4627250000000 1.0
C      1  0.5386060000000  0.5272440000000  0.4727440000000 1.0
C      1  0.4537810000000  0.5410290000000  0.5544670000000 1.0
C      1  0.5347110000000  0.4730080000000  0.5381950000000 1.0
C      1  0.4772100000000  0.4604050000000  0.5336030000000 1.0
C      1  0.4907850000000  0.4393510000000  0.4767400000000 1.0
C      1  0.4913470000000  0.5584420000000  0.4690020000000 1.0
C      1  0.4894910000000  0.5176020000000  0.5259480000000 1.0
C      1  0.4998870000000  0.5391470000000  0.4495170000000 1.0
C      1  0.5346450000000  0.4943200000000  0.4962490000000 1.0
C      1  0.4921940000000  0.4895640000000  0.4684830000000 1.0
C      1  0.4283430000000  0.5712090000000  0.5280280000000 1.0
C      1  0.4264150000000  0.4623890000000  0.5023140000000 1.0
C      1  0.5841510000000  0.4696070000000  0.4998270000000 1.0
C      1  0.4964250000000  0.4836640000000  0.3946380000000 1.0
C      1  0.5188180000000  0.4983070000000  0.4131740000000 1.0
C      1  0.5591820000000  0.4819270000000  0.5162640000000 1.0
C      1  0.5128290000000  0.5367460000000  0.5129920000000 1.0
C      1  0.4219500000000  0.4828870000000  0.4783950000000 1.0
C      1  0.5900530000000  0.5538480000000  0.5083000000000 1.0
C      1  0.4665950000000  0.4710970000000  0.4789190000000 1.0
C      1  0.4581250000000  0.5011860000000  0.5037060000000 1.0
C      1  0.5371050000000  0.4648110000000  0.4804600000000 1.0
C      1  0.5057080000000  0.5447670000000  0.5625410000000 1.0
C      1  0.4685090000000  0.4255980000000  0.4948080000000 1.0
C      1  0.4807580000000  0.4139360000000  0.5174870000000 1.0
C      1  0.5567670000000  0.4657320000000  0.4560400000000 1.0
C      1  0.4579990000000  0.4802470000000  0.5752110000000 1.0
C      1  0.5618310000000  0.5108870000000  0.4720630000000 1.0
C      1  0.5338500000000  0.4982580000000  0.5558870000000 1.0
C      1  0.4683350000000  0.4609910000000  0.5588720000000 1.0
C      1  0.5574800000000  0.4950960000000  0.4480900000000 1.0
C      1  0.4310050000000  0.4932210000000  0.5489480000000 1.0
C      1  0.5271270000000  0.5323040000000  0.4462710000000 1.0
C      1  0.5043290000000  0.5770310000000  0.4878060000000 1.0
C      1  0.5072660000000  0.6029630000000  0.4806010000000 1.0
C      1  0.5391730000000  0.4398940000000  0.5002640000000 1.0
C      1  0.5370570000000  0.5081170000000  0.4318680000000 1.0
C      1  0.5722290000000  0.5075950000000  0.4981180000000 1.0
C      1  0.5115200000000  0.5120940000000  0.4815960000000 1.0
C      1  0.4414480000000  0.5021920000000  0.4767400000000 1.0
C      1  0.4422280000000  0.5474280000000  0.5301080000000 1.0
C      1  0.5806660000000  0.4601410000000  0.4767760000000 1.0
C      1  0.5045650000000  0.4664530000000  0.4901790000000 1.0
C      1  0.4614800000000  0.4472600000000  0.4619420000000 1.0
C      1  0.5503510000000  0.5474880000000  0.5410880000000 1.0
C      1  0.4562720000000  0.5103940000000  0.5632840000000 1.0
C      1  0.5250750000000  0.5596510000000  0.5430370000000 1.0
C      1  0.5498850000000  0.5165090000000  0.5428030000000 1.0
END
