TITL C-2847951-7423-332 0.0015779616578166 125000 -725.682631527444 0 0 137 (C1) n - 1
REM
REM in /home/bkarasulu/work/CARBON/AIRSS/Generating-Clusters/AIREBO/with-SteepDescent/Only-C1/SD-CG-opt/Try1-1.4A-POS3A/HFTN-CG
REM
REM
REM
REM
REM
REM ./C.cell (11c1c37f851c82e70ff6c80c92926a4b)
REM
REM compiler GCC version 9.2.1 20190827 (Red Hat 9.2.1-1)
REM options -cpp -mtune=generic -march=x86-64 -g -O0 -fpre-include=/usr/include/finclude/math-vector-fortran.h
REM seed -1197101618 -1142822782 -658261362 -130837439 1545150990 1762232660 1227494628 -1277479616 445865630 743679768 -1103080319 989447414 -1250082009 -1590353552 -383391328 -1020684787 -1835946826 1616042410 -463685297 -32924349 402354613 738137105 -908772124 -121155667 576424441 2095383556 1207550757 665566432 -579692390 1211911534 1439689533 1713832108 680441899
REM
CELL 1.54180   50.00000   50.00000   50.00000   90.00000   90.00000   90.00000
LATT -1
SFAC C  
C      1  0.5969850000000  0.5254740000000  0.4643430000000 1.0
C      1  0.5503860000000  0.5052170000000  0.4402040000000 1.0
C      1  0.4561250000000  0.4872010000000  0.5818150000000 1.0
C      1  0.5686610000000  0.4418500000000  0.5643930000000 1.0
C      1  0.5806810000000  0.5484860000000  0.5271680000000 1.0
C      1  0.5260510000000  0.4664010000000  0.5036270000000 1.0
C      1  0.4890120000000  0.5475160000000  0.4773610000000 1.0
C      1  0.4733180000000  0.4528020000000  0.5632770000000 1.0
C      1  0.4920710000000  0.5032830000000  0.4934630000000 1.0
C      1  0.5763320000000  0.4860110000000  0.4505460000000 1.0
C      1  0.5586480000000  0.4470130000000  0.4775740000000 1.0
C      1  0.4788800000000  0.4267550000000  0.4309200000000 1.0
C      1  0.4688790000000  0.5281050000000  0.4912420000000 1.0
C      1  0.4751460000000  0.4915230000000  0.5548510000000 1.0
C      1  0.5981610000000  0.4751570000000  0.5394800000000 1.0
C      1  0.4171670000000  0.5306680000000  0.5544610000000 1.0
C      1  0.5613610000000  0.4674660000000  0.4310160000000 1.0
C      1  0.4424800000000  0.5000610000000  0.5035520000000 1.0
C      1  0.5081050000000  0.5121830000000  0.4153940000000 1.0
C      1  0.4145430000000  0.5327140000000  0.5028980000000 1.0
C      1  0.5035560000000  0.4660670000000  0.3993860000000 1.0
C      1  0.4801630000000  0.5528210000000  0.5869240000000 1.0
C      1  0.4062900000000  0.4837180000000  0.5061800000000 1.0
C      1  0.5536000000000  0.4818980000000  0.5849910000000 1.0
C      1  0.4092570000000  0.4816850000000  0.4723380000000 1.0
C      1  0.4167210000000  0.5054290000000  0.4598300000000 1.0
C      1  0.5300060000000  0.4302790000000  0.4363870000000 1.0
C      1  0.5072710000000  0.4976780000000  0.5641390000000 1.0
C      1  0.5299470000000  0.4828710000000  0.4738710000000 1.0
C      1  0.5468500000000  0.4835250000000  0.4122800000000 1.0
C      1  0.5476580000000  0.5536590000000  0.4812590000000 1.0
C      1  0.4363540000000  0.4454810000000  0.4863000000000 1.0
C      1  0.4223020000000  0.4699490000000  0.5493140000000 1.0
C      1  0.4184740000000  0.5554600000000  0.4341210000000 1.0
C      1  0.5316060000000  0.4275270000000  0.4843940000000 1.0
C      1  0.5106810000000  0.5786820000000  0.4439240000000 1.0
C      1  0.4540430000000  0.5269530000000  0.5394280000000 1.0
C      1  0.5706710000000  0.5269810000000  0.4259190000000 1.0
C      1  0.4906640000000  0.4457290000000  0.4686840000000 1.0
C      1  0.4212060000000  0.4445750000000  0.5316620000000 1.0
C      1  0.5690010000000  0.5506340000000  0.5752100000000 1.0
C      1  0.4641240000000  0.4843780000000  0.4891980000000 1.0
C      1  0.4788610000000  0.4794050000000  0.3931370000000 1.0
C      1  0.5395660000000  0.5016560000000  0.5907210000000 1.0
C      1  0.4994880000000  0.4768850000000  0.4733260000000 1.0
C      1  0.5095190000000  0.5427600000000  0.4189710000000 1.0
C      1  0.5439590000000  0.5881430000000  0.5248960000000 1.0
C      1  0.4536880000000  0.4845860000000  0.4606850000000 1.0
C      1  0.4689310000000  0.4555150000000  0.4296600000000 1.0
C      1  0.4295260000000  0.5552590000000  0.5529940000000 1.0
C      1  0.4750450000000  0.5828630000000  0.5717720000000 1.0
C      1  0.5887190000000  0.4397470000000  0.5196410000000 1.0
C      1  0.5465850000000  0.4343400000000  0.5795980000000 1.0
C      1  0.4998450000000  0.4424350000000  0.5516740000000 1.0
C      1  0.4609070000000  0.4678760000000  0.5349400000000 1.0
C      1  0.5036580000000  0.4414790000000  0.4978330000000 1.0
C      1  0.5369340000000  0.5854140000000  0.4613620000000 1.0
C      1  0.4565650000000  0.5438320000000  0.4309130000000 1.0
C      1  0.4455100000000  0.4621870000000  0.4436980000000 1.0
C      1  0.5002350000000  0.5726280000000  0.4973760000000 1.0
C      1  0.4769120000000  0.5948070000000  0.5073330000000 1.0
C      1  0.4788780000000  0.5205460000000  0.4412710000000 1.0
C      1  0.5154070000000  0.5773800000000  0.5385430000000 1.0
C      1  0.5525040000000  0.5332430000000  0.5510750000000 1.0
C      1  0.4625470000000  0.5281940000000  0.4013120000000 1.0
C      1  0.4238280000000  0.4583370000000  0.4643340000000 1.0
C      1  0.4622060000000  0.5104280000000  0.6047550000000 1.0
C      1  0.5744900000000  0.5074370000000  0.5537080000000 1.0
C      1  0.4842360000000  0.5635160000000  0.4288440000000 1.0
C      1  0.5272410000000  0.4972310000000  0.5366160000000 1.0
C      1  0.5221450000000  0.4869240000000  0.4022910000000 1.0
C      1  0.4788080000000  0.4630150000000  0.5076540000000 1.0
C      1  0.4622580000000  0.4121810000000  0.5277430000000 1.0
C      1  0.4408270000000  0.5755480000000  0.4793870000000 1.0
C      1  0.5455120000000  0.4723680000000  0.5308910000000 1.0
C      1  0.4320760000000  0.5077680000000  0.5694570000000 1.0
C      1  0.4822970000000  0.5865280000000  0.5387460000000 1.0
C      1  0.4653370000000  0.5885390000000  0.4795320000000 1.0
C      1  0.4803710000000  0.5075040000000  0.3995710000000 1.0
C      1  0.5961350000000  0.4980310000000  0.4844730000000 1.0
C      1  0.5693010000000  0.5085190000000  0.5025530000000 1.0
C      1  0.4498940000000  0.4228800000000  0.4794630000000 1.0
C      1  0.4677830000000  0.5345880000000  0.6059600000000 1.0
C      1  0.5080140000000  0.5359180000000  0.5101760000000 1.0
C      1  0.5282420000000  0.5234810000000  0.5707130000000 1.0
C      1  0.4460030000000  0.5406760000000  0.5130590000000 1.0
C      1  0.4541070000000  0.5072990000000  0.4465430000000 1.0
C      1  0.5065200000000  0.4447260000000  0.4225490000000 1.0
C      1  0.5042890000000  0.4652630000000  0.5297340000000 1.0
C      1  0.4993160000000  0.4024970000000  0.4795850000000 1.0
C      1  0.5008380000000  0.5370300000000  0.5661670000000 1.0
C      1  0.5032600000000  0.5275620000000  0.4569410000000 1.0
C      1  0.4864090000000  0.5272300000000  0.5417480000000 1.0
C      1  0.4366000000000  0.5228480000000  0.4789720000000 1.0
C      1  0.5416530000000  0.5251180000000  0.4663680000000 1.0
C      1  0.4044520000000  0.5131760000000  0.5281560000000 1.0
C      1  0.4760760000000  0.4187860000000  0.4612570000000 1.0
C      1  0.5586980000000  0.4869500000000  0.4791630000000 1.0
C      1  0.4777430000000  0.4644150000000  0.5948380000000 1.0
C      1  0.4936870000000  0.4974680000000  0.5269650000000 1.0
C      1  0.5599030000000  0.5617670000000  0.4528900000000 1.0
C      1  0.5296170000000  0.5516680000000  0.5239360000000 1.0
C      1  0.4342400000000  0.4994520000000  0.5365450000000 1.0
C      1  0.4357980000000  0.4677900000000  0.5119550000000 1.0
C      1  0.4393050000000  0.5516490000000  0.4607220000000 1.0
C      1  0.5585060000000  0.5551860000000  0.5086950000000 1.0
C      1  0.5590180000000  0.5663080000000  0.5463890000000 1.0
C      1  0.5614260000000  0.4141000000000  0.4909400000000 1.0
C      1  0.5931080000000  0.4782170000000  0.5119370000000 1.0
C      1  0.5826770000000  0.5207060000000  0.5281330000000 1.0
C      1  0.5685180000000  0.4740460000000  0.5561040000000 1.0
C      1  0.5791800000000  0.4249130000000  0.5452010000000 1.0
C      1  0.5860200000000  0.4670180000000  0.4747690000000 1.0
C      1  0.4836650000000  0.5744330000000  0.4611120000000 1.0
C      1  0.4620920000000  0.5596950000000  0.5442730000000 1.0
C      1  0.4967340000000  0.4724010000000  0.4397360000000 1.0
C      1  0.4835740000000  0.5523140000000  0.5189720000000 1.0
C      1  0.4403910000000  0.4242300000000  0.5414630000000 1.0
C      1  0.4317960000000  0.5683810000000  0.5041650000000 1.0
C      1  0.3915940000000  0.5111750000000  0.4925370000000 1.0
C      1  0.4357870000000  0.4623500000000  0.5729540000000 1.0
C      1  0.5173520000000  0.4988700000000  0.4453100000000 1.0
C      1  0.5232800000000  0.5169460000000  0.4926350000000 1.0
C      1  0.5522300000000  0.4449100000000  0.4441570000000 1.0
C      1  0.5274990000000  0.5492920000000  0.4470830000000 1.0
C      1  0.5053250000000  0.5694580000000  0.5663820000000 1.0
C      1  0.5210550000000  0.4398910000000  0.5734440000000 1.0
C      1  0.5826560000000  0.5419230000000  0.4464310000000 1.0
C      1  0.5754190000000  0.4118280000000  0.5145480000000 1.0
C      1  0.5161580000000  0.4172100000000  0.4573050000000 1.0
C      1  0.4475350000000  0.4346960000000  0.5678290000000 1.0
C      1  0.4293130000000  0.5236450000000  0.4340050000000 1.0
C      1  0.5652860000000  0.4601370000000  0.5082350000000 1.0
C      1  0.5430460000000  0.5205610000000  0.5209450000000 1.0
C      1  0.5306710000000  0.5799650000000  0.4945590000000 1.0
C      1  0.4918500000000  0.4155100000000  0.5404370000000 1.0
C      1  0.4905020000000  0.4125210000000  0.5082990000000 1.0
END
