TITL C-2847959-7740-210 0.00469707281477449 125000 -231.338873855096 0 0 44 (C1) n - 1
REM
REM in /home/bkarasulu/work/CARBON/AIRSS/Generating-Clusters/AIREBO/with-SteepDescent/Only-C1/SD-CG-opt/Try1-1.4A-POS3A/HFTN-CG
REM
REM
REM
REM
REM
REM ./C.cell (11c1c37f851c82e70ff6c80c92926a4b)
REM
REM compiler GCC version 9.2.1 20190827 (Red Hat 9.2.1-1)
REM options -cpp -mtune=generic -march=x86-64 -g -O0 -fpre-include=/usr/include/finclude/math-vector-fortran.h
REM seed -1029197745 1355834843 -1152557131 -211006735 -1263168877 1021336231 963167288 -521065549 1099766222 348841011 -1214619637 932622571 1579882781 -181545973 -2143931302 -763144211 -1193211544 1562163833 1630680256 -298137379 -403389252 246868110 -1350690229 1617627805 63362179 -1645001328 735241708 -108767738 -1328916554 -815573550 -1613985571 194004066 1775895642
REM
CELL 1.54180   50.00000   50.00000   50.00000   90.00000   90.00000   90.00000
LATT -1
SFAC C  
C      1  0.4712270000000  0.4777050000000  0.5273210000000 1.0
C      1  0.4992740000000  0.4740420000000  0.4445710000000 1.0
C      1  0.5331690000000  0.4736290000000  0.4637590000000 1.0
C      1  0.5005180000000  0.4705170000000  0.5434030000000 1.0
C      1  0.5515590000000  0.5158210000000  0.5041280000000 1.0
C      1  0.4743660000000  0.5014820000000  0.4811360000000 1.0
C      1  0.4879130000000  0.4288320000000  0.4994180000000 1.0
C      1  0.5232030000000  0.5479770000000  0.4655290000000 1.0
C      1  0.5051190000000  0.5487320000000  0.5349850000000 1.0
C      1  0.5460400000000  0.4836230000000  0.5120250000000 1.0
C      1  0.4857100000000  0.5537080000000  0.4997840000000 1.0
C      1  0.5342990000000  0.4698110000000  0.5505610000000 1.0
C      1  0.4435990000000  0.5154030000000  0.4852300000000 1.0
C      1  0.5677460000000  0.5018530000000  0.5308020000000 1.0
C      1  0.5224710000000  0.4535310000000  0.5237420000000 1.0
C      1  0.5598430000000  0.4734790000000  0.4564460000000 1.0
C      1  0.5278270000000  0.4656540000000  0.4924250000000 1.0
C      1  0.4690880000000  0.4474860000000  0.4789660000000 1.0
C      1  0.4276600000000  0.5355070000000  0.4715080000000 1.0
C      1  0.4403170000000  0.4876710000000  0.4658090000000 1.0
C      1  0.5362610000000  0.5242240000000  0.4581780000000 1.0
C      1  0.5274040000000  0.5338600000000  0.5131820000000 1.0
C      1  0.5178880000000  0.5010340000000  0.4527620000000 1.0
C      1  0.5262870000000  0.5161790000000  0.5490270000000 1.0
C      1  0.5053970000000  0.5112940000000  0.5226460000000 1.0
C      1  0.4602320000000  0.5326760000000  0.5078190000000 1.0
C      1  0.4859130000000  0.5106770000000  0.4518570000000 1.0
C      1  0.4857370000000  0.5709880000000  0.5268920000000 1.0
C      1  0.5111480000000  0.5485920000000  0.4906280000000 1.0
C      1  0.4285910000000  0.4983870000000  0.5105550000000 1.0
C      1  0.4911250000000  0.4917320000000  0.5054820000000 1.0
C      1  0.4660430000000  0.5112640000000  0.5294540000000 1.0
C      1  0.4776820000000  0.4731820000000  0.4625300000000 1.0
C      1  0.4576520000000  0.5027720000000  0.4448840000000 1.0
C      1  0.5458590000000  0.4976180000000  0.5512140000000 1.0
C      1  0.5561070000000  0.4552450000000  0.5283980000000 1.0
C      1  0.4430750000000  0.4742140000000  0.5116170000000 1.0
C      1  0.5742520000000  0.4962070000000  0.4638420000000 1.0
C      1  0.4899330000000  0.4933590000000  0.5608210000000 1.0
C      1  0.4554130000000  0.5624770000000  0.5234770000000 1.0
C      1  0.4448760000000  0.4655760000000  0.4842400000000 1.0
C      1  0.4878460000000  0.5239470000000  0.5488800000000 1.0
C      1  0.5584520000000  0.5173650000000  0.4744040000000 1.0
C      1  0.4958790000000  0.4606650000000  0.4956620000000 1.0
END
