TITL C-2848500-1637-415 0.00521942593097115 125000 -587.859682888452 0 0 107 (C1) n - 1
REM
REM in /home/bkarasulu/work/CARBON/AIRSS/Generating-Clusters/AIREBO/with-SteepDescent/Only-C1/SD-CG-opt/Try1-1.4A-POS3A/HFTN-CG
REM
REM
REM
REM
REM
REM ./C.cell (11c1c37f851c82e70ff6c80c92926a4b)
REM
REM compiler GCC version 9.2.1 20190827 (Red Hat 9.2.1-1)
REM options -cpp -mtune=generic -march=x86-64 -g -O0 -fpre-include=/usr/include/finclude/math-vector-fortran.h
REM seed 656194602 -1937414843 -746553681 78816007 -1980279196 -193722385 -1789322163 23876092 -184459141 -1756561611 1836615239 -1193548248 -778233322 -1973018848 1293573507 -1609233448 595729061 1873529206 1212831219 -1124736844 -1441891702 -2140740524 -1372104316 -813788803 -1651102040 -1404161795 1530562092 1997729808 1769704449 1274550074 -618070726 -2083010238 -712483670
REM
CELL 1.54180   50.00000   50.00000   50.00000   90.00000   90.00000   90.00000
LATT -1
SFAC C  
C      1  0.5012300000000  0.5124670000000  0.4454100000000 1.0
C      1  0.4724560000000  0.4221090000000  0.4523060000000 1.0
C      1  0.4804080000000  0.5270240000000  0.4678420000000 1.0
C      1  0.4954680000000  0.4580790000000  0.5362490000000 1.0
C      1  0.4265190000000  0.4432920000000  0.5455180000000 1.0
C      1  0.4747500000000  0.5950400000000  0.4885780000000 1.0
C      1  0.4439210000000  0.4950980000000  0.5845380000000 1.0
C      1  0.5538060000000  0.5490300000000  0.4463090000000 1.0
C      1  0.5577140000000  0.5051550000000  0.5610510000000 1.0
C      1  0.4889080000000  0.5746600000000  0.5097860000000 1.0
C      1  0.5216900000000  0.4381420000000  0.4242070000000 1.0
C      1  0.4761580000000  0.5453930000000  0.5603480000000 1.0
C      1  0.5639170000000  0.4098960000000  0.5401240000000 1.0
C      1  0.5849580000000  0.5280770000000  0.4910940000000 1.0
C      1  0.4838650000000  0.5717640000000  0.5568820000000 1.0
C      1  0.5204210000000  0.4446250000000  0.4565140000000 1.0
C      1  0.5365030000000  0.5184840000000  0.5822900000000 1.0
C      1  0.5794830000000  0.5207950000000  0.5419420000000 1.0
C      1  0.4825120000000  0.4575920000000  0.4867000000000 1.0
C      1  0.4694710000000  0.4819490000000  0.4668790000000 1.0
C      1  0.4199050000000  0.5146210000000  0.5329270000000 1.0
C      1  0.5166700000000  0.5955070000000  0.4673750000000 1.0
C      1  0.5572420000000  0.5536420000000  0.5438550000000 1.0
C      1  0.5475880000000  0.4561460000000  0.4422240000000 1.0
C      1  0.4578270000000  0.5709220000000  0.5158550000000 1.0
C      1  0.4852840000000  0.5449760000000  0.4218480000000 1.0
C      1  0.4709190000000  0.4297140000000  0.4854530000000 1.0
C      1  0.4230660000000  0.4629930000000  0.5259820000000 1.0
C      1  0.5061340000000  0.5564420000000  0.4347600000000 1.0
C      1  0.4838030000000  0.4119420000000  0.5087050000000 1.0
C      1  0.4347800000000  0.5385710000000  0.4927180000000 1.0
C      1  0.5377430000000  0.5875350000000  0.4820290000000 1.0
C      1  0.4024790000000  0.4768090000000  0.4831980000000 1.0
C      1  0.5352880000000  0.4081870000000  0.5277720000000 1.0
C      1  0.4369030000000  0.5314020000000  0.5523030000000 1.0
C      1  0.5558490000000  0.5666690000000  0.4690690000000 1.0
C      1  0.5300260000000  0.5417700000000  0.4347970000000 1.0
C      1  0.4222010000000  0.5150830000000  0.4589040000000 1.0
C      1  0.4623610000000  0.4918170000000  0.5390170000000 1.0
C      1  0.4538720000000  0.5440780000000  0.5273340000000 1.0
C      1  0.5301480000000  0.4157750000000  0.4716650000000 1.0
C      1  0.5452760000000  0.4881780000000  0.4660080000000 1.0
C      1  0.5311500000000  0.5744620000000  0.5430390000000 1.0
C      1  0.5428710000000  0.4772370000000  0.5517690000000 1.0
C      1  0.4758310000000  0.5215670000000  0.5381060000000 1.0
C      1  0.4796020000000  0.5035230000000  0.4900390000000 1.0
C      1  0.3783890000000  0.4659630000000  0.4762030000000 1.0
C      1  0.5460850000000  0.5246330000000  0.4992520000000 1.0
C      1  0.5408500000000  0.5572500000000  0.4973200000000 1.0
C      1  0.5191370000000  0.4422380000000  0.4901380000000 1.0
C      1  0.4899200000000  0.4309910000000  0.4346710000000 1.0
C      1  0.4495290000000  0.4778470000000  0.4941110000000 1.0
C      1  0.5981220000000  0.5146070000000  0.4414460000000 1.0
C      1  0.4088700000000  0.5046550000000  0.4821720000000 1.0
C      1  0.5098660000000  0.4713350000000  0.4747280000000 1.0
C      1  0.5819640000000  0.4766610000000  0.5141690000000 1.0
C      1  0.5054690000000  0.5205930000000  0.5245230000000 1.0
C      1  0.5691050000000  0.4539900000000  0.5015310000000 1.0
C      1  0.4489250000000  0.5320580000000  0.4560110000000 1.0
C      1  0.5081480000000  0.5247330000000  0.5850050000000 1.0
C      1  0.4767050000000  0.4921750000000  0.4395620000000 1.0
C      1  0.4246040000000  0.4598800000000  0.4954860000000 1.0
C      1  0.5540170000000  0.4353480000000  0.5195480000000 1.0
C      1  0.4458380000000  0.4495410000000  0.5643930000000 1.0
C      1  0.4655560000000  0.5231930000000  0.4309060000000 1.0
C      1  0.5721890000000  0.5034380000000  0.4565380000000 1.0
C      1  0.4755310000000  0.4734050000000  0.5159820000000 1.0
C      1  0.4430030000000  0.4194540000000  0.4590980000000 1.0
C      1  0.5755790000000  0.4522880000000  0.5824720000000 1.0
C      1  0.4489350000000  0.5222070000000  0.5776840000000 1.0
C      1  0.5034140000000  0.4913220000000  0.5089050000000 1.0
C      1  0.5483830000000  0.4924110000000  0.4996070000000 1.0
C      1  0.5069280000000  0.4139530000000  0.5228090000000 1.0
C      1  0.4671450000000  0.5807840000000  0.4644850000000 1.0
C      1  0.5263250000000  0.4350410000000  0.5897370000000 1.0
C      1  0.5102150000000  0.4823190000000  0.4200080000000 1.0
C      1  0.5134530000000  0.5260670000000  0.4919130000000 1.0
C      1  0.5197140000000  0.5020440000000  0.5495110000000 1.0
C      1  0.5702190000000  0.5395550000000  0.5176740000000 1.0
C      1  0.4541540000000  0.4764590000000  0.5661340000000 1.0
C      1  0.4583530000000  0.5026250000000  0.4060770000000 1.0
C      1  0.5243910000000  0.5132550000000  0.4226050000000 1.0
C      1  0.5311980000000  0.4773370000000  0.5202760000000 1.0
C      1  0.5809520000000  0.5000420000000  0.4954040000000 1.0
C      1  0.5035580000000  0.4747440000000  0.5578110000000 1.0
C      1  0.5242140000000  0.5489090000000  0.5227480000000 1.0
C      1  0.4979660000000  0.5725180000000  0.4585220000000 1.0
C      1  0.4594650000000  0.5231780000000  0.5019640000000 1.0
C      1  0.4368300000000  0.4338600000000  0.4840260000000 1.0
C      1  0.5148020000000  0.5023270000000  0.4712450000000 1.0
C      1  0.4945920000000  0.4500850000000  0.4090370000000 1.0
C      1  0.4798450000000  0.5312170000000  0.5866010000000 1.0
C      1  0.4796110000000  0.4782030000000  0.4089530000000 1.0
C      1  0.5405940000000  0.4851080000000  0.4324670000000 1.0
C      1  0.4131170000000  0.5229010000000  0.5054580000000 1.0
C      1  0.4308670000000  0.4885350000000  0.5344020000000 1.0
C      1  0.5584120000000  0.4577010000000  0.4744220000000 1.0
C      1  0.5793050000000  0.5354170000000  0.4608570000000 1.0
C      1  0.4394660000000  0.5780030000000  0.4963290000000 1.0
C      1  0.5019750000000  0.5788860000000  0.5366520000000 1.0
C      1  0.5493390000000  0.4560200000000  0.5755650000000 1.0
C      1  0.5310660000000  0.5335820000000  0.5523150000000 1.0
C      1  0.4430430000000  0.5607670000000  0.4683070000000 1.0
C      1  0.5213580000000  0.4447890000000  0.5202080000000 1.0
C      1  0.4950160000000  0.5530910000000  0.4840740000000 1.0
C      1  0.5794180000000  0.4882090000000  0.5403010000000 1.0
C      1  0.5159840000000  0.4620080000000  0.5783250000000 1.0
END
