TITL C-2847954-6904-354 -0.0011951161326454 125000 -1018.09782717868 0 0 186 (C1) n - 1
REM
REM in /home/bkarasulu/work/CARBON/AIRSS/Generating-Clusters/AIREBO/with-SteepDescent/Only-C1/SD-CG-opt/Try1-1.4A-POS3A/HFTN-CG
REM
REM
REM
REM
REM
REM ./C.cell (11c1c37f851c82e70ff6c80c92926a4b)
REM
REM compiler GCC version 9.2.1 20190827 (Red Hat 9.2.1-1)
REM options -cpp -mtune=generic -march=x86-64 -g -O0 -fpre-include=/usr/include/finclude/math-vector-fortran.h
REM seed 1388074988 344396191 -1751350296 -1287385994 414130698 -1623536870 1537256715 1294191153 764881388 -1191868402 -2028276404 61041895 1615174151 -2090981891 2131367523 -1727987778 1976702569 660472074 -473414400 -15917078 -1664589538 1784135415 -1632012975 -1589614702 -2066914614 -1924727904 756921753 -1366109187 2053485758 -1364912984 488400841 366953800 1581773318
REM
CELL 1.54180   50.00000   50.00000   50.00000   90.00000   90.00000   90.00000
LATT -1
SFAC C  
C      1  0.4395670000000  0.5515750000000  0.5482670000000 1.0
C      1  0.5330810000000  0.5456140000000  0.4638570000000 1.0
C      1  0.6050000000000  0.4933050000000  0.5003710000000 1.0
C      1  0.5619180000000  0.4717660000000  0.5611480000000 1.0
C      1  0.4294180000000  0.5016830000000  0.5274020000000 1.0
C      1  0.5062780000000  0.4413580000000  0.4683950000000 1.0
C      1  0.4551490000000  0.4318320000000  0.4950140000000 1.0
C      1  0.5290040000000  0.5207700000000  0.6008460000000 1.0
C      1  0.4434500000000  0.4665170000000  0.4217800000000 1.0
C      1  0.4741030000000  0.5060590000000  0.4882380000000 1.0
C      1  0.5662010000000  0.4959050000000  0.4472370000000 1.0
C      1  0.6114580000000  0.4599250000000  0.5010690000000 1.0
C      1  0.5525490000000  0.5276570000000  0.5120890000000 1.0
C      1  0.4129260000000  0.4959230000000  0.5546840000000 1.0
C      1  0.5677010000000  0.4854080000000  0.6040970000000 1.0
C      1  0.4115650000000  0.4448060000000  0.5235690000000 1.0
C      1  0.5851560000000  0.5459070000000  0.4717980000000 1.0
C      1  0.5498250000000  0.5174730000000  0.4050620000000 1.0
C      1  0.5826530000000  0.5430880000000  0.5419390000000 1.0
C      1  0.5682110000000  0.4304580000000  0.5117990000000 1.0
C      1  0.5229740000000  0.4391350000000  0.5663510000000 1.0
C      1  0.4326050000000  0.5356160000000  0.4149530000000 1.0
C      1  0.5930090000000  0.4837400000000  0.4595860000000 1.0
C      1  0.5452900000000  0.5623640000000  0.5803960000000 1.0
C      1  0.4047850000000  0.5489500000000  0.4701840000000 1.0
C      1  0.3886390000000  0.4691220000000  0.4864500000000 1.0
C      1  0.4411610000000  0.4020200000000  0.5019910000000 1.0
C      1  0.4175800000000  0.5645530000000  0.4947140000000 1.0
C      1  0.4012640000000  0.5075070000000  0.4479840000000 1.0
C      1  0.4269550000000  0.4233440000000  0.4788100000000 1.0
C      1  0.4133300000000  0.5352540000000  0.5604840000000 1.0
C      1  0.4712260000000  0.5057660000000  0.5734100000000 1.0
C      1  0.4665110000000  0.4750960000000  0.4862150000000 1.0
C      1  0.4573090000000  0.5095500000000  0.4502380000000 1.0
C      1  0.5890620000000  0.4574160000000  0.4752590000000 1.0
C      1  0.4797220000000  0.4840240000000  0.4487920000000 1.0
C      1  0.5270410000000  0.5843100000000  0.5524150000000 1.0
C      1  0.4648540000000  0.5828190000000  0.5575820000000 1.0
C      1  0.4235730000000  0.4758030000000  0.4681970000000 1.0
C      1  0.4840560000000  0.5550860000000  0.5529210000000 1.0
C      1  0.5227260000000  0.4973520000000  0.4097040000000 1.0
C      1  0.5362760000000  0.4401340000000  0.5052100000000 1.0
C      1  0.5004580000000  0.4600840000000  0.4422360000000 1.0
C      1  0.5972870000000  0.5257380000000  0.4373190000000 1.0
C      1  0.4989520000000  0.4874790000000  0.5660240000000 1.0
C      1  0.4527590000000  0.4669670000000  0.4605550000000 1.0
C      1  0.4973210000000  0.4051940000000  0.5010380000000 1.0
C      1  0.5408150000000  0.5743720000000  0.4807080000000 1.0
C      1  0.4921920000000  0.5281680000000  0.5668730000000 1.0
C      1  0.4443730000000  0.4112670000000  0.5342550000000 1.0
C      1  0.4961260000000  0.4674980000000  0.4812960000000 1.0
C      1  0.4671550000000  0.5421030000000  0.4506780000000 1.0
C      1  0.4440290000000  0.5786550000000  0.4411570000000 1.0
C      1  0.5816440000000  0.5684420000000  0.4981120000000 1.0
C      1  0.5615120000000  0.5672260000000  0.4292840000000 1.0
C      1  0.5067100000000  0.5381050000000  0.5909020000000 1.0
C      1  0.5568340000000  0.5823630000000  0.5553250000000 1.0
C      1  0.4919720000000  0.5118750000000  0.4090160000000 1.0
C      1  0.5634910000000  0.4560530000000  0.5998280000000 1.0
C      1  0.4283650000000  0.5260750000000  0.4943540000000 1.0
C      1  0.5590300000000  0.5356910000000  0.5972700000000 1.0
C      1  0.4765080000000  0.5300260000000  0.5199100000000 1.0
C      1  0.4756660000000  0.4114330000000  0.5476070000000 1.0
C      1  0.5343510000000  0.5521040000000  0.4339140000000 1.0
C      1  0.4302830000000  0.4921490000000  0.4391390000000 1.0
C      1  0.4656670000000  0.5811920000000  0.4572890000000 1.0
C      1  0.3897830000000  0.5027040000000  0.5306610000000 1.0
C      1  0.5149010000000  0.4902640000000  0.5956910000000 1.0
C      1  0.4254230000000  0.4443740000000  0.5673230000000 1.0
C      1  0.5718060000000  0.4400430000000  0.4534550000000 1.0
C      1  0.4492330000000  0.5698090000000  0.4952160000000 1.0
C      1  0.4872720000000  0.5268270000000  0.4702030000000 1.0
C      1  0.5946230000000  0.5103910000000  0.5712490000000 1.0
C      1  0.4779740000000  0.4966800000000  0.5186650000000 1.0
C      1  0.4754000000000  0.4651320000000  0.3925350000000 1.0
C      1  0.5227950000000  0.4413370000000  0.5361920000000 1.0
C      1  0.4635560000000  0.4765400000000  0.5890200000000 1.0
C      1  0.5388700000000  0.5173790000000  0.5684840000000 1.0
C      1  0.5077600000000  0.5466600000000  0.4865250000000 1.0
C      1  0.4711840000000  0.4048220000000  0.4853700000000 1.0
C      1  0.5960280000000  0.4433320000000  0.5270890000000 1.0
C      1  0.4642980000000  0.6001190000000  0.4984820000000 1.0
C      1  0.5183500000000  0.5501530000000  0.4096860000000 1.0
C      1  0.4694360000000  0.4435810000000  0.5442910000000 1.0
C      1  0.5277860000000  0.5322220000000  0.3909430000000 1.0
C      1  0.4504530000000  0.4758040000000  0.5576400000000 1.0
C      1  0.4815190000000  0.4175140000000  0.5805590000000 1.0
C      1  0.4694020000000  0.4880030000000  0.4169760000000 1.0
C      1  0.4206120000000  0.4413220000000  0.4218620000000 1.0
C      1  0.5847240000000  0.5385820000000  0.5107900000000 1.0
C      1  0.4205820000000  0.4930290000000  0.4963580000000 1.0
C      1  0.4536810000000  0.4902740000000  0.5351980000000 1.0
C      1  0.4478810000000  0.5430490000000  0.5162350000000 1.0
C      1  0.4976100000000  0.4326780000000  0.5184630000000 1.0
C      1  0.5037770000000  0.5016680000000  0.4620010000000 1.0
C      1  0.4107690000000  0.4676800000000  0.5686450000000 1.0
C      1  0.4551380000000  0.4481160000000  0.5748080000000 1.0
C      1  0.4068910000000  0.4481230000000  0.4691670000000 1.0
C      1  0.5565910000000  0.5091290000000  0.4844180000000 1.0
C      1  0.5524970000000  0.4198540000000  0.4519060000000 1.0
C      1  0.5499680000000  0.4644040000000  0.4070770000000 1.0
C      1  0.5219520000000  0.5685040000000  0.5083850000000 1.0
C      1  0.5527530000000  0.5426540000000  0.5550120000000 1.0
C      1  0.4079970000000  0.5427930000000  0.5158670000000 1.0
C      1  0.5196750000000  0.5214620000000  0.5059990000000 1.0
C      1  0.5063660000000  0.5159460000000  0.3784820000000 1.0
C      1  0.5499190000000  0.4031830000000  0.5100650000000 1.0
C      1  0.4274040000000  0.4644020000000  0.5134000000000 1.0
C      1  0.4505140000000  0.5783230000000  0.4128140000000 1.0
C      1  0.4599340000000  0.4567690000000  0.5142640000000 1.0
C      1  0.4398870000000  0.5147410000000  0.5636470000000 1.0
C      1  0.5245900000000  0.4730610000000  0.5243730000000 1.0
C      1  0.4985390000000  0.4633760000000  0.6085860000000 1.0
C      1  0.5480250000000  0.6009770000000  0.5011670000000 1.0
C      1  0.5259920000000  0.4724200000000  0.4317680000000 1.0
C      1  0.5466280000000  0.4081770000000  0.5583090000000 1.0
C      1  0.4829560000000  0.5616670000000  0.5138950000000 1.0
C      1  0.5008920000000  0.4517600000000  0.3958260000000 1.0
C      1  0.5128120000000  0.4946990000000  0.4930470000000 1.0
C      1  0.4915660000000  0.4424090000000  0.5900850000000 1.0
C      1  0.4310160000000  0.4220490000000  0.4474290000000 1.0
C      1  0.5684980000000  0.5342530000000  0.4240730000000 1.0
C      1  0.3970700000000  0.5297430000000  0.5382120000000 1.0
C      1  0.5229790000000  0.4688670000000  0.3921960000000 1.0
C      1  0.3957820000000  0.5210010000000  0.4717870000000 1.0
C      1  0.5053410000000  0.5261080000000  0.5355820000000 1.0
C      1  0.5779420000000  0.5124690000000  0.5945160000000 1.0
C      1  0.5557760000000  0.5033040000000  0.5352040000000 1.0
C      1  0.5431640000000  0.5875790000000  0.4494590000000 1.0
C      1  0.5342510000000  0.4691040000000  0.4912800000000 1.0
C      1  0.5531090000000  0.4360360000000  0.5767370000000 1.0
C      1  0.5052240000000  0.4307860000000  0.4155240000000 1.0
C      1  0.5280040000000  0.4164050000000  0.4288150000000 1.0
C      1  0.4250020000000  0.5737870000000  0.5266030000000 1.0
C      1  0.6020620000000  0.4766840000000  0.5298520000000 1.0
C      1  0.5235990000000  0.4991670000000  0.5454500000000 1.0
C      1  0.4550230000000  0.4416220000000  0.4411740000000 1.0
C      1  0.5427830000000  0.4665240000000  0.4603400000000 1.0
C      1  0.4945500000000  0.4572710000000  0.5619100000000 1.0
C      1  0.4840540000000  0.4944730000000  0.6093780000000 1.0
C      1  0.4835830000000  0.5881500000000  0.5310460000000 1.0
C      1  0.4789680000000  0.5656760000000  0.5833320000000 1.0
C      1  0.5665550000000  0.5847290000000  0.5228130000000 1.0
C      1  0.4814390000000  0.5389580000000  0.4200760000000 1.0
C      1  0.4501270000000  0.4884270000000  0.3889600000000 1.0
C      1  0.4261090000000  0.5512860000000  0.4445430000000 1.0
C      1  0.5717540000000  0.4412860000000  0.5502740000000 1.0
C      1  0.5615580000000  0.5283950000000  0.4568460000000 1.0
C      1  0.5125060000000  0.5591400000000  0.5396840000000 1.0
C      1  0.4553040000000  0.5507880000000  0.4061740000000 1.0
C      1  0.4636400000000  0.5210960000000  0.6028020000000 1.0
C      1  0.5127970000000  0.5681670000000  0.5889410000000 1.0
C      1  0.5719570000000  0.4629230000000  0.5024050000000 1.0
C      1  0.5716980000000  0.5767060000000  0.4666640000000 1.0
C      1  0.4336150000000  0.5082930000000  0.4102030000000 1.0
C      1  0.4926070000000  0.4661960000000  0.5150890000000 1.0
C      1  0.5105740000000  0.5869340000000  0.4418870000000 1.0
C      1  0.5349680000000  0.3996950000000  0.5349050000000 1.0
C      1  0.5454420000000  0.4864710000000  0.5812380000000 1.0
C      1  0.4499830000000  0.5922260000000  0.5283330000000 1.0
C      1  0.4990140000000  0.5678720000000  0.4241130000000 1.0
C      1  0.6041550000000  0.5109170000000  0.4589730000000 1.0
C      1  0.5142310000000  0.6014320000000  0.5048790000000 1.0
C      1  0.5098640000000  0.6019310000000  0.5365860000000 1.0
C      1  0.5187240000000  0.3997130000000  0.4533990000000 1.0
C      1  0.3976720000000  0.4426960000000  0.4399460000000 1.0
C      1  0.4235220000000  0.4287680000000  0.5437430000000 1.0
C      1  0.6048890000000  0.5238610000000  0.4887690000000 1.0
C      1  0.5563490000000  0.4638550000000  0.5300400000000 1.0
C      1  0.5210260000000  0.4205520000000  0.4874100000000 1.0
C      1  0.4395410000000  0.5298140000000  0.4666880000000 1.0
C      1  0.3877890000000  0.5001900000000  0.4974930000000 1.0
C      1  0.4910900000000  0.4114710000000  0.4620610000000 1.0
C      1  0.5842530000000  0.4913320000000  0.5495400000000 1.0
C      1  0.5349460000000  0.4988450000000  0.4602990000000 1.0
C      1  0.5039710000000  0.4024310000000  0.5326930000000 1.0
C      1  0.5432160000000  0.3987840000000  0.4769710000000 1.0
C      1  0.4825210000000  0.4318920000000  0.4380440000000 1.0
C      1  0.5735300000000  0.4940390000000  0.5078550000000 1.0
C      1  0.4551490000000  0.5421830000000  0.5770220000000 1.0
C      1  0.4913500000000  0.5979980000000  0.4599120000000 1.0
C      1  0.5650600000000  0.4653970000000  0.4346530000000 1.0
C      1  0.5493820000000  0.5573670000000  0.5251110000000 1.0
C      1  0.4808720000000  0.5671960000000  0.4830190000000 1.0
C      1  0.4899530000000  0.6069750000000  0.4872550000000 1.0
C      1  0.6018740000000  0.5345450000000  0.5590200000000 1.0
END
