TITL C-2847956-8218-717 -0.00363979331325049 125000 -229.592069694401 0 0 43 (C1) n - 1
REM
REM in /home/bkarasulu/work/CARBON/AIRSS/Generating-Clusters/AIREBO/with-SteepDescent/Only-C1/SD-CG-opt/Try1-1.4A-POS3A/HFTN-CG
REM
REM
REM
REM
REM
REM ./C.cell (11c1c37f851c82e70ff6c80c92926a4b)
REM
REM compiler GCC version 9.2.1 20190827 (Red Hat 9.2.1-1)
REM options -cpp -mtune=generic -march=x86-64 -g -O0 -fpre-include=/usr/include/finclude/math-vector-fortran.h
REM seed -493864875 1628161855 1702043865 1434144871 -12575831 -2001054906 640408982 -1195190673 1807395137 -2101186489 1502860081 1527235797 -1479587659 1806055181 -1715605360 -2001103455 2094455598 -824642753 449143394 357994932 402231851 -1266016829 -1757198615 232234080 2007557134 1959923391 483931743 -1420169344 876675403 344727495 2036934202 -639757766 1146373716
REM
CELL 1.54180   50.00000   50.00000   50.00000   90.00000   90.00000   90.00000
LATT -1
SFAC C  
C      1  0.5199660000000  0.4702910000000  0.5442500000000 1.0
C      1  0.5376240000000  0.5584570000000  0.5190100000000 1.0
C      1  0.5341050000000  0.5196760000000  0.5118120000000 1.0
C      1  0.5147330000000  0.5090300000000  0.4413580000000 1.0
C      1  0.5061370000000  0.4461460000000  0.4813480000000 1.0
C      1  0.4324400000000  0.4993200000000  0.4904110000000 1.0
C      1  0.5432130000000  0.5521920000000  0.4907320000000 1.0
C      1  0.5443130000000  0.5072860000000  0.5383560000000 1.0
C      1  0.4513790000000  0.4986380000000  0.5416780000000 1.0
C      1  0.5668450000000  0.4587240000000  0.4842080000000 1.0
C      1  0.4541970000000  0.5486760000000  0.5358690000000 1.0
C      1  0.4410040000000  0.4759500000000  0.5104550000000 1.0
C      1  0.4658340000000  0.4777920000000  0.4872870000000 1.0
C      1  0.4828130000000  0.5121140000000  0.4474930000000 1.0
C      1  0.4585390000000  0.4476220000000  0.5125120000000 1.0
C      1  0.5068070000000  0.4547810000000  0.5273550000000 1.0
C      1  0.5163560000000  0.4732020000000  0.4724690000000 1.0
C      1  0.5149890000000  0.5393650000000  0.5310030000000 1.0
C      1  0.5376100000000  0.5039680000000  0.4513410000000 1.0
C      1  0.5417060000000  0.4890100000000  0.4879070000000 1.0
C      1  0.4433600000000  0.4886930000000  0.4636290000000 1.0
C      1  0.4942110000000  0.5230440000000  0.5410720000000 1.0
C      1  0.5054520000000  0.5234320000000  0.4958110000000 1.0
C      1  0.5787100000000  0.5210980000000  0.4703830000000 1.0
C      1  0.4527900000000  0.5405470000000  0.4761890000000 1.0
C      1  0.5479800000000  0.4725660000000  0.4592890000000 1.0
C      1  0.4505810000000  0.4647210000000  0.5407870000000 1.0
C      1  0.5460930000000  0.4789350000000  0.5355290000000 1.0
C      1  0.4923770000000  0.4913720000000  0.4709270000000 1.0
C      1  0.5558850000000  0.4710210000000  0.5104830000000 1.0
C      1  0.4731270000000  0.4452950000000  0.4822710000000 1.0
C      1  0.4902520000000  0.4356870000000  0.5100750000000 1.0
C      1  0.4444080000000  0.5235590000000  0.4972130000000 1.0
C      1  0.5278790000000  0.5128060000000  0.5600270000000 1.0
C      1  0.5222280000000  0.5607330000000  0.4737510000000 1.0
C      1  0.4999820000000  0.5441990000000  0.4776950000000 1.0
C      1  0.4816860000000  0.5042560000000  0.5016120000000 1.0
C      1  0.5518010000000  0.5202010000000  0.4827750000000 1.0
C      1  0.4729890000000  0.4823860000000  0.5589030000000 1.0
C      1  0.4643860000000  0.5222650000000  0.5246990000000 1.0
C      1  0.4553430000000  0.4980470000000  0.4411240000000 1.0
C      1  0.5005190000000  0.4943930000000  0.5567380000000 1.0
C      1  0.4773530000000  0.5385010000000  0.4621630000000 1.0
END
