TITL C-2847944-5688-328 0.00061906187809653 125000 -826.054766105266 0 0 148 (C1) n - 1
REM
REM in /home/bkarasulu/work/CARBON/AIRSS/Generating-Clusters/AIREBO/with-SteepDescent/Only-C1/SD-CG-opt/Try1-1.4A-POS3A/HFTN-CG
REM
REM
REM
REM
REM
REM ./C.cell (11c1c37f851c82e70ff6c80c92926a4b)
REM
REM compiler GCC version 9.2.1 20190827 (Red Hat 9.2.1-1)
REM options -cpp -mtune=generic -march=x86-64 -g -O0 -fpre-include=/usr/include/finclude/math-vector-fortran.h
REM seed 699999911 1638874405 -1120294313 -317250694 1320052281 1966815252 1466475144 -1916016269 439201338 317781440 -1945834867 1267748500 -141027530 2049782703 -2076533466 -879023377 693116084 -1264566045 -767292106 -1429198719 -1430681421 -1066569113 139545889 185686074 -1258768464 -1841431241 -954225379 1501548974 192092658 1672132097 -891891875 270206614 -789748488
REM
CELL 1.54180   50.00000   50.00000   50.00000   90.00000   90.00000   90.00000
LATT -1
SFAC C  
C      1  0.5176810000000  0.4333010000000  0.4324900000000 1.0
C      1  0.4783840000000  0.5275550000000  0.4987220000000 1.0
C      1  0.5750520000000  0.4213250000000  0.5090760000000 1.0
C      1  0.5720880000000  0.4302420000000  0.4824240000000 1.0
C      1  0.4402170000000  0.5574660000000  0.4463390000000 1.0
C      1  0.4451540000000  0.5053930000000  0.4559820000000 1.0
C      1  0.4897780000000  0.5375240000000  0.4137060000000 1.0
C      1  0.4622220000000  0.5403940000000  0.5603230000000 1.0
C      1  0.5008600000000  0.4762600000000  0.4922910000000 1.0
C      1  0.5333900000000  0.4820100000000  0.5930110000000 1.0
C      1  0.4376910000000  0.5078440000000  0.5575730000000 1.0
C      1  0.5646370000000  0.5039900000000  0.5583970000000 1.0
C      1  0.4471800000000  0.4672970000000  0.5197550000000 1.0
C      1  0.5914980000000  0.5581540000000  0.4801780000000 1.0
C      1  0.5343210000000  0.5497350000000  0.5478900000000 1.0
C      1  0.5681730000000  0.5794140000000  0.5327300000000 1.0
C      1  0.5346050000000  0.5507780000000  0.6106250000000 1.0
C      1  0.6012710000000  0.4742280000000  0.4547980000000 1.0
C      1  0.4811760000000  0.4682860000000  0.5569750000000 1.0
C      1  0.4761030000000  0.5747760000000  0.4689920000000 1.0
C      1  0.4941990000000  0.4978960000000  0.4164950000000 1.0
C      1  0.4810010000000  0.4969540000000  0.5044000000000 1.0
C      1  0.4887630000000  0.5561810000000  0.5123790000000 1.0
C      1  0.5626240000000  0.5618520000000  0.4972330000000 1.0
C      1  0.5617230000000  0.4806350000000  0.5791120000000 1.0
C      1  0.5176370000000  0.4411190000000  0.5468010000000 1.0
C      1  0.4283220000000  0.4520160000000  0.5435740000000 1.0
C      1  0.5884760000000  0.5053900000000  0.4613960000000 1.0
C      1  0.5113240000000  0.5206540000000  0.4771650000000 1.0
C      1  0.5160460000000  0.4991370000000  0.5469800000000 1.0
C      1  0.4476130000000  0.5025130000000  0.5011520000000 1.0
C      1  0.5635080000000  0.5477070000000  0.4274730000000 1.0
C      1  0.4119330000000  0.5057310000000  0.4623930000000 1.0
C      1  0.4652900000000  0.4304930000000  0.4623530000000 1.0
C      1  0.4646870000000  0.5717670000000  0.4416670000000 1.0
C      1  0.5338000000000  0.5634530000000  0.4533650000000 1.0
C      1  0.4582430000000  0.5941360000000  0.5039870000000 1.0
C      1  0.5262280000000  0.4195510000000  0.5219490000000 1.0
C      1  0.5105870000000  0.5799440000000  0.4347790000000 1.0
C      1  0.5070680000000  0.4543040000000  0.5172400000000 1.0
C      1  0.4718100000000  0.4379680000000  0.5812800000000 1.0
C      1  0.4785650000000  0.4136130000000  0.5360190000000 1.0
C      1  0.5555100000000  0.4297100000000  0.5259830000000 1.0
C      1  0.6274680000000  0.5071910000000  0.5161800000000 1.0
C      1  0.4526240000000  0.5255450000000  0.5898220000000 1.0
C      1  0.4772900000000  0.5430150000000  0.4686600000000 1.0
C      1  0.5141890000000  0.5859600000000  0.4681010000000 1.0
C      1  0.4429350000000  0.4281750000000  0.5262190000000 1.0
C      1  0.4951530000000  0.4660060000000  0.4283500000000 1.0
C      1  0.5472920000000  0.5347450000000  0.4985730000000 1.0
C      1  0.5005350000000  0.5021110000000  0.4496880000000 1.0
C      1  0.5860610000000  0.4505200000000  0.4704490000000 1.0
C      1  0.4880090000000  0.4241620000000  0.4378380000000 1.0
C      1  0.4899070000000  0.4384720000000  0.4830870000000 1.0
C      1  0.5010060000000  0.5812210000000  0.5244840000000 1.0
C      1  0.5414990000000  0.5838910000000  0.4883160000000 1.0
C      1  0.5373810000000  0.4503530000000  0.4521190000000 1.0
C      1  0.5463570000000  0.5050310000000  0.5114350000000 1.0
C      1  0.4670280000000  0.4822260000000  0.5997490000000 1.0
C      1  0.5235030000000  0.5342430000000  0.4502090000000 1.0
C      1  0.4487560000000  0.5326050000000  0.4661870000000 1.0
C      1  0.6055400000000  0.5366540000000  0.4895270000000 1.0
C      1  0.4403320000000  0.4832280000000  0.4792160000000 1.0
C      1  0.5367830000000  0.4601410000000  0.5017370000000 1.0
C      1  0.5532130000000  0.5337420000000  0.5675370000000 1.0
C      1  0.4382230000000  0.5749000000000  0.4909000000000 1.0
C      1  0.4836200000000  0.5936560000000  0.5428420000000 1.0
C      1  0.5182620000000  0.5958100000000  0.5060750000000 1.0
C      1  0.4062840000000  0.5340500000000  0.4776820000000 1.0
C      1  0.4763930000000  0.3966730000000  0.4859690000000 1.0
C      1  0.4446850000000  0.5602730000000  0.5426950000000 1.0
C      1  0.4377570000000  0.4326740000000  0.4703370000000 1.0
C      1  0.4254340000000  0.4660160000000  0.4342830000000 1.0
C      1  0.5443940000000  0.4926360000000  0.5384590000000 1.0
C      1  0.5242390000000  0.4602380000000  0.4158350000000 1.0
C      1  0.5401520000000  0.5047850000000  0.4472600000000 1.0
C      1  0.5057610000000  0.4834330000000  0.5749670000000 1.0
C      1  0.5208340000000  0.4985800000000  0.4949730000000 1.0
C      1  0.5400070000000  0.4610480000000  0.5626010000000 1.0
C      1  0.4159820000000  0.4948720000000  0.4311440000000 1.0
C      1  0.5040380000000  0.4044110000000  0.5387490000000 1.0
C      1  0.4868050000000  0.3979710000000  0.4553070000000 1.0
C      1  0.5075030000000  0.5306010000000  0.5394650000000 1.0
C      1  0.5300180000000  0.5417770000000  0.5865870000000 1.0
C      1  0.4888340000000  0.5950080000000  0.4890110000000 1.0
C      1  0.4347860000000  0.5335360000000  0.4962390000000 1.0
C      1  0.5842220000000  0.5536220000000  0.5222580000000 1.0
C      1  0.4081510000000  0.4379080000000  0.5092370000000 1.0
C      1  0.5580110000000  0.5144210000000  0.4735040000000 1.0
C      1  0.4446390000000  0.4965080000000  0.4170150000000 1.0
C      1  0.5844820000000  0.4702980000000  0.5908360000000 1.0
C      1  0.5542290000000  0.5002930000000  0.4182610000000 1.0
C      1  0.5071650000000  0.4879030000000  0.6096950000000 1.0
C      1  0.5498610000000  0.4599830000000  0.5322250000000 1.0
C      1  0.4305270000000  0.4696570000000  0.5895790000000 1.0
C      1  0.4740550000000  0.4437280000000  0.4158540000000 1.0
C      1  0.4547210000000  0.5555680000000  0.5131470000000 1.0
C      1  0.5426870000000  0.5746090000000  0.5418150000000 1.0
C      1  0.4564820000000  0.4542760000000  0.5982250000000 1.0
C      1  0.4293790000000  0.4216660000000  0.4956930000000 1.0
C      1  0.4233110000000  0.5627200000000  0.4710340000000 1.0
C      1  0.5642860000000  0.4583670000000  0.4378790000000 1.0
C      1  0.5185800000000  0.5294430000000  0.4026200000000 1.0
C      1  0.5140940000000  0.5003890000000  0.3898330000000 1.0
C      1  0.4533830000000  0.4982280000000  0.5324760000000 1.0
C      1  0.5796370000000  0.5325270000000  0.5474760000000 1.0
C      1  0.4981050000000  0.4292940000000  0.5699080000000 1.0
C      1  0.4665740000000  0.4942820000000  0.5695230000000 1.0
C      1  0.4741260000000  0.4480940000000  0.5113820000000 1.0
C      1  0.5230110000000  0.4779990000000  0.4544250000000 1.0
C      1  0.5600090000000  0.5455050000000  0.4598700000000 1.0
C      1  0.4846260000000  0.5164600000000  0.5827830000000 1.0
C      1  0.4160140000000  0.4643470000000  0.5077800000000 1.0
C      1  0.4780230000000  0.5554940000000  0.5864220000000 1.0
C      1  0.4923270000000  0.5335280000000  0.4447620000000 1.0
C      1  0.4216070000000  0.4540770000000  0.4592520000000 1.0
C      1  0.5031650000000  0.5387410000000  0.5721920000000 1.0
C      1  0.5424640000000  0.4380810000000  0.4789660000000 1.0
C      1  0.4666240000000  0.5128940000000  0.4090780000000 1.0
C      1  0.4924780000000  0.4652210000000  0.4622450000000 1.0
C      1  0.5159190000000  0.5363890000000  0.5070260000000 1.0
C      1  0.4915130000000  0.5110900000000  0.6124430000000 1.0
C      1  0.4178640000000  0.4576660000000  0.5670970000000 1.0
C      1  0.4321200000000  0.4984320000000  0.5888850000000 1.0
C      1  0.4093570000000  0.4762360000000  0.4795410000000 1.0
C      1  0.6058920000000  0.5283510000000  0.5197710000000 1.0
C      1  0.4626680000000  0.4776040000000  0.4545680000000 1.0
C      1  0.5871190000000  0.4765880000000  0.4888470000000 1.0
C      1  0.4671910000000  0.4152010000000  0.5062280000000 1.0
C      1  0.4126200000000  0.5313600000000  0.5219340000000 1.0
C      1  0.6071110000000  0.5026860000000  0.4892340000000 1.0
C      1  0.5355320000000  0.4819260000000  0.4026330000000 1.0
C      1  0.5184060000000  0.4232060000000  0.4920620000000 1.0
C      1  0.4553250000000  0.4658680000000  0.4252320000000 1.0
C      1  0.5756010000000  0.4871020000000  0.4365960000000 1.0
C      1  0.4251170000000  0.5342370000000  0.5471090000000 1.0
C      1  0.5466910000000  0.5307710000000  0.4130750000000 1.0
C      1  0.4735380000000  0.5378510000000  0.6143870000000 1.0
C      1  0.4944240000000  0.4826890000000  0.5311470000000 1.0
C      1  0.4572410000000  0.5900950000000  0.5330320000000 1.0
C      1  0.5873480000000  0.5597660000000  0.4487380000000 1.0
C      1  0.3777290000000  0.5382610000000  0.4863520000000 1.0
C      1  0.5070880000000  0.3974780000000  0.4797200000000 1.0
C      1  0.4747370000000  0.5247240000000  0.5324790000000 1.0
C      1  0.5580320000000  0.4845410000000  0.4910610000000 1.0
C      1  0.4654470000000  0.4391140000000  0.5493570000000 1.0
C      1  0.4868090000000  0.5674940000000  0.4243860000000 1.0
C      1  0.5071980000000  0.4962630000000  0.3634920000000 1.0
END
