TITL C-2847948-6138-632 4.40424752998616e-05 125000 -248.264177986199 0 0 49 (C1) n - 1
REM
REM in /home/bkarasulu/work/CARBON/AIRSS/Generating-Clusters/AIREBO/with-SteepDescent/Only-C1/SD-CG-opt/Try1-1.4A-POS3A/HFTN-CG
REM
REM
REM
REM
REM
REM ./C.cell (11c1c37f851c82e70ff6c80c92926a4b)
REM
REM compiler GCC version 9.2.1 20190827 (Red Hat 9.2.1-1)
REM options -cpp -mtune=generic -march=x86-64 -g -O0 -fpre-include=/usr/include/finclude/math-vector-fortran.h
REM seed -76586401 552239492 891561842 922683410 -2043985977 58782200 1844947588 -881771255 1941370010 -1196801002 586966395 -442550909 -290059644 -154629159 -1023844578 -993566142 -2083331073 -102602451 1467924069 863052244 305770017 -1266535911 1599010004 -483838433 -533670238 -2143743204 1244882475 -430983807 -1433579833 814562518 -56378080 1294558928 -1906090508
REM
CELL 1.54180   50.00000   50.00000   50.00000   90.00000   90.00000   90.00000
LATT -1
SFAC C  
C      1  0.5359100000000  0.5075410000000  0.4409070000000 1.0
C      1  0.4322040000000  0.5236490000000  0.5024300000000 1.0
C      1  0.4658540000000  0.5225260000000  0.5072560000000 1.0
C      1  0.4570190000000  0.4611060000000  0.5398600000000 1.0
C      1  0.5162640000000  0.5007900000000  0.5198850000000 1.0
C      1  0.4474540000000  0.5216190000000  0.4556340000000 1.0
C      1  0.5247710000000  0.4818540000000  0.5451480000000 1.0
C      1  0.5001080000000  0.5024910000000  0.5563420000000 1.0
C      1  0.4820760000000  0.4942900000000  0.5171110000000 1.0
C      1  0.4593330000000  0.5135790000000  0.5578680000000 1.0
C      1  0.5173280000000  0.4424960000000  0.4850280000000 1.0
C      1  0.4680020000000  0.5415880000000  0.4583860000000 1.0
C      1  0.5274810000000  0.4824030000000  0.4626550000000 1.0
C      1  0.5379010000000  0.5508020000000  0.4796270000000 1.0
C      1  0.5623010000000  0.5017100000000  0.4618860000000 1.0
C      1  0.4879830000000  0.4966850000000  0.4405910000000 1.0
C      1  0.5638050000000  0.5187170000000  0.5391300000000 1.0
C      1  0.4958720000000  0.4692510000000  0.5352250000000 1.0
C      1  0.5510010000000  0.5477530000000  0.5036660000000 1.0
C      1  0.4943030000000  0.5421300000000  0.4428470000000 1.0
C      1  0.5331490000000  0.5296400000000  0.5262360000000 1.0
C      1  0.5314260000000  0.4992730000000  0.4914890000000 1.0
C      1  0.4583810000000  0.4759550000000  0.4631190000000 1.0
C      1  0.4813830000000  0.4336470000000  0.4698940000000 1.0
C      1  0.4953810000000  0.4876990000000  0.4725410000000 1.0
C      1  0.5694240000000  0.5243830000000  0.5104790000000 1.0
C      1  0.5251490000000  0.5459120000000  0.5550090000000 1.0
C      1  0.4641240000000  0.4590500000000  0.5111870000000 1.0
C      1  0.4817710000000  0.4599460000000  0.4583120000000 1.0
C      1  0.4972360000000  0.4397460000000  0.5205600000000 1.0
C      1  0.5001130000000  0.5299030000000  0.5482400000000 1.0
C      1  0.4386620000000  0.4468460000000  0.5517460000000 1.0
C      1  0.4936460000000  0.5182200000000  0.4881110000000 1.0
C      1  0.5057230000000  0.5453450000000  0.4722500000000 1.0
C      1  0.5658060000000  0.4750250000000  0.5165360000000 1.0
C      1  0.4721900000000  0.4842010000000  0.5545110000000 1.0
C      1  0.5633810000000  0.4986180000000  0.4953750000000 1.0
C      1  0.4589210000000  0.4855690000000  0.4937190000000 1.0
C      1  0.4944690000000  0.4630970000000  0.4959950000000 1.0
C      1  0.4741160000000  0.4293940000000  0.4978760000000 1.0
C      1  0.4772650000000  0.5549380000000  0.5276060000000 1.0
C      1  0.5046360000000  0.5174370000000  0.4331710000000 1.0
C      1  0.5019950000000  0.5374390000000  0.5150320000000 1.0
C      1  0.5531030000000  0.4720350000000  0.5381700000000 1.0
C      1  0.4612600000000  0.5327830000000  0.5393460000000 1.0
C      1  0.5322520000000  0.4524090000000  0.4668290000000 1.0
C      1  0.4410040000000  0.5076150000000  0.4797200000000 1.0
C      1  0.5285540000000  0.5216680000000  0.4691120000000 1.0
C      1  0.4685120000000  0.5492250000000  0.4863510000000 1.0
END
