TITL C-2847950-6905-571 0.000317844729705749 125000 -1016.63881384553 0 0 191 (C1) n - 1
REM
REM in /home/bkarasulu/work/CARBON/AIRSS/Generating-Clusters/AIREBO/with-SteepDescent/Only-C1/SD-CG-opt/Try1-1.4A-POS3A/HFTN-CG
REM
REM
REM
REM
REM
REM ./C.cell (11c1c37f851c82e70ff6c80c92926a4b)
REM
REM compiler GCC version 9.2.1 20190827 (Red Hat 9.2.1-1)
REM options -cpp -mtune=generic -march=x86-64 -g -O0 -fpre-include=/usr/include/finclude/math-vector-fortran.h
REM seed 1464006935 -799995863 2137520647 1527980068 -303401669 -693551175 1384675830 1652084430 -2072002508 -2056612057 -1897511116 259661470 1408594964 1075217429 -1530950806 -836208811 2094544934 50561121 -275438988 539063254 1826594346 605285955 -761052897 48068926 -392955048 93287356 1485504294 -1910686387 1739163594 -1645016319 -1019349739 -948145376 608699445
REM
CELL 1.54180   50.00000   50.00000   50.00000   90.00000   90.00000   90.00000
LATT -1
SFAC C  
C      1  0.4843110000000  0.5113040000000  0.4379210000000 1.0
C      1  0.4922630000000  0.5550700000000  0.6003800000000 1.0
C      1  0.6121350000000  0.4931880000000  0.4772520000000 1.0
C      1  0.4634530000000  0.5389990000000  0.5145730000000 1.0
C      1  0.4105920000000  0.5308520000000  0.4987800000000 1.0
C      1  0.4287320000000  0.5632350000000  0.4433370000000 1.0
C      1  0.4345360000000  0.4324620000000  0.5078480000000 1.0
C      1  0.5694350000000  0.4920310000000  0.5133260000000 1.0
C      1  0.4146770000000  0.4446860000000  0.4634330000000 1.0
C      1  0.5652950000000  0.5758270000000  0.4526750000000 1.0
C      1  0.5789190000000  0.4498310000000  0.5109100000000 1.0
C      1  0.5668780000000  0.4174840000000  0.4908770000000 1.0
C      1  0.5005680000000  0.5046390000000  0.5688790000000 1.0
C      1  0.5266310000000  0.4789740000000  0.5528960000000 1.0
C      1  0.6026460000000  0.5812910000000  0.5028660000000 1.0
C      1  0.5329590000000  0.4307970000000  0.5704180000000 1.0
C      1  0.4108550000000  0.5012390000000  0.5554690000000 1.0
C      1  0.5170820000000  0.5939250000000  0.4310240000000 1.0
C      1  0.4785410000000  0.5829570000000  0.5382220000000 1.0
C      1  0.4137270000000  0.4785960000000  0.5744360000000 1.0
C      1  0.5052190000000  0.4874220000000  0.5971400000000 1.0
C      1  0.4394220000000  0.4705290000000  0.5863730000000 1.0
C      1  0.4778500000000  0.4474180000000  0.6020450000000 1.0
C      1  0.4767430000000  0.4966600000000  0.3888550000000 1.0
C      1  0.4802810000000  0.4748950000000  0.6096660000000 1.0
C      1  0.5782620000000  0.5162000000000  0.5588920000000 1.0
C      1  0.4074850000000  0.5124600000000  0.4200560000000 1.0
C      1  0.5384930000000  0.4489830000000  0.5422220000000 1.0
C      1  0.5293360000000  0.3898940000000  0.5014120000000 1.0
C      1  0.4421750000000  0.5811840000000  0.4836610000000 1.0
C      1  0.5933540000000  0.5520850000000  0.5678960000000 1.0
C      1  0.5331790000000  0.5781440000000  0.4542540000000 1.0
C      1  0.5324930000000  0.4343710000000  0.4676620000000 1.0
C      1  0.4993090000000  0.5953760000000  0.5694850000000 1.0
C      1  0.5983420000000  0.5596820000000  0.4705780000000 1.0
C      1  0.4404510000000  0.5101820000000  0.4668260000000 1.0
C      1  0.5045610000000  0.4656690000000  0.4799740000000 1.0
C      1  0.4242070000000  0.4806360000000  0.4342880000000 1.0
C      1  0.5005210000000  0.4174590000000  0.5207740000000 1.0
C      1  0.5843440000000  0.5406880000000  0.4521520000000 1.0
C      1  0.5468420000000  0.5705450000000  0.5660480000000 1.0
C      1  0.4245200000000  0.4885590000000  0.4020590000000 1.0
C      1  0.4621530000000  0.4474390000000  0.4530250000000 1.0
C      1  0.5516190000000  0.4478710000000  0.4907230000000 1.0
C      1  0.5014480000000  0.4820740000000  0.3726570000000 1.0
C      1  0.4762600000000  0.5615840000000  0.4605830000000 1.0
C      1  0.5200080000000  0.5983590000000  0.5181830000000 1.0
C      1  0.5724490000000  0.4447740000000  0.5385510000000 1.0
C      1  0.4404710000000  0.5870660000000  0.4534390000000 1.0
C      1  0.5795600000000  0.5175780000000  0.4988040000000 1.0
C      1  0.5182610000000  0.4045540000000  0.4757260000000 1.0
C      1  0.6094400000000  0.4625470000000  0.5101240000000 1.0
C      1  0.5121850000000  0.3859000000000  0.5257340000000 1.0
C      1  0.4487640000000  0.5567250000000  0.5378660000000 1.0
C      1  0.5713430000000  0.4596530000000  0.4067370000000 1.0
C      1  0.4525050000000  0.4993000000000  0.4369430000000 1.0
C      1  0.5328990000000  0.5981930000000  0.5748230000000 1.0
C      1  0.5072610000000  0.5483970000000  0.4279470000000 1.0
C      1  0.5235900000000  0.5425250000000  0.4925490000000 1.0
C      1  0.5001750000000  0.4372820000000  0.4617510000000 1.0
C      1  0.5258940000000  0.5004570000000  0.4130860000000 1.0
C      1  0.5539630000000  0.4990540000000  0.4322480000000 1.0
C      1  0.4977370000000  0.6090090000000  0.5398910000000 1.0
C      1  0.5456600000000  0.6103260000000  0.5068920000000 1.0
C      1  0.5499680000000  0.4817410000000  0.4881120000000 1.0
C      1  0.4843790000000  0.4339000000000  0.4093040000000 1.0
C      1  0.4521920000000  0.4931980000000  0.5378870000000 1.0
C      1  0.5260790000000  0.4933050000000  0.3798470000000 1.0
C      1  0.5346610000000  0.5321960000000  0.4216300000000 1.0
C      1  0.4019190000000  0.5254690000000  0.4708050000000 1.0
C      1  0.5003170000000  0.4748760000000  0.4393970000000 1.0
C      1  0.5238640000000  0.4667180000000  0.4169770000000 1.0
C      1  0.5223450000000  0.4017770000000  0.5542860000000 1.0
C      1  0.5213340000000  0.5465990000000  0.4588470000000 1.0
C      1  0.4948100000000  0.5887940000000  0.4518550000000 1.0
C      1  0.5532670000000  0.5445750000000  0.4470120000000 1.0
C      1  0.4612260000000  0.3962000000000  0.5359690000000 1.0
C      1  0.4030130000000  0.4814040000000  0.5110750000000 1.0
C      1  0.6131250000000  0.4963530000000  0.5105830000000 1.0
C      1  0.4133210000000  0.5394740000000  0.5440630000000 1.0
C      1  0.5424250000000  0.4898100000000  0.5810070000000 1.0
C      1  0.4379510000000  0.5417640000000  0.5948170000000 1.0
C      1  0.4043620000000  0.5016040000000  0.4522480000000 1.0
C      1  0.4605520000000  0.5997080000000  0.5021990000000 1.0
C      1  0.6008980000000  0.5351190000000  0.5452170000000 1.0
C      1  0.5961930000000  0.5190800000000  0.4295340000000 1.0
C      1  0.4583630000000  0.5441940000000  0.5679910000000 1.0
C      1  0.4558750000000  0.4484710000000  0.4195820000000 1.0
C      1  0.4812690000000  0.4631520000000  0.3924640000000 1.0
C      1  0.4869180000000  0.5631030000000  0.5157290000000 1.0
C      1  0.4810230000000  0.5264580000000  0.5861460000000 1.0
C      1  0.4487150000000  0.5055880000000  0.3889400000000 1.0
C      1  0.4174270000000  0.4898120000000  0.4814180000000 1.0
C      1  0.4630810000000  0.4835160000000  0.5686220000000 1.0
C      1  0.5896680000000  0.4480190000000  0.4787040000000 1.0
C      1  0.4771620000000  0.4923600000000  0.4914080000000 1.0
C      1  0.4759210000000  0.3916660000000  0.5585180000000 1.0
C      1  0.5086460000000  0.5174060000000  0.5103200000000 1.0
C      1  0.4804940000000  0.4621040000000  0.5496930000000 1.0
C      1  0.4388920000000  0.5205600000000  0.5531630000000 1.0
C      1  0.4630640000000  0.5002390000000  0.5982330000000 1.0
C      1  0.5111130000000  0.5154740000000  0.4578050000000 1.0
C      1  0.5176230000000  0.4071040000000  0.4426980000000 1.0
C      1  0.4961930000000  0.4160050000000  0.5662730000000 1.0
C      1  0.4137800000000  0.4199010000000  0.5518120000000 1.0
C      1  0.4817650000000  0.5774610000000  0.4877180000000 1.0
C      1  0.4883500000000  0.4053780000000  0.4259720000000 1.0
C      1  0.5240650000000  0.5249330000000  0.5758280000000 1.0
C      1  0.5106230000000  0.4379230000000  0.4293690000000 1.0
C      1  0.5538130000000  0.4545210000000  0.4513970000000 1.0
C      1  0.4500980000000  0.4080720000000  0.4610490000000 1.0
C      1  0.5868090000000  0.4154060000000  0.4696080000000 1.0
C      1  0.5474580000000  0.4555520000000  0.3990860000000 1.0
C      1  0.5289870000000  0.4579830000000  0.5124840000000 1.0
C      1  0.4476610000000  0.4739210000000  0.5102340000000 1.0
C      1  0.5563580000000  0.5206400000000  0.5845200000000 1.0
C      1  0.5083430000000  0.5188550000000  0.6053630000000 1.0
C      1  0.4777120000000  0.5084910000000  0.5213380000000 1.0
C      1  0.4663580000000  0.3899280000000  0.5082630000000 1.0
C      1  0.5745100000000  0.4897210000000  0.5431680000000 1.0
C      1  0.4878960000000  0.4095470000000  0.4901960000000 1.0
C      1  0.5233600000000  0.5274190000000  0.5359670000000 1.0
C      1  0.4606620000000  0.5372610000000  0.4692590000000 1.0
C      1  0.5255740000000  0.4637620000000  0.5921460000000 1.0
C      1  0.5380870000000  0.5243470000000  0.6132160000000 1.0
C      1  0.5279370000000  0.4723850000000  0.4561780000000 1.0
C      1  0.4452800000000  0.5917510000000  0.5785920000000 1.0
C      1  0.4170990000000  0.5690900000000  0.5385500000000 1.0
C      1  0.4323930000000  0.4557990000000  0.4041730000000 1.0
C      1  0.4948330000000  0.5138520000000  0.4093070000000 1.0
C      1  0.5072900000000  0.5971050000000  0.4802820000000 1.0
C      1  0.5675300000000  0.5246230000000  0.4156730000000 1.0
C      1  0.5383250000000  0.5926840000000  0.4831970000000 1.0
C      1  0.4805370000000  0.4099040000000  0.4569800000000 1.0
C      1  0.4112070000000  0.4593520000000  0.5257820000000 1.0
C      1  0.4729480000000  0.4761140000000  0.4227760000000 1.0
C      1  0.5835840000000  0.4786470000000  0.4839920000000 1.0
C      1  0.5336980000000  0.4190450000000  0.5284170000000 1.0
C      1  0.4390040000000  0.5485930000000  0.4928950000000 1.0
C      1  0.5813860000000  0.4371270000000  0.4473890000000 1.0
C      1  0.4807640000000  0.5139080000000  0.4703750000000 1.0
C      1  0.5739110000000  0.4740140000000  0.4343220000000 1.0
C      1  0.4874270000000  0.5451960000000  0.4005180000000 1.0
C      1  0.5513470000000  0.5614340000000  0.4871920000000 1.0
C      1  0.5213120000000  0.5504880000000  0.5608700000000 1.0
C      1  0.4771570000000  0.4750200000000  0.4621480000000 1.0
C      1  0.5087260000000  0.5681440000000  0.5828390000000 1.0
C      1  0.4671130000000  0.4357920000000  0.4842100000000 1.0
C      1  0.6044250000000  0.5288330000000  0.5156710000000 1.0
C      1  0.4503340000000  0.4254160000000  0.5362770000000 1.0
C      1  0.5770190000000  0.5827140000000  0.4816930000000 1.0
C      1  0.3954110000000  0.5005910000000  0.5302440000000 1.0
C      1  0.4758820000000  0.4600500000000  0.4989000000000 1.0
C      1  0.4396310000000  0.5227510000000  0.4159570000000 1.0
C      1  0.4023390000000  0.4621120000000  0.4470250000000 1.0
C      1  0.4522970000000  0.4431830000000  0.5912950000000 1.0
C      1  0.4264710000000  0.4578690000000  0.4889970000000 1.0
C      1  0.5200730000000  0.5663930000000  0.5165110000000 1.0
C      1  0.4716050000000  0.5754210000000  0.5707520000000 1.0
C      1  0.6121470000000  0.4771830000000  0.5389790000000 1.0
C      1  0.5873010000000  0.4650790000000  0.5581420000000 1.0
C      1  0.4763090000000  0.5639090000000  0.4266530000000 1.0
C      1  0.5649230000000  0.4420070000000  0.5712110000000 1.0
C      1  0.4622600000000  0.5933470000000  0.4362920000000 1.0
C      1  0.5880380000000  0.5149560000000  0.4682410000000 1.0
C      1  0.4450590000000  0.5508100000000  0.4238420000000 1.0
C      1  0.4488880000000  0.5911460000000  0.5299510000000 1.0
C      1  0.5462390000000  0.5643620000000  0.5333860000000 1.0
C      1  0.4195120000000  0.5738310000000  0.5079220000000 1.0
C      1  0.4479900000000  0.4086620000000  0.4915840000000 1.0
C      1  0.4314100000000  0.4679930000000  0.5474000000000 1.0
C      1  0.5547850000000  0.5355380000000  0.5449890000000 1.0
C      1  0.4957900000000  0.4893410000000  0.5428860000000 1.0
C      1  0.6134890000000  0.5529280000000  0.4990560000000 1.0
C      1  0.3996020000000  0.5272660000000  0.5231550000000 1.0
C      1  0.4082280000000  0.4297630000000  0.5265530000000 1.0
C      1  0.5962410000000  0.4908010000000  0.4470100000000 1.0
C      1  0.5189160000000  0.4871130000000  0.5021270000000 1.0
C      1  0.5411980000000  0.5029420000000  0.4630050000000 1.0
C      1  0.5529870000000  0.5276780000000  0.4833970000000 1.0
C      1  0.5045590000000  0.4387840000000  0.5873390000000 1.0
C      1  0.4812860000000  0.4323870000000  0.5422660000000 1.0
C      1  0.4380440000000  0.4384240000000  0.5629120000000 1.0
C      1  0.4403790000000  0.5200010000000  0.6079480000000 1.0
C      1  0.5441530000000  0.5029350000000  0.5434190000000 1.0
C      1  0.4908650000000  0.6113750000000  0.5064670000000 1.0
C      1  0.4345570000000  0.4301810000000  0.4505310000000 1.0
C      1  0.4201360000000  0.5479970000000  0.4643420000000 1.0
C      1  0.5680680000000  0.5520690000000  0.5788560000000 1.0
C      1  0.4290790000000  0.5939650000000  0.5559070000000 1.0
C      1  0.5540820000000  0.4028180000000  0.5097590000000 1.0
END
