TITL C-2847948-6138-627 -0.00462382345832524 125000 -815.331205701248 0 0 144 (C1) n - 1
REM
REM in /home/bkarasulu/work/CARBON/AIRSS/Generating-Clusters/AIREBO/with-SteepDescent/Only-C1/SD-CG-opt/Try1-1.4A-POS3A/HFTN-CG
REM
REM
REM
REM
REM
REM ./C.cell (11c1c37f851c82e70ff6c80c92926a4b)
REM
REM compiler GCC version 9.2.1 20190827 (Red Hat 9.2.1-1)
REM options -cpp -mtune=generic -march=x86-64 -g -O0 -fpre-include=/usr/include/finclude/math-vector-fortran.h
REM seed 1290710982 2066895319 1902335827 1073667659 1868545961 -889207138 402779197 1434200533 -628219288 -58076776 1252426098 4069883 2084194089 -1609914617 -324025155 1938241351 -1388102820 696634465 903009715 403835022 -1271277069 -331689212 -487097095 -1605835098 1307812849 -1602951283 -86594729 -1659423227 -1010128840 11418653 -1534942586 -1626538706 -241599352
REM
CELL 1.54180   50.00000   50.00000   50.00000   90.00000   90.00000   90.00000
LATT -1
SFAC C  
C      1  0.4634780000000  0.5227930000000  0.5442310000000 1.0
C      1  0.4290660000000  0.4365870000000  0.4454140000000 1.0
C      1  0.5056250000000  0.4586700000000  0.5479190000000 1.0
C      1  0.4869360000000  0.4375880000000  0.4482930000000 1.0
C      1  0.4942620000000  0.5813710000000  0.4376470000000 1.0
C      1  0.5003260000000  0.6099500000000  0.4808550000000 1.0
C      1  0.5272970000000  0.4018190000000  0.4871630000000 1.0
C      1  0.4669190000000  0.4894410000000  0.5796900000000 1.0
C      1  0.4472520000000  0.5874420000000  0.4925300000000 1.0
C      1  0.5178890000000  0.5999960000000  0.4534970000000 1.0
C      1  0.4687670000000  0.5881810000000  0.5114480000000 1.0
C      1  0.4670290000000  0.4124240000000  0.5798700000000 1.0
C      1  0.5780280000000  0.4912710000000  0.4678310000000 1.0
C      1  0.4824100000000  0.4688070000000  0.5911070000000 1.0
C      1  0.5209960000000  0.4170060000000  0.5345340000000 1.0
C      1  0.5190400000000  0.5869110000000  0.5541610000000 1.0
C      1  0.5561000000000  0.5448700000000  0.4610430000000 1.0
C      1  0.5210980000000  0.4666620000000  0.4405550000000 1.0
C      1  0.4963160000000  0.4201890000000  0.5809190000000 1.0
C      1  0.5559860000000  0.4458160000000  0.5296310000000 1.0
C      1  0.5215590000000  0.5643510000000  0.5719870000000 1.0
C      1  0.4313170000000  0.4966010000000  0.4884270000000 1.0
C      1  0.4855560000000  0.4473400000000  0.5700490000000 1.0
C      1  0.4659250000000  0.5674520000000  0.5292120000000 1.0
C      1  0.5139670000000  0.4838900000000  0.4000610000000 1.0
C      1  0.4153360000000  0.4622810000000  0.5440400000000 1.0
C      1  0.4553110000000  0.5692820000000  0.4674450000000 1.0
C      1  0.5137180000000  0.5053500000000  0.5222850000000 1.0
C      1  0.5605090000000  0.4457050000000  0.4479920000000 1.0
C      1  0.4249360000000  0.5506240000000  0.5630350000000 1.0
C      1  0.4268080000000  0.5271760000000  0.4740420000000 1.0
C      1  0.4259600000000  0.4175440000000  0.5005200000000 1.0
C      1  0.4836350000000  0.5331340000000  0.4937100000000 1.0
C      1  0.5759590000000  0.5442920000000  0.4265980000000 1.0
C      1  0.5020270000000  0.4259390000000  0.4677960000000 1.0
C      1  0.4982140000000  0.5913190000000  0.5043430000000 1.0
C      1  0.4287930000000  0.5596140000000  0.4847430000000 1.0
C      1  0.3857330000000  0.4980070000000  0.4804710000000 1.0
C      1  0.4103220000000  0.4770550000000  0.4714950000000 1.0
C      1  0.4801590000000  0.5029180000000  0.5222560000000 1.0
C      1  0.5378230000000  0.4935410000000  0.4648920000000 1.0
C      1  0.4556830000000  0.4457610000000  0.4892280000000 1.0
C      1  0.5124930000000  0.5724700000000  0.4720960000000 1.0
C      1  0.4045170000000  0.5450760000000  0.5018760000000 1.0
C      1  0.4781090000000  0.5427260000000  0.5214470000000 1.0
C      1  0.4635390000000  0.4552080000000  0.4588610000000 1.0
C      1  0.4539540000000  0.4038730000000  0.4922220000000 1.0
C      1  0.5454700000000  0.5487960000000  0.5683710000000 1.0
C      1  0.6034000000000  0.5199980000000  0.5038850000000 1.0
C      1  0.4095140000000  0.5370870000000  0.5336800000000 1.0
C      1  0.3793120000000  0.4675350000000  0.4820570000000 1.0
C      1  0.5392940000000  0.4614460000000  0.5044640000000 1.0
C      1  0.5371960000000  0.5672850000000  0.4493070000000 1.0
C      1  0.4921250000000  0.4648300000000  0.5203230000000 1.0
C      1  0.4962160000000  0.5282000000000  0.5517980000000 1.0
C      1  0.5091290000000  0.5320960000000  0.4495240000000 1.0
C      1  0.5047010000000  0.4180040000000  0.5067580000000 1.0
C      1  0.4518050000000  0.5131820000000  0.5067360000000 1.0
C      1  0.4622140000000  0.5163520000000  0.5879400000000 1.0
C      1  0.5837520000000  0.4569660000000  0.5400990000000 1.0
C      1  0.6042020000000  0.5465530000000  0.4844590000000 1.0
C      1  0.5356440000000  0.4939710000000  0.4988330000000 1.0
C      1  0.4225500000000  0.4693310000000  0.4459320000000 1.0
C      1  0.5556170000000  0.4962540000000  0.5675060000000 1.0
C      1  0.4306670000000  0.5144860000000  0.5477640000000 1.0
C      1  0.5751740000000  0.5191840000000  0.4849370000000 1.0
C      1  0.4860150000000  0.5300040000000  0.5961330000000 1.0
C      1  0.5185540000000  0.5367150000000  0.5275520000000 1.0
C      1  0.4389270000000  0.5378590000000  0.5166400000000 1.0
C      1  0.5236360000000  0.4211910000000  0.5778310000000 1.0
C      1  0.5865940000000  0.4732600000000  0.4875510000000 1.0
C      1  0.5060030000000  0.5538710000000  0.4282100000000 1.0
C      1  0.5820590000000  0.4843730000000  0.4226420000000 1.0
C      1  0.5591060000000  0.4789290000000  0.4427470000000 1.0
C      1  0.4857330000000  0.4970160000000  0.4126870000000 1.0
C      1  0.5362410000000  0.5060390000000  0.5932430000000 1.0
C      1  0.4943070000000  0.5418660000000  0.3994290000000 1.0
C      1  0.5028210000000  0.4487190000000  0.4288520000000 1.0
C      1  0.5674230000000  0.4531260000000  0.4920790000000 1.0
C      1  0.4875480000000  0.5062700000000  0.4446900000000 1.0
C      1  0.4989160000000  0.5473400000000  0.5768560000000 1.0
C      1  0.6043260000000  0.4859980000000  0.5052600000000 1.0
C      1  0.5064900000000  0.5093860000000  0.6082710000000 1.0
C      1  0.4658710000000  0.4699040000000  0.4075070000000 1.0
C      1  0.5382440000000  0.5218810000000  0.4537790000000 1.0
C      1  0.4462770000000  0.5218290000000  0.4128630000000 1.0
C      1  0.4249640000000  0.4330490000000  0.5523330000000 1.0
C      1  0.5523880000000  0.5590320000000  0.4892630000000 1.0
C      1  0.4503060000000  0.4259920000000  0.5611780000000 1.0
C      1  0.5347940000000  0.4817750000000  0.4191460000000 1.0
C      1  0.5131960000000  0.4471430000000  0.4913950000000 1.0
C      1  0.5330780000000  0.4427060000000  0.5532430000000 1.0
C      1  0.4691740000000  0.5629460000000  0.4404810000000 1.0
C      1  0.4606640000000  0.4882800000000  0.4551730000000 1.0
C      1  0.5059520000000  0.4775910000000  0.6030630000000 1.0
C      1  0.4738390000000  0.5022690000000  0.4832300000000 1.0
C      1  0.4398050000000  0.5618030000000  0.5401170000000 1.0
C      1  0.4369040000000  0.4952140000000  0.4318450000000 1.0
C      1  0.5132400000000  0.5607770000000  0.5040600000000 1.0
C      1  0.6004790000000  0.4786610000000  0.5342810000000 1.0
C      1  0.5065300000000  0.4897680000000  0.5487670000000 1.0
C      1  0.5266130000000  0.5505240000000  0.4025040000000 1.0
C      1  0.5457250000000  0.4663030000000  0.5742660000000 1.0
C      1  0.5637870000000  0.4340490000000  0.4722440000000 1.0
C      1  0.5433980000000  0.5270090000000  0.4941790000000 1.0
C      1  0.6008390000000  0.5728330000000  0.4921490000000 1.0
C      1  0.5563290000000  0.4067980000000  0.4851100000000 1.0
C      1  0.4229160000000  0.4403280000000  0.5191840000000 1.0
C      1  0.4675460000000  0.5337680000000  0.4442000000000 1.0
C      1  0.5665650000000  0.4996580000000  0.5114170000000 1.0
C      1  0.4378170000000  0.5241840000000  0.4463590000000 1.0
C      1  0.4999350000000  0.3964190000000  0.4736440000000 1.0
C      1  0.3947480000000  0.5228160000000  0.4839720000000 1.0
C      1  0.4356930000000  0.4676920000000  0.5035580000000 1.0
C      1  0.4389100000000  0.4245230000000  0.4697880000000 1.0
C      1  0.5718290000000  0.3849560000000  0.4769540000000 1.0
C      1  0.4587620000000  0.4693310000000  0.5251630000000 1.0
C      1  0.5631040000000  0.4186550000000  0.5143340000000 1.0
C      1  0.5474220000000  0.5390940000000  0.5399480000000 1.0
C      1  0.5637450000000  0.5125890000000  0.5415350000000 1.0
C      1  0.4733560000000  0.4848440000000  0.5502480000000 1.0
C      1  0.5484300000000  0.5542370000000  0.4230040000000 1.0
C      1  0.5070720000000  0.4849930000000  0.4619230000000 1.0
C      1  0.5311400000000  0.4660380000000  0.5980070000000 1.0
C      1  0.4684900000000  0.4415290000000  0.5421460000000 1.0
C      1  0.5868160000000  0.5378620000000  0.4583100000000 1.0
C      1  0.5954560000000  0.5097950000000  0.5354080000000 1.0
C      1  0.4403640000000  0.5283130000000  0.5764020000000 1.0
C      1  0.4492280000000  0.4574980000000  0.4281030000000 1.0
C      1  0.5484100000000  0.5877110000000  0.5166260000000 1.0
C      1  0.5567500000000  0.5286730000000  0.5845040000000 1.0
C      1  0.5140480000000  0.5342090000000  0.4828540000000 1.0
C      1  0.5745600000000  0.5831140000000  0.4961940000000 1.0
C      1  0.4795110000000  0.3968770000000  0.4965030000000 1.0
C      1  0.4938480000000  0.4592470000000  0.4034950000000 1.0
C      1  0.4925630000000  0.4742280000000  0.4885310000000 1.0
C      1  0.5591960000000  0.5586050000000  0.5220100000000 1.0
C      1  0.4770250000000  0.4375380000000  0.5096970000000 1.0
C      1  0.4873440000000  0.6128100000000  0.4494220000000 1.0
C      1  0.4738040000000  0.5227560000000  0.4019970000000 1.0
C      1  0.5226730000000  0.5928010000000  0.5264110000000 1.0
C      1  0.4150980000000  0.4875880000000  0.5502780000000 1.0
C      1  0.5101510000000  0.5071300000000  0.5740030000000 1.0
C      1  0.4839190000000  0.5596130000000  0.4771810000000 1.0
END
