TITL C-2847945-6269-415 9.21438045001007e-06 125000 -860.705353832021 0 0 161 (C1) n - 1
REM
REM in /home/bkarasulu/work/CARBON/AIRSS/Generating-Clusters/AIREBO/with-SteepDescent/Only-C1/SD-CG-opt/Try1-1.4A-POS3A/HFTN-CG
REM
REM
REM
REM
REM
REM ./C.cell (11c1c37f851c82e70ff6c80c92926a4b)
REM
REM compiler GCC version 9.2.1 20190827 (Red Hat 9.2.1-1)
REM options -cpp -mtune=generic -march=x86-64 -g -O0 -fpre-include=/usr/include/finclude/math-vector-fortran.h
REM seed -2046098535 -2016070536 1824307035 -1117126704 1205491053 972423546 852321996 -394562508 -1438449267 -267957014 2040408730 -618096647 -1855853207 262455375 1344680877 -1440558578 736997810 -57798896 -550545301 -1910790705 -1974201146 -1518001209 -451250852 -2066717468 -1366478244 2143865742 843635869 148252459 1360385660 1237281364 72217074 963215163 -1885394617
REM
CELL 1.54180   50.00000   50.00000   50.00000   90.00000   90.00000   90.00000
LATT -1
SFAC C  
C      1  0.5445930000000  0.5234890000000  0.5392650000000 1.0
C      1  0.4769220000000  0.6150230000000  0.4711680000000 1.0
C      1  0.4008860000000  0.5545480000000  0.5175330000000 1.0
C      1  0.4650960000000  0.5642700000000  0.5685250000000 1.0
C      1  0.4299840000000  0.5477140000000  0.5310510000000 1.0
C      1  0.4666370000000  0.5201390000000  0.5684440000000 1.0
C      1  0.6080000000000  0.5079910000000  0.4866940000000 1.0
C      1  0.5758100000000  0.5022900000000  0.4242810000000 1.0
C      1  0.5092980000000  0.4523850000000  0.5550950000000 1.0
C      1  0.5441650000000  0.5861740000000  0.4665660000000 1.0
C      1  0.5405040000000  0.4973470000000  0.4757980000000 1.0
C      1  0.4943160000000  0.4587460000000  0.5333670000000 1.0
C      1  0.5676770000000  0.4474890000000  0.4198320000000 1.0
C      1  0.5496060000000  0.4984420000000  0.5086250000000 1.0
C      1  0.5071420000000  0.5426510000000  0.6034260000000 1.0
C      1  0.5067540000000  0.4984010000000  0.4717180000000 1.0
C      1  0.5457800000000  0.4479560000000  0.4661280000000 1.0
C      1  0.4719120000000  0.5778790000000  0.4537780000000 1.0
C      1  0.5162620000000  0.5117950000000  0.6049510000000 1.0
C      1  0.4544400000000  0.4608110000000  0.5314260000000 1.0
C      1  0.4898630000000  0.6030700000000  0.5338920000000 1.0
C      1  0.5772770000000  0.4493800000000  0.4583350000000 1.0
C      1  0.5957750000000  0.5353880000000  0.4810090000000 1.0
C      1  0.5365540000000  0.4653080000000  0.5579050000000 1.0
C      1  0.4463730000000  0.5180500000000  0.5339090000000 1.0
C      1  0.5908180000000  0.4597030000000  0.4814370000000 1.0
C      1  0.4938170000000  0.4643280000000  0.5989000000000 1.0
C      1  0.5173040000000  0.4665720000000  0.4660320000000 1.0
C      1  0.5422410000000  0.5407740000000  0.4094080000000 1.0
C      1  0.4779960000000  0.5150290000000  0.4746140000000 1.0
C      1  0.5670390000000  0.5296250000000  0.4442920000000 1.0
C      1  0.4430460000000  0.4053360000000  0.4682430000000 1.0
C      1  0.4224740000000  0.4987970000000  0.4619320000000 1.0
C      1  0.4682730000000  0.4703770000000  0.4032360000000 1.0
C      1  0.4170040000000  0.5301300000000  0.5642180000000 1.0
C      1  0.4420310000000  0.4785040000000  0.4203910000000 1.0
C      1  0.5466710000000  0.4086110000000  0.4367130000000 1.0
C      1  0.5193260000000  0.4003740000000  0.4806570000000 1.0
C      1  0.5195930000000  0.4829370000000  0.5091150000000 1.0
C      1  0.4834380000000  0.5188300000000  0.6090680000000 1.0
C      1  0.4053070000000  0.4521440000000  0.4837260000000 1.0
C      1  0.4566520000000  0.5843440000000  0.5068670000000 1.0
C      1  0.5087880000000  0.5575530000000  0.4388730000000 1.0
C      1  0.4904300000000  0.3982960000000  0.4392430000000 1.0
C      1  0.4734490000000  0.4416680000000  0.4513730000000 1.0
C      1  0.4802840000000  0.4877960000000  0.4266380000000 1.0
C      1  0.4917080000000  0.3944530000000  0.4677250000000 1.0
C      1  0.4672610000000  0.3990580000000  0.4809370000000 1.0
C      1  0.4260070000000  0.5145980000000  0.5091900000000 1.0
C      1  0.4501400000000  0.4843520000000  0.4993850000000 1.0
C      1  0.4326430000000  0.4655180000000  0.5643460000000 1.0
C      1  0.5003900000000  0.5115150000000  0.4163290000000 1.0
C      1  0.4973370000000  0.4926010000000  0.5323380000000 1.0
C      1  0.5137870000000  0.5576980000000  0.5815900000000 1.0
C      1  0.4812400000000  0.4931020000000  0.5622900000000 1.0
C      1  0.4880000000000  0.4692240000000  0.4512630000000 1.0
C      1  0.5921170000000  0.5330450000000  0.5372030000000 1.0
C      1  0.5740290000000  0.5217450000000  0.5127210000000 1.0
C      1  0.4384490000000  0.4111870000000  0.5102760000000 1.0
C      1  0.5843290000000  0.5599010000000  0.5187710000000 1.0
C      1  0.5535800000000  0.6128000000000  0.4860960000000 1.0
C      1  0.4448980000000  0.5134920000000  0.4826530000000 1.0
C      1  0.4279760000000  0.5482400000000  0.4499490000000 1.0
C      1  0.5065640000000  0.5735010000000  0.5333690000000 1.0
C      1  0.4425250000000  0.4332210000000  0.4499120000000 1.0
C      1  0.5080440000000  0.4403400000000  0.4166520000000 1.0
C      1  0.5217600000000  0.4626630000000  0.6046420000000 1.0
C      1  0.4523970000000  0.4883140000000  0.5492830000000 1.0
C      1  0.5229750000000  0.4901930000000  0.4033420000000 1.0
C      1  0.5498150000000  0.4998880000000  0.5875360000000 1.0
C      1  0.4569850000000  0.5319000000000  0.6054010000000 1.0
C      1  0.5533420000000  0.5695390000000  0.5175740000000 1.0
C      1  0.4833030000000  0.6155150000000  0.4466960000000 1.0
C      1  0.5537470000000  0.4896240000000  0.4468460000000 1.0
C      1  0.4993290000000  0.5901900000000  0.4377110000000 1.0
C      1  0.4788520000000  0.5863980000000  0.4859540000000 1.0
C      1  0.4269920000000  0.5422330000000  0.4795270000000 1.0
C      1  0.5143640000000  0.5179420000000  0.5458780000000 1.0
C      1  0.4416150000000  0.4729080000000  0.4541320000000 1.0
C      1  0.5939820000000  0.4449470000000  0.5160410000000 1.0
C      1  0.4617040000000  0.5987160000000  0.5327140000000 1.0
C      1  0.5101490000000  0.4390060000000  0.4811680000000 1.0
C      1  0.4687640000000  0.5528480000000  0.5110710000000 1.0
C      1  0.5426720000000  0.5513950000000  0.5677880000000 1.0
C      1  0.4402980000000  0.5174510000000  0.5845290000000 1.0
C      1  0.5460340000000  0.4207280000000  0.4865560000000 1.0
C      1  0.4706410000000  0.4152990000000  0.5075380000000 1.0
C      1  0.5221600000000  0.4107260000000  0.5366110000000 1.0
C      1  0.5943770000000  0.4943130000000  0.4587000000000 1.0
C      1  0.4755280000000  0.4652500000000  0.5068690000000 1.0
C      1  0.5055130000000  0.4239700000000  0.5704510000000 1.0
C      1  0.4954640000000  0.5717970000000  0.5654700000000 1.0
C      1  0.4530760000000  0.5166920000000  0.4241180000000 1.0
C      1  0.5373480000000  0.4411910000000  0.4338780000000 1.0
C      1  0.5284470000000  0.5210060000000  0.5756370000000 1.0
C      1  0.5337340000000  0.4727150000000  0.4289680000000 1.0
C      1  0.4651630000000  0.5415330000000  0.4235510000000 1.0
C      1  0.5705580000000  0.5131730000000  0.4739970000000 1.0
C      1  0.4688330000000  0.5418160000000  0.5432610000000 1.0
C      1  0.4887380000000  0.4252770000000  0.4306440000000 1.0
C      1  0.4853120000000  0.4903000000000  0.5928340000000 1.0
C      1  0.5973640000000  0.5590010000000  0.4948960000000 1.0
C      1  0.5640880000000  0.4603910000000  0.5110830000000 1.0
C      1  0.5317040000000  0.5897760000000  0.4380710000000 1.0
C      1  0.5426840000000  0.4902980000000  0.5409150000000 1.0
C      1  0.4422590000000  0.5918340000000  0.5516260000000 1.0
C      1  0.4535530000000  0.5595940000000  0.4418770000000 1.0
C      1  0.4155700000000  0.4254270000000  0.4687020000000 1.0
C      1  0.5543140000000  0.4435200000000  0.5459270000000 1.0
C      1  0.5151440000000  0.4980390000000  0.4417540000000 1.0
C      1  0.4259370000000  0.5054100000000  0.4145740000000 1.0
C      1  0.5391290000000  0.5157460000000  0.4307110000000 1.0
C      1  0.5463290000000  0.5364260000000  0.4794290000000 1.0
C      1  0.3935260000000  0.5080040000000  0.5044400000000 1.0
C      1  0.4373240000000  0.5596110000000  0.5019820000000 1.0
C      1  0.5815230000000  0.4492310000000  0.5452340000000 1.0
C      1  0.4645510000000  0.4306160000000  0.5368280000000 1.0
C      1  0.5377040000000  0.5721190000000  0.5438400000000 1.0
C      1  0.4996100000000  0.5420010000000  0.5391720000000 1.0
C      1  0.5201720000000  0.4200600000000  0.4546920000000 1.0
C      1  0.4769700000000  0.4401290000000  0.4851660000000 1.0
C      1  0.4074710000000  0.4819680000000  0.5313070000000 1.0
C      1  0.5330910000000  0.5887200000000  0.4986310000000 1.0
C      1  0.5152240000000  0.6096250000000  0.5186480000000 1.0
C      1  0.5315760000000  0.4541670000000  0.5028330000000 1.0
C      1  0.5404770000000  0.4737820000000  0.5865920000000 1.0
C      1  0.4066110000000  0.5142890000000  0.5359710000000 1.0
C      1  0.5165010000000  0.5482300000000  0.4681330000000 1.0
C      1  0.3983870000000  0.5388710000000  0.4938670000000 1.0
C      1  0.5662800000000  0.4144860000000  0.4599360000000 1.0
C      1  0.4716470000000  0.5037150000000  0.5162510000000 1.0
C      1  0.5917100000000  0.4767400000000  0.5278790000000 1.0
C      1  0.4936540000000  0.4192720000000  0.5391570000000 1.0
C      1  0.5666460000000  0.3969690000000  0.4967270000000 1.0
C      1  0.4615990000000  0.4990890000000  0.4494310000000 1.0
C      1  0.5516700000000  0.5087150000000  0.3998910000000 1.0
C      1  0.5343500000000  0.5656250000000  0.4179410000000 1.0
C      1  0.5691440000000  0.5320250000000  0.5587940000000 1.0
C      1  0.4199550000000  0.4963100000000  0.5708940000000 1.0
C      1  0.4222230000000  0.4526510000000  0.5345770000000 1.0
C      1  0.4172510000000  0.5215190000000  0.4405490000000 1.0
C      1  0.4449270000000  0.4502190000000  0.4792630000000 1.0
C      1  0.4580980000000  0.4431750000000  0.5677600000000 1.0
C      1  0.4327540000000  0.5599600000000  0.5588840000000 1.0
C      1  0.6001400000000  0.5038620000000  0.5195280000000 1.0
C      1  0.4921870000000  0.5392480000000  0.4215690000000 1.0
C      1  0.5540840000000  0.5584160000000  0.4569250000000 1.0
C      1  0.3995820000000  0.4856800000000  0.4794690000000 1.0
C      1  0.5867400000000  0.4717080000000  0.4344090000000 1.0
C      1  0.4902730000000  0.5427060000000  0.4867590000000 1.0
C      1  0.5420910000000  0.4280840000000  0.5195850000000 1.0
C      1  0.5296560000000  0.4007780000000  0.5636340000000 1.0
C      1  0.5759490000000  0.4848930000000  0.4921100000000 1.0
C      1  0.4825210000000  0.4433880000000  0.5833760000000 1.0
C      1  0.5009980000000  0.4639020000000  0.4025020000000 1.0
C      1  0.5039470000000  0.5712120000000  0.4993330000000 1.0
C      1  0.5740400000000  0.5116570000000  0.5815860000000 1.0
C      1  0.5483530000000  0.5396320000000  0.5100280000000 1.0
C      1  0.4206450000000  0.4759470000000  0.5024680000000 1.0
C      1  0.4584720000000  0.5589880000000  0.5991830000000 1.0
C      1  0.4270170000000  0.4370260000000  0.5050970000000 1.0
END
