TITL C-2848494-1720-613 0.00020596717413224 125000 -940.655010080328 0 0 176 (C1) n - 1
REM
REM in /home/bkarasulu/work/CARBON/AIRSS/Generating-Clusters/AIREBO/with-SteepDescent/Only-C1/SD-CG-opt/Try1-1.4A-POS3A/HFTN-CG
REM
REM
REM
REM
REM
REM ./C.cell (11c1c37f851c82e70ff6c80c92926a4b)
REM
REM compiler GCC version 9.2.1 20190827 (Red Hat 9.2.1-1)
REM options -cpp -mtune=generic -march=x86-64 -g -O0 -fpre-include=/usr/include/finclude/math-vector-fortran.h
REM seed 775124463 -1901418716 497240354 781689714 -5753348 2071544816 859714043 1952617368 1052022416 -1567068556 -635192574 -858197728 -114272728 -390745601 -1043286480 -559268733 1491075162 -1402276510 1622414510 -2141890225 -601141120 1748120715 -1295726472 -1298235607 332437304 1339351286 -1368032090 2040891641 -61977420 -720591503 -1785164486 -1997888118 -1972231043
REM
CELL 1.54180   50.00000   50.00000   50.00000   90.00000   90.00000   90.00000
LATT -1
SFAC C  
C      1  0.4183110000000  0.5300660000000  0.4220540000000 1.0
C      1  0.4782390000000  0.5419390000000  0.5619500000000 1.0
C      1  0.5341830000000  0.4405370000000  0.4908550000000 1.0
C      1  0.4199920000000  0.4200070000000  0.5262540000000 1.0
C      1  0.4917600000000  0.5138530000000  0.4096000000000 1.0
C      1  0.5122760000000  0.5720810000000  0.4140450000000 1.0
C      1  0.4312910000000  0.5774860000000  0.5573230000000 1.0
C      1  0.5069960000000  0.4643300000000  0.5146270000000 1.0
C      1  0.4095870000000  0.4519610000000  0.5209730000000 1.0
C      1  0.5797770000000  0.5345840000000  0.4293690000000 1.0
C      1  0.5938650000000  0.4660530000000  0.5723700000000 1.0
C      1  0.4350590000000  0.4631580000000  0.5014330000000 1.0
C      1  0.5382250000000  0.5094450000000  0.4309050000000 1.0
C      1  0.4476320000000  0.5630120000000  0.5060480000000 1.0
C      1  0.4604450000000  0.4852430000000  0.5063300000000 1.0
C      1  0.4723020000000  0.4544350000000  0.6016670000000 1.0
C      1  0.5919190000000  0.5177660000000  0.4928330000000 1.0
C      1  0.3894620000000  0.5257490000000  0.5424940000000 1.0
C      1  0.6014950000000  0.4618930000000  0.5448980000000 1.0
C      1  0.5100860000000  0.5256280000000  0.3876950000000 1.0
C      1  0.5900230000000  0.5446000000000  0.5244090000000 1.0
C      1  0.4659290000000  0.4233360000000  0.4248990000000 1.0
C      1  0.4892710000000  0.6051280000000  0.5159050000000 1.0
C      1  0.5290460000000  0.5815250000000  0.4982920000000 1.0
C      1  0.4161220000000  0.4836530000000  0.4514700000000 1.0
C      1  0.3942130000000  0.4985770000000  0.5455450000000 1.0
C      1  0.5644020000000  0.4324020000000  0.5492340000000 1.0
C      1  0.5180800000000  0.5316200000000  0.4963550000000 1.0
C      1  0.4628570000000  0.5016920000000  0.4530650000000 1.0
C      1  0.4406260000000  0.4470040000000  0.5643660000000 1.0
C      1  0.4058120000000  0.5156970000000  0.4807050000000 1.0
C      1  0.4509880000000  0.4787020000000  0.5961220000000 1.0
C      1  0.5245550000000  0.3980390000000  0.5007950000000 1.0
C      1  0.4895020000000  0.5730150000000  0.4390610000000 1.0
C      1  0.5403880000000  0.5533820000000  0.5100050000000 1.0
C      1  0.5648520000000  0.5158910000000  0.4152960000000 1.0
C      1  0.5661120000000  0.5755920000000  0.5114530000000 1.0
C      1  0.5115600000000  0.5302070000000  0.4318870000000 1.0
C      1  0.4894120000000  0.5377700000000  0.4566660000000 1.0
C      1  0.5486750000000  0.4934560000000  0.5626970000000 1.0
C      1  0.5674050000000  0.6010010000000  0.4907500000000 1.0
C      1  0.5291250000000  0.5419580000000  0.5964180000000 1.0
C      1  0.4253090000000  0.5301190000000  0.5044310000000 1.0
C      1  0.5293360000000  0.5039000000000  0.3831920000000 1.0
C      1  0.4465760000000  0.5488890000000  0.4237630000000 1.0
C      1  0.5541920000000  0.4147100000000  0.5003440000000 1.0
C      1  0.4311430000000  0.5482580000000  0.5589610000000 1.0
C      1  0.5352420000000  0.5470060000000  0.4141770000000 1.0
C      1  0.5422220000000  0.4542800000000  0.5578990000000 1.0
C      1  0.4455810000000  0.5859530000000  0.5296020000000 1.0
C      1  0.4966070000000  0.4152750000000  0.5096210000000 1.0
C      1  0.5324740000000  0.5172290000000  0.5313110000000 1.0
C      1  0.5731450000000  0.5232550000000  0.5732090000000 1.0
C      1  0.4478860000000  0.4675900000000  0.5398140000000 1.0
C      1  0.5486130000000  0.4656910000000  0.4831000000000 1.0
C      1  0.5791360000000  0.4400580000000  0.4820520000000 1.0
C      1  0.4490320000000  0.4999670000000  0.5416990000000 1.0
C      1  0.4549230000000  0.4830110000000  0.4008810000000 1.0
C      1  0.4109230000000  0.4873880000000  0.5687950000000 1.0
C      1  0.5372210000000  0.5163820000000  0.4619030000000 1.0
C      1  0.4383600000000  0.5093010000000  0.4732200000000 1.0
C      1  0.5505250000000  0.4665530000000  0.4491570000000 1.0
C      1  0.4766820000000  0.4273600000000  0.4644170000000 1.0
C      1  0.4941640000000  0.5536340000000  0.4863840000000 1.0
C      1  0.5131950000000  0.4474000000000  0.5415560000000 1.0
C      1  0.5380430000000  0.5397540000000  0.5636800000000 1.0
C      1  0.4849280000000  0.6236880000000  0.4532640000000 1.0
C      1  0.5168570000000  0.5415950000000  0.5396110000000 1.0
C      1  0.4377090000000  0.5750840000000  0.4612290000000 1.0
C      1  0.4020720000000  0.4452070000000  0.4877410000000 1.0
C      1  0.5031980000000  0.4508540000000  0.5880530000000 1.0
C      1  0.4404950000000  0.5033500000000  0.5743140000000 1.0
C      1  0.5589160000000  0.5464120000000  0.5376660000000 1.0
C      1  0.4411520000000  0.4753720000000  0.4729510000000 1.0
C      1  0.5367250000000  0.4628890000000  0.4191150000000 1.0
C      1  0.4648810000000  0.4715230000000  0.5665150000000 1.0
C      1  0.5148400000000  0.4946650000000  0.5171350000000 1.0
C      1  0.4032120000000  0.4853370000000  0.5197000000000 1.0
C      1  0.4152980000000  0.4500000000000  0.4562550000000 1.0
C      1  0.5032000000000  0.5573380000000  0.5978810000000 1.0
C      1  0.3890030000000  0.4964910000000  0.4940940000000 1.0
C      1  0.5636580000000  0.4368150000000  0.4591330000000 1.0
C      1  0.5606520000000  0.5292920000000  0.5947490000000 1.0
C      1  0.4991710000000  0.3879700000000  0.4812720000000 1.0
C      1  0.5482690000000  0.4284650000000  0.4351290000000 1.0
C      1  0.5221700000000  0.3955040000000  0.5337690000000 1.0
C      1  0.4195250000000  0.5726350000000  0.4895090000000 1.0
C      1  0.4485150000000  0.4112430000000  0.5209820000000 1.0
C      1  0.4976400000000  0.4172170000000  0.5433280000000 1.0
C      1  0.5080740000000  0.4891720000000  0.5500040000000 1.0
C      1  0.4808420000000  0.5016640000000  0.5369650000000 1.0
C      1  0.5987380000000  0.5235560000000  0.4471100000000 1.0
C      1  0.4772690000000  0.5467790000000  0.6013770000000 1.0
C      1  0.5629940000000  0.5490690000000  0.4751510000000 1.0
C      1  0.5886290000000  0.5574260000000  0.4956530000000 1.0
C      1  0.4429790000000  0.4453320000000  0.4370290000000 1.0
C      1  0.4980230000000  0.4601420000000  0.4584750000000 1.0
C      1  0.5077400000000  0.5530750000000  0.3862110000000 1.0
C      1  0.5770350000000  0.4904890000000  0.4107860000000 1.0
C      1  0.4972880000000  0.4133650000000  0.5760410000000 1.0
C      1  0.3980820000000  0.5448690000000  0.4443390000000 1.0
C      1  0.5181390000000  0.5993930000000  0.5216010000000 1.0
C      1  0.5790380000000  0.4707620000000  0.4950940000000 1.0
C      1  0.4901120000000  0.5163990000000  0.5083110000000 1.0
C      1  0.4958490000000  0.5540500000000  0.5204070000000 1.0
C      1  0.5960170000000  0.4946970000000  0.4527710000000 1.0
C      1  0.4669980000000  0.5403000000000  0.5154790000000 1.0
C      1  0.4471540000000  0.5413420000000  0.4807800000000 1.0
C      1  0.4846480000000  0.4848840000000  0.4043560000000 1.0
C      1  0.4780050000000  0.5007750000000  0.4816990000000 1.0
C      1  0.4883500000000  0.4444920000000  0.4988590000000 1.0
C      1  0.4934970000000  0.4652010000000  0.5627150000000 1.0
C      1  0.5079820000000  0.4337920000000  0.4760600000000 1.0
C      1  0.5221910000000  0.4845070000000  0.5981730000000 1.0
C      1  0.6090120000000  0.4898230000000  0.5327530000000 1.0
C      1  0.4700160000000  0.5259430000000  0.4313580000000 1.0
C      1  0.4667040000000  0.4284380000000  0.5410150000000 1.0
C      1  0.5645340000000  0.5131240000000  0.5418920000000 1.0
C      1  0.5307850000000  0.5518440000000  0.4497410000000 1.0
C      1  0.5184050000000  0.4342130000000  0.4197310000000 1.0
C      1  0.5951150000000  0.4905030000000  0.4798530000000 1.0
C      1  0.5107030000000  0.5053500000000  0.4759660000000 1.0
C      1  0.4928410000000  0.4158470000000  0.4297850000000 1.0
C      1  0.5253240000000  0.4317820000000  0.5770300000000 1.0
C      1  0.4729970000000  0.5942170000000  0.5360690000000 1.0
C      1  0.5027970000000  0.4565330000000  0.3993760000000 1.0
C      1  0.5221160000000  0.5849570000000  0.5496020000000 1.0
C      1  0.4965280000000  0.6033100000000  0.4633400000000 1.0
C      1  0.5181220000000  0.5794680000000  0.4561700000000 1.0
C      1  0.5261730000000  0.5112640000000  0.5779970000000 1.0
C      1  0.6027440000000  0.5175130000000  0.5220170000000 1.0
C      1  0.4139260000000  0.5750700000000  0.5215890000000 1.0
C      1  0.5485550000000  0.5804060000000  0.4713290000000 1.0
C      1  0.4477890000000  0.4127240000000  0.4878660000000 1.0
C      1  0.5797000000000  0.4786800000000  0.4365420000000 1.0
C      1  0.4695490000000  0.4328850000000  0.5753840000000 1.0
C      1  0.5210220000000  0.4806030000000  0.4585950000000 1.0
C      1  0.5529550000000  0.5795010000000  0.5427450000000 1.0
C      1  0.4642680000000  0.5598850000000  0.4577290000000 1.0
C      1  0.5419370000000  0.4654330000000  0.5900360000000 1.0
C      1  0.4963500000000  0.4012850000000  0.4561370000000 1.0
C      1  0.5693060000000  0.4754910000000  0.5807070000000 1.0
C      1  0.5350020000000  0.4313730000000  0.5223240000000 1.0
C      1  0.4431180000000  0.5098110000000  0.4181610000000 1.0
C      1  0.4122920000000  0.4575380000000  0.5544750000000 1.0
C      1  0.4126040000000  0.5441160000000  0.5313810000000 1.0
C      1  0.5451540000000  0.4907370000000  0.5022470000000 1.0
C      1  0.5596360000000  0.5952750000000  0.4428300000000 1.0
C      1  0.4073550000000  0.5658950000000  0.4591450000000 1.0
C      1  0.4953730000000  0.4654950000000  0.4285460000000 1.0
C      1  0.4688250000000  0.4554620000000  0.5204870000000 1.0
C      1  0.5777790000000  0.4865230000000  0.5242990000000 1.0
C      1  0.5867460000000  0.4393930000000  0.5328400000000 1.0
C      1  0.4340560000000  0.4369020000000  0.4808840000000 1.0
C      1  0.4912330000000  0.5706810000000  0.5492070000000 1.0
C      1  0.5368400000000  0.4888150000000  0.4067390000000 1.0
C      1  0.4641590000000  0.4567330000000  0.4594520000000 1.0
C      1  0.5627400000000  0.5556020000000  0.4417510000000 1.0
C      1  0.4726200000000  0.3952510000000  0.5017010000000 1.0
C      1  0.4072260000000  0.5125790000000  0.4484520000000 1.0
C      1  0.5470510000000  0.4781130000000  0.5339470000000 1.0
C      1  0.5845250000000  0.4249200000000  0.5074150000000 1.0
C      1  0.4541240000000  0.5325470000000  0.5424420000000 1.0
C      1  0.4570130000000  0.3998190000000  0.4610940000000 1.0
C      1  0.6039850000000  0.5392960000000  0.4714750000000 1.0
C      1  0.4520430000000  0.5342610000000  0.5822250000000 1.0
C      1  0.4203820000000  0.4804450000000  0.5996760000000 1.0
C      1  0.4964270000000  0.5169710000000  0.5633300000000 1.0
C      1  0.4978840000000  0.5864110000000  0.4898520000000 1.0
C      1  0.4310620000000  0.5007960000000  0.5141730000000 1.0
C      1  0.5449640000000  0.5776690000000  0.4229060000000 1.0
C      1  0.5053190000000  0.5788470000000  0.5790650000000 1.0
C      1  0.5593100000000  0.5162390000000  0.4844770000000 1.0
C      1  0.4442190000000  0.4793900000000  0.4333250000000 1.0
C      1  0.5490970000000  0.4077480000000  0.5423220000000 1.0
C      1  0.4994230000000  0.4713410000000  0.6138720000000 1.0
END
