TITL C-2848504-8560-239 0.001288412689068 125000 -581.727837856593 0 0 107 (C1) n - 1
REM
REM in /home/bkarasulu/work/CARBON/AIRSS/Generating-Clusters/AIREBO/with-SteepDescent/Only-C1/SD-CG-opt/Try1-1.4A-POS3A/HFTN-CG
REM
REM
REM
REM
REM
REM ./C.cell (11c1c37f851c82e70ff6c80c92926a4b)
REM
REM compiler GCC version 9.2.1 20190827 (Red Hat 9.2.1-1)
REM options -cpp -mtune=generic -march=x86-64 -g -O0 -fpre-include=/usr/include/finclude/math-vector-fortran.h
REM seed 1016280145 957742101 -742506444 -1118354348 20515669 -2020112438 663206250 -1611022436 1585312577 -97795245 -913599937 -1954781484 -1377130657 1646689806 947590442 1963012622 -687124537 164769209 819257471 2071748317 1715071116 -163054666 -470473603 -1317742635 -2118496468 1018345927 105033357 681740131 -1759020123 1066465069 2133890661 738937451 2093289178
REM
CELL 1.54180   50.00000   50.00000   50.00000   90.00000   90.00000   90.00000
LATT -1
SFAC C  
C      1  0.4508800000000  0.4272830000000  0.4472220000000 1.0
C      1  0.5749920000000  0.4756930000000  0.5394110000000 1.0
C      1  0.4318240000000  0.4504960000000  0.5031280000000 1.0
C      1  0.5009030000000  0.5708760000000  0.5444200000000 1.0
C      1  0.5603790000000  0.4262260000000  0.5018820000000 1.0
C      1  0.5080380000000  0.4524340000000  0.4361980000000 1.0
C      1  0.5621600000000  0.4803550000000  0.4417210000000 1.0
C      1  0.5949650000000  0.4795080000000  0.4748580000000 1.0
C      1  0.4863200000000  0.4470870000000  0.5346300000000 1.0
C      1  0.5529510000000  0.4549850000000  0.4581390000000 1.0
C      1  0.4646550000000  0.5598840000000  0.5087110000000 1.0
C      1  0.5380810000000  0.5226230000000  0.4382730000000 1.0
C      1  0.4505580000000  0.4892630000000  0.4560880000000 1.0
C      1  0.4358450000000  0.5754910000000  0.5094170000000 1.0
C      1  0.5048600000000  0.5186080000000  0.5112060000000 1.0
C      1  0.6004470000000  0.5352660000000  0.4788200000000 1.0
C      1  0.4184610000000  0.4783380000000  0.4534080000000 1.0
C      1  0.5100110000000  0.4336470000000  0.5638640000000 1.0
C      1  0.4649740000000  0.4118960000000  0.5019930000000 1.0
C      1  0.4982160000000  0.4980910000000  0.4521380000000 1.0
C      1  0.4762510000000  0.5587380000000  0.5590240000000 1.0
C      1  0.4573700000000  0.5402620000000  0.4512610000000 1.0
C      1  0.4969020000000  0.5249070000000  0.5543130000000 1.0
C      1  0.4591780000000  0.4797780000000  0.5671360000000 1.0
C      1  0.5120770000000  0.4271760000000  0.5318830000000 1.0
C      1  0.5043550000000  0.4563090000000  0.5720870000000 1.0
C      1  0.4927040000000  0.4795030000000  0.4800720000000 1.0
C      1  0.4737640000000  0.5105330000000  0.5000230000000 1.0
C      1  0.5651880000000  0.5081040000000  0.5426780000000 1.0
C      1  0.5320380000000  0.4520310000000  0.5360130000000 1.0
C      1  0.6045070000000  0.5378300000000  0.5057260000000 1.0
C      1  0.4353560000000  0.4505670000000  0.4498360000000 1.0
C      1  0.4227970000000  0.5501690000000  0.4848770000000 1.0
C      1  0.5532740000000  0.5628550000000  0.5432610000000 1.0
C      1  0.5402950000000  0.4685440000000  0.5005680000000 1.0
C      1  0.4400060000000  0.5757360000000  0.4769830000000 1.0
C      1  0.4166040000000  0.4541360000000  0.4766640000000 1.0
C      1  0.4573480000000  0.4193530000000  0.4736280000000 1.0
C      1  0.5325750000000  0.5826730000000  0.5230790000000 1.0
C      1  0.4901620000000  0.5686960000000  0.4880210000000 1.0
C      1  0.5429750000000  0.5530360000000  0.4806490000000 1.0
C      1  0.5569820000000  0.5331930000000  0.4598640000000 1.0
C      1  0.5598610000000  0.5011920000000  0.5126370000000 1.0
C      1  0.4300880000000  0.5133950000000  0.4208080000000 1.0
C      1  0.4463110000000  0.4608450000000  0.5511440000000 1.0
C      1  0.5824220000000  0.5227710000000  0.4607140000000 1.0
C      1  0.4759290000000  0.4977440000000  0.4264610000000 1.0
C      1  0.5025320000000  0.5863960000000  0.5144190000000 1.0
C      1  0.5354690000000  0.5054820000000  0.5507620000000 1.0
C      1  0.4580700000000  0.5301400000000  0.5187880000000 1.0
C      1  0.5252450000000  0.5105240000000  0.4673440000000 1.0
C      1  0.4302390000000  0.5264000000000  0.4670700000000 1.0
C      1  0.5126090000000  0.4514400000000  0.5001650000000 1.0
C      1  0.5708330000000  0.5692240000000  0.4844380000000 1.0
C      1  0.5371590000000  0.4122390000000  0.4830960000000 1.0
C      1  0.5114520000000  0.5421550000000  0.4875400000000 1.0
C      1  0.4249480000000  0.5006560000000  0.5416760000000 1.0
C      1  0.4647170000000  0.5286890000000  0.5480610000000 1.0
C      1  0.4605850000000  0.4389870000000  0.5411950000000 1.0
C      1  0.4739820000000  0.4726360000000  0.4155860000000 1.0
C      1  0.5409450000000  0.4931290000000  0.4298130000000 1.0
C      1  0.4355110000000  0.4973470000000  0.4840100000000 1.0
C      1  0.4826940000000  0.5389590000000  0.5821510000000 1.0
C      1  0.4476380000000  0.4265000000000  0.5191530000000 1.0
C      1  0.4993150000000  0.4962070000000  0.5362310000000 1.0
C      1  0.5986600000000  0.5439690000000  0.5315030000000 1.0
C      1  0.5298770000000  0.5007630000000  0.4966100000000 1.0
C      1  0.5434310000000  0.5539320000000  0.5131340000000 1.0
C      1  0.4578750000000  0.5189040000000  0.4259100000000 1.0
C      1  0.5618420000000  0.4258920000000  0.4690270000000 1.0
C      1  0.5732660000000  0.5391760000000  0.5496510000000 1.0
C      1  0.5251320000000  0.5150470000000  0.5808450000000 1.0
C      1  0.5800780000000  0.4867530000000  0.5013900000000 1.0
C      1  0.4890460000000  0.4823000000000  0.5655260000000 1.0
C      1  0.4129170000000  0.5180440000000  0.5230010000000 1.0
C      1  0.4171450000000  0.5079510000000  0.4446810000000 1.0
C      1  0.5076430000000  0.5864780000000  0.4665060000000 1.0
C      1  0.4931060000000  0.5485110000000  0.5223810000000 1.0
C      1  0.4959480000000  0.5369720000000  0.4612280000000 1.0
C      1  0.5695280000000  0.4611290000000  0.4848520000000 1.0
C      1  0.5312470000000  0.5785630000000  0.4624600000000 1.0
C      1  0.5567520000000  0.5269620000000  0.5767540000000 1.0
C      1  0.5263360000000  0.4774670000000  0.5427480000000 1.0
C      1  0.5237160000000  0.5421670000000  0.5603780000000 1.0
C      1  0.4896510000000  0.4415860000000  0.4695600000000 1.0
C      1  0.4286740000000  0.5427130000000  0.5158570000000 1.0
C      1  0.4080970000000  0.5047220000000  0.4992730000000 1.0
C      1  0.5217260000000  0.4526690000000  0.4673680000000 1.0
C      1  0.5845400000000  0.4949630000000  0.4531620000000 1.0
C      1  0.5165640000000  0.4803160000000  0.4325500000000 1.0
C      1  0.4944160000000  0.4222790000000  0.5045640000000 1.0
C      1  0.4717070000000  0.5137360000000  0.4666060000000 1.0
C      1  0.4672140000000  0.5143360000000  0.5898830000000 1.0
C      1  0.4462040000000  0.5084040000000  0.5641330000000 1.0
C      1  0.5598870000000  0.4509930000000  0.5221240000000 1.0
C      1  0.4644200000000  0.5661820000000  0.4659200000000 1.0
C      1  0.4728990000000  0.4674550000000  0.4551890000000 1.0
C      1  0.4762070000000  0.4428890000000  0.4319150000000 1.0
C      1  0.5274640000000  0.5737240000000  0.5614280000000 1.0
C      1  0.4981180000000  0.5029400000000  0.5875760000000 1.0
C      1  0.5305250000000  0.5308810000000  0.5298260000000 1.0
C      1  0.5105430000000  0.4161940000000  0.4783520000000 1.0
C      1  0.5111730000000  0.5393560000000  0.4382380000000 1.0
C      1  0.4349140000000  0.4748150000000  0.5266910000000 1.0
C      1  0.4583200000000  0.4803460000000  0.5026540000000 1.0
C      1  0.4897730000000  0.4729540000000  0.5133150000000 1.0
C      1  0.4626370000000  0.4493290000000  0.4887970000000 1.0
END
