TITL C-2848497-6229-704 -0.000489720590374641 125000 -827.148417801155 0 0 154 (C1) n - 1
REM
REM in /home/bkarasulu/work/CARBON/AIRSS/Generating-Clusters/AIREBO/with-SteepDescent/Only-C1/SD-CG-opt/Try1-1.4A-POS3A/HFTN-CG
REM
REM
REM
REM
REM
REM ./C.cell (11c1c37f851c82e70ff6c80c92926a4b)
REM
REM compiler GCC version 9.2.1 20190827 (Red Hat 9.2.1-1)
REM options -cpp -mtune=generic -march=x86-64 -g -O0 -fpre-include=/usr/include/finclude/math-vector-fortran.h
REM seed 685292138 1348475049 1828809959 -294921233 1145742068 1742323374 955667781 477957478 190557472 1751469584 -2031691954 1883779736 -255925146 -1956113294 -2018206968 1541664017 708094481 -2102718675 -376274447 1465436902 -1631433780 343156293 877619348 -182545467 -667729033 -2121424474 -1797192144 1449370632 498686869 788848644 -425984097 -1103682373 667672109
REM
CELL 1.54180   50.00000   50.00000   50.00000   90.00000   90.00000   90.00000
LATT -1
SFAC C  
C      1  0.4478710000000  0.4714960000000  0.5516320000000 1.0
C      1  0.4093270000000  0.5408270000000  0.4929360000000 1.0
C      1  0.5743750000000  0.5034580000000  0.5571720000000 1.0
C      1  0.4491080000000  0.4408620000000  0.4720160000000 1.0
C      1  0.5103940000000  0.4461870000000  0.5292240000000 1.0
C      1  0.5438470000000  0.5548560000000  0.4046730000000 1.0
C      1  0.4534910000000  0.5182970000000  0.5116660000000 1.0
C      1  0.4434810000000  0.5559880000000  0.5539940000000 1.0
C      1  0.5413750000000  0.4193120000000  0.4841600000000 1.0
C      1  0.4999770000000  0.5237830000000  0.5740780000000 1.0
C      1  0.5156210000000  0.4055560000000  0.4666860000000 1.0
C      1  0.5981160000000  0.5458410000000  0.5406400000000 1.0
C      1  0.4892790000000  0.4993510000000  0.4766590000000 1.0
C      1  0.4773800000000  0.5677980000000  0.5714740000000 1.0
C      1  0.4974690000000  0.4413170000000  0.4403350000000 1.0
C      1  0.4282950000000  0.3996420000000  0.4858060000000 1.0
C      1  0.5554950000000  0.4808730000000  0.5642830000000 1.0
C      1  0.5102110000000  0.5544150000000  0.4005230000000 1.0
C      1  0.4536030000000  0.5020150000000  0.3988770000000 1.0
C      1  0.5400070000000  0.5728740000000  0.5456630000000 1.0
C      1  0.5553760000000  0.4638450000000  0.4381920000000 1.0
C      1  0.5045010000000  0.4742520000000  0.5135880000000 1.0
C      1  0.4838250000000  0.4484670000000  0.5796060000000 1.0
C      1  0.5805600000000  0.4864060000000  0.5075160000000 1.0
C      1  0.5097130000000  0.5251940000000  0.4310130000000 1.0
C      1  0.4081120000000  0.5078970000000  0.5313030000000 1.0
C      1  0.4539940000000  0.5341890000000  0.4605240000000 1.0
C      1  0.4808100000000  0.5135450000000  0.5961020000000 1.0
C      1  0.5294500000000  0.4473240000000  0.4361920000000 1.0
C      1  0.5855470000000  0.5415260000000  0.4420420000000 1.0
C      1  0.4814740000000  0.5588780000000  0.4190260000000 1.0
C      1  0.5944260000000  0.5010040000000  0.4881290000000 1.0
C      1  0.3873430000000  0.4583910000000  0.4884060000000 1.0
C      1  0.5665490000000  0.5539550000000  0.4896640000000 1.0
C      1  0.5379360000000  0.4543440000000  0.6001490000000 1.0
C      1  0.4627340000000  0.4444970000000  0.5538500000000 1.0
C      1  0.4690380000000  0.4165110000000  0.5110160000000 1.0
C      1  0.4765270000000  0.4816220000000  0.5588430000000 1.0
C      1  0.5560010000000  0.5861820000000  0.4923480000000 1.0
C      1  0.4779680000000  0.4337700000000  0.4839070000000 1.0
C      1  0.4790620000000  0.4147700000000  0.5741530000000 1.0
C      1  0.5686720000000  0.5304260000000  0.5399250000000 1.0
C      1  0.4169830000000  0.4659710000000  0.5001950000000 1.0
C      1  0.5152980000000  0.4497150000000  0.4055710000000 1.0
C      1  0.4099310000000  0.5406620000000  0.4471600000000 1.0
C      1  0.5438890000000  0.4866880000000  0.5934100000000 1.0
C      1  0.5517310000000  0.4753670000000  0.4933770000000 1.0
C      1  0.5007490000000  0.4926770000000  0.4266090000000 1.0
C      1  0.5573550000000  0.5388830000000  0.4307850000000 1.0
C      1  0.4590840000000  0.4454420000000  0.5223150000000 1.0
C      1  0.4865090000000  0.5776690000000  0.3932410000000 1.0
C      1  0.5475560000000  0.5454070000000  0.5555870000000 1.0
C      1  0.4643960000000  0.5339140000000  0.6047720000000 1.0
C      1  0.5749710000000  0.5238050000000  0.5844200000000 1.0
C      1  0.5180050000000  0.5248340000000  0.5144080000000 1.0
C      1  0.4791940000000  0.4937000000000  0.4003260000000 1.0
C      1  0.5754730000000  0.5239040000000  0.4764830000000 1.0
C      1  0.5218860000000  0.4794560000000  0.4048480000000 1.0
C      1  0.4470020000000  0.3955370000000  0.5054010000000 1.0
C      1  0.4148080000000  0.5124530000000  0.4654540000000 1.0
C      1  0.4842300000000  0.5920270000000  0.5295720000000 1.0
C      1  0.4264580000000  0.5267690000000  0.5501800000000 1.0
C      1  0.5111420000000  0.5580850000000  0.5354590000000 1.0
C      1  0.5204310000000  0.4040140000000  0.5061550000000 1.0
C      1  0.5166680000000  0.5818730000000  0.4874230000000 1.0
C      1  0.4059890000000  0.4838010000000  0.4391850000000 1.0
C      1  0.5103310000000  0.4361770000000  0.5617350000000 1.0
C      1  0.4162310000000  0.5104820000000  0.4994070000000 1.0
C      1  0.4455790000000  0.4726750000000  0.4699280000000 1.0
C      1  0.5157640000000  0.5138790000000  0.4844790000000 1.0
C      1  0.4935810000000  0.4209030000000  0.4593260000000 1.0
C      1  0.4292560000000  0.5550910000000  0.4708750000000 1.0
C      1  0.4794800000000  0.4665630000000  0.4313620000000 1.0
C      1  0.4975790000000  0.5848100000000  0.4593360000000 1.0
C      1  0.5299860000000  0.5216380000000  0.5460680000000 1.0
C      1  0.5496030000000  0.4392310000000  0.5316710000000 1.0
C      1  0.4563500000000  0.5530930000000  0.5854040000000 1.0
C      1  0.4256640000000  0.4506880000000  0.5259910000000 1.0
C      1  0.4302940000000  0.4234850000000  0.5437130000000 1.0
C      1  0.4419610000000  0.5072210000000  0.4492350000000 1.0
C      1  0.4251050000000  0.5465070000000  0.4236890000000 1.0
C      1  0.5217950000000  0.4900730000000  0.4531980000000 1.0
C      1  0.5925000000000  0.4891100000000  0.5361540000000 1.0
C      1  0.5347160000000  0.5711190000000  0.5141660000000 1.0
C      1  0.5622870000000  0.5817820000000  0.4614170000000 1.0
C      1  0.5472210000000  0.5085600000000  0.4875520000000 1.0
C      1  0.4802040000000  0.4797120000000  0.5925900000000 1.0
C      1  0.3804300000000  0.5128020000000  0.5351660000000 1.0
C      1  0.5093460000000  0.4759120000000  0.5655770000000 1.0
C      1  0.5236650000000  0.5035410000000  0.5724990000000 1.0
C      1  0.5397510000000  0.5634810000000  0.4434600000000 1.0
C      1  0.4274800000000  0.4627390000000  0.4466140000000 1.0
C      1  0.4865370000000  0.4655910000000  0.4796260000000 1.0
C      1  0.4484520000000  0.4903970000000  0.5866980000000 1.0
C      1  0.6098210000000  0.4885500000000  0.4633980000000 1.0
C      1  0.5323870000000  0.4651050000000  0.5455930000000 1.0
C      1  0.5243060000000  0.4442920000000  0.4696650000000 1.0
C      1  0.6027660000000  0.5178270000000  0.5233920000000 1.0
C      1  0.5355760000000  0.5561150000000  0.4757530000000 1.0
C      1  0.4632540000000  0.5143890000000  0.5406620000000 1.0
C      1  0.4943220000000  0.4056280000000  0.5239440000000 1.0
C      1  0.4556970000000  0.5535450000000  0.4325980000000 1.0
C      1  0.4705250000000  0.4716810000000  0.5081620000000 1.0
C      1  0.6027320000000  0.4444100000000  0.5214240000000 1.0
C      1  0.5859950000000  0.5626260000000  0.4607870000000 1.0
C      1  0.4694930000000  0.5885030000000  0.4654570000000 1.0
C      1  0.5567500000000  0.4426230000000  0.5010640000000 1.0
C      1  0.5567560000000  0.4867770000000  0.4227530000000 1.0
C      1  0.4322310000000  0.4202790000000  0.4680520000000 1.0
C      1  0.5399380000000  0.4383480000000  0.5742690000000 1.0
C      1  0.5193760000000  0.4737580000000  0.4829910000000 1.0
C      1  0.5059770000000  0.6069410000000  0.5089420000000 1.0
C      1  0.4460800000000  0.5093500000000  0.5641830000000 1.0
C      1  0.5038090000000  0.5536680000000  0.5678270000000 1.0
C      1  0.4489200000000  0.4163810000000  0.5651040000000 1.0
C      1  0.5943110000000  0.4590910000000  0.5431920000000 1.0
C      1  0.4646560000000  0.5840420000000  0.4927580000000 1.0
C      1  0.5277590000000  0.5255940000000  0.4039400000000 1.0
C      1  0.5544690000000  0.5427660000000  0.5851780000000 1.0
C      1  0.4170350000000  0.4793850000000  0.5413830000000 1.0
C      1  0.4918150000000  0.5075600000000  0.5486420000000 1.0
C      1  0.4740890000000  0.5276470000000  0.4872000000000 1.0
C      1  0.5123260000000  0.4754820000000  0.6002690000000 1.0
C      1  0.5416720000000  0.4996600000000  0.3992560000000 1.0
C      1  0.5671050000000  0.4499970000000  0.5572730000000 1.0
C      1  0.4423170000000  0.4886540000000  0.4992780000000 1.0
C      1  0.4094100000000  0.5562910000000  0.5174640000000 1.0
C      1  0.4334940000000  0.4927540000000  0.4212940000000 1.0
C      1  0.4893800000000  0.5714930000000  0.5048490000000 1.0
C      1  0.5939110000000  0.5469740000000  0.5086230000000 1.0
C      1  0.4929340000000  0.5457210000000  0.4692930000000 1.0
C      1  0.4250240000000  0.4733920000000  0.5767460000000 1.0
C      1  0.5456550000000  0.4102130000000  0.5256680000000 1.0
C      1  0.4422600000000  0.5488530000000  0.5215240000000 1.0
C      1  0.4043050000000  0.4828980000000  0.4731330000000 1.0
C      1  0.4470380000000  0.5782060000000  0.4513890000000 1.0
C      1  0.5288850000000  0.5563070000000  0.5891650000000 1.0
C      1  0.5887840000000  0.4476630000000  0.4969220000000 1.0
C      1  0.4974580000000  0.4076340000000  0.5514910000000 1.0
C      1  0.4678150000000  0.4889590000000  0.4541340000000 1.0
C      1  0.5930970000000  0.4638980000000  0.4732840000000 1.0
C      1  0.4869920000000  0.4623840000000  0.3971840000000 1.0
C      1  0.5587010000000  0.5284310000000  0.5117960000000 1.0
C      1  0.5082190000000  0.4346610000000  0.4994070000000 1.0
C      1  0.5127950000000  0.4973040000000  0.5290090000000 1.0
C      1  0.4925080000000  0.5424860000000  0.5116340000000 1.0
C      1  0.5975040000000  0.5161090000000  0.4519050000000 1.0
C      1  0.4469100000000  0.4612300000000  0.4231800000000 1.0
C      1  0.5274400000000  0.5291050000000  0.4595920000000 1.0
C      1  0.5455860000000  0.5101550000000  0.4394460000000 1.0
C      1  0.4416020000000  0.5696160000000  0.4978640000000 1.0
C      1  0.5063170000000  0.5575250000000  0.4410120000000 1.0
C      1  0.4669320000000  0.5808790000000  0.5477480000000 1.0
C      1  0.5655580000000  0.4665280000000  0.4635900000000 1.0
END
