TITL C-2847951-7423-54 0.000247407244505479 125000 -351.915553344819 0 0 65 (C1) n - 1
REM
REM in /home/bkarasulu/work/CARBON/AIRSS/Generating-Clusters/AIREBO/with-SteepDescent/Only-C1/SD-CG-opt/Try1-1.4A-POS3A/HFTN-CG
REM
REM
REM
REM
REM
REM ./C.cell (11c1c37f851c82e70ff6c80c92926a4b)
REM
REM compiler GCC version 9.2.1 20190827 (Red Hat 9.2.1-1)
REM options -cpp -mtune=generic -march=x86-64 -g -O0 -fpre-include=/usr/include/finclude/math-vector-fortran.h
REM seed 1391691074 37236443 -1585465245 1405050349 -127786676 -1663489633 -1486571492 1142093706 -2044597837 -1292794257 -124597451 2071061877 1282257018 -1907446264 -593609079 -1121986765 -1428789779 -815613489 1683610819 -118391232 972057939 1835741475 -2036367871 1038709564 1441181134 661519438 108445990 935468289 -2020376677 -1519473337 -1159190486 -926558517 1511673761
REM
CELL 1.54180   50.00000   50.00000   50.00000   90.00000   90.00000   90.00000
LATT -1
SFAC C  
C      1  0.5296630000000  0.4738870000000  0.4357930000000 1.0
C      1  0.4606980000000  0.4619700000000  0.5470950000000 1.0
C      1  0.4317500000000  0.4863240000000  0.4688680000000 1.0
C      1  0.5421520000000  0.5725900000000  0.4835730000000 1.0
C      1  0.4682940000000  0.4528220000000  0.4588170000000 1.0
C      1  0.4800420000000  0.4994950000000  0.5757070000000 1.0
C      1  0.4487860000000  0.4876450000000  0.5189530000000 1.0
C      1  0.5561460000000  0.4919200000000  0.5636670000000 1.0
C      1  0.4481830000000  0.4538550000000  0.5169060000000 1.0
C      1  0.5615180000000  0.5289630000000  0.4910120000000 1.0
C      1  0.5249610000000  0.4695850000000  0.5457610000000 1.0
C      1  0.4625810000000  0.5097720000000  0.4589680000000 1.0
C      1  0.5577870000000  0.4873590000000  0.5129170000000 1.0
C      1  0.4464580000000  0.5405670000000  0.4881860000000 1.0
C      1  0.5301600000000  0.5031030000000  0.5666800000000 1.0
C      1  0.5190370000000  0.4497840000000  0.4467790000000 1.0
C      1  0.5190670000000  0.5337740000000  0.4601910000000 1.0
C      1  0.4803790000000  0.4903150000000  0.4292170000000 1.0
C      1  0.4795350000000  0.4890890000000  0.5248020000000 1.0
C      1  0.5197130000000  0.5473110000000  0.5377050000000 1.0
C      1  0.4565860000000  0.4775770000000  0.5703360000000 1.0
C      1  0.5212380000000  0.5161270000000  0.5370720000000 1.0
C      1  0.4658400000000  0.4510030000000  0.4891930000000 1.0
C      1  0.4921920000000  0.4700340000000  0.4858220000000 1.0
C      1  0.5397380000000  0.5387860000000  0.4351650000000 1.0
C      1  0.5216620000000  0.4290150000000  0.5242610000000 1.0
C      1  0.4910460000000  0.4429620000000  0.4445760000000 1.0
C      1  0.4742830000000  0.5308120000000  0.5651030000000 1.0
C      1  0.5082970000000  0.4418140000000  0.4957370000000 1.0
C      1  0.5456720000000  0.4457190000000  0.5081920000000 1.0
C      1  0.4560140000000  0.4792480000000  0.4491900000000 1.0
C      1  0.5105120000000  0.4860870000000  0.5793260000000 1.0
C      1  0.4964910000000  0.5465730000000  0.5618930000000 1.0
C      1  0.4898580000000  0.5252720000000  0.4460970000000 1.0
C      1  0.5553610000000  0.5547300000000  0.5011660000000 1.0
C      1  0.5467390000000  0.4708600000000  0.4853140000000 1.0
C      1  0.5199450000000  0.4676890000000  0.5144690000000 1.0
C      1  0.4520720000000  0.5324810000000  0.4358510000000 1.0
C      1  0.4963000000000  0.5656880000000  0.5236870000000 1.0
C      1  0.4918210000000  0.4628480000000  0.5421310000000 1.0
C      1  0.5014900000000  0.5314960000000  0.4890600000000 1.0
C      1  0.5373060000000  0.5101330000000  0.4764840000000 1.0
C      1  0.5134230000000  0.4551060000000  0.5742790000000 1.0
C      1  0.4637000000000  0.5136350000000  0.4895660000000 1.0
C      1  0.5568200000000  0.4747760000000  0.5405760000000 1.0
C      1  0.4937780000000  0.5009990000000  0.4991530000000 1.0
C      1  0.5179200000000  0.5646520000000  0.4744690000000 1.0
C      1  0.5267980000000  0.5002130000000  0.5073000000000 1.0
C      1  0.4160570000000  0.5097220000000  0.4672340000000 1.0
C      1  0.5767810000000  0.5105750000000  0.5052030000000 1.0
C      1  0.4198090000000  0.5334740000000  0.4815240000000 1.0
C      1  0.5091160000000  0.4983530000000  0.4433930000000 1.0
C      1  0.4951150000000  0.5024230000000  0.5467350000000 1.0
C      1  0.5560430000000  0.5167840000000  0.4307750000000 1.0
C      1  0.4702540000000  0.5525230000000  0.4498400000000 1.0
C      1  0.5174270000000  0.4828230000000  0.4725400000000 1.0
C      1  0.4648030000000  0.5592630000000  0.4767890000000 1.0
C      1  0.5476490000000  0.5571980000000  0.5284410000000 1.0
C      1  0.5486750000000  0.4952550000000  0.4480900000000 1.0
C      1  0.4334000000000  0.4739930000000  0.4935590000000 1.0
C      1  0.4907440000000  0.5614210000000  0.4932160000000 1.0
C      1  0.5295850000000  0.4447580000000  0.4720530000000 1.0
C      1  0.4549430000000  0.5316610000000  0.5444110000000 1.0
C      1  0.4524100000000  0.5191010000000  0.5211870000000 1.0
C      1  0.5073810000000  0.4342080000000  0.5479450000000 1.0
END
