TITL C-2847948-6138-262 0.000834610805040383 125000 -861.15283673122 0 0 159 (C1) n - 1
REM
REM in /home/bkarasulu/work/CARBON/AIRSS/Generating-Clusters/AIREBO/with-SteepDescent/Only-C1/SD-CG-opt/Try1-1.4A-POS3A/HFTN-CG
REM
REM
REM
REM
REM
REM ./C.cell (11c1c37f851c82e70ff6c80c92926a4b)
REM
REM compiler GCC version 9.2.1 20190827 (Red Hat 9.2.1-1)
REM options -cpp -mtune=generic -march=x86-64 -g -O0 -fpre-include=/usr/include/finclude/math-vector-fortran.h
REM seed 964369621 -1906811854 -1771513021 -2119739817 50384830 -1584896074 1244940703 -1111450200 -1590540462 1054505739 -163153103 958021786 -1787043735 1294518118 -1944808958 96075092 1079643013 1056314399 1011772466 1834066645 854929950 1057403631 -629501843 -674616723 -1646924949 433388481 -602439431 1117036448 1413045190 -1387993089 964262969 -849857558 -1451627630
REM
CELL 1.54180   50.00000   50.00000   50.00000   90.00000   90.00000   90.00000
LATT -1
SFAC C  
C      1  0.4423800000000  0.5609470000000  0.4997990000000 1.0
C      1  0.4243620000000  0.5328000000000  0.4430980000000 1.0
C      1  0.3714660000000  0.5361450000000  0.4338760000000 1.0
C      1  0.4391670000000  0.4894020000000  0.4541440000000 1.0
C      1  0.4887550000000  0.5389190000000  0.4543770000000 1.0
C      1  0.4953780000000  0.5639880000000  0.4323540000000 1.0
C      1  0.5037590000000  0.5017540000000  0.5717990000000 1.0
C      1  0.5802690000000  0.5262150000000  0.4483300000000 1.0
C      1  0.4679140000000  0.5247320000000  0.6106900000000 1.0
C      1  0.5678160000000  0.5450950000000  0.5442950000000 1.0
C      1  0.5122160000000  0.5918390000000  0.5167810000000 1.0
C      1  0.4788970000000  0.5478000000000  0.5060940000000 1.0
C      1  0.6203010000000  0.4905090000000  0.5590990000000 1.0
C      1  0.5114500000000  0.4152070000000  0.5039010000000 1.0
C      1  0.4474810000000  0.5538270000000  0.5299970000000 1.0
C      1  0.5393900000000  0.4423440000000  0.5361040000000 1.0
C      1  0.4334140000000  0.5074850000000  0.5569350000000 1.0
C      1  0.5191030000000  0.4700950000000  0.4265690000000 1.0
C      1  0.3940440000000  0.5205480000000  0.4370290000000 1.0
C      1  0.5309410000000  0.4431890000000  0.5786590000000 1.0
C      1  0.4638890000000  0.5292160000000  0.6376470000000 1.0
C      1  0.4582610000000  0.5304520000000  0.4418990000000 1.0
C      1  0.5102720000000  0.5608030000000  0.5768520000000 1.0
C      1  0.4251120000000  0.4529260000000  0.4456810000000 1.0
C      1  0.5999650000000  0.5028820000000  0.5434670000000 1.0
C      1  0.4961790000000  0.4516740000000  0.4114770000000 1.0
C      1  0.4492380000000  0.5102040000000  0.4071350000000 1.0
C      1  0.5398850000000  0.4256820000000  0.4388370000000 1.0
C      1  0.4658230000000  0.5722020000000  0.5520240000000 1.0
C      1  0.5585710000000  0.4764530000000  0.5037650000000 1.0
C      1  0.4579610000000  0.4639420000000  0.5358650000000 1.0
C      1  0.4648080000000  0.5477380000000  0.4768940000000 1.0
C      1  0.4560190000000  0.4577670000000  0.5692570000000 1.0
C      1  0.5452260000000  0.5940470000000  0.5502440000000 1.0
C      1  0.5813900000000  0.5024690000000  0.4699350000000 1.0
C      1  0.5916140000000  0.5298970000000  0.5848140000000 1.0
C      1  0.5796230000000  0.4787970000000  0.5303670000000 1.0
C      1  0.4607550000000  0.5236360000000  0.5216930000000 1.0
C      1  0.5627740000000  0.5326320000000  0.5129610000000 1.0
C      1  0.5899360000000  0.5315590000000  0.4977780000000 1.0
C      1  0.5477480000000  0.5605530000000  0.5055060000000 1.0
C      1  0.5695760000000  0.4711420000000  0.4374880000000 1.0
C      1  0.5382280000000  0.5520010000000  0.5595760000000 1.0
C      1  0.4962390000000  0.5580050000000  0.5307440000000 1.0
C      1  0.5946260000000  0.5317620000000  0.6107820000000 1.0
C      1  0.5430750000000  0.4961950000000  0.5701520000000 1.0
C      1  0.5272830000000  0.5755090000000  0.4291170000000 1.0
C      1  0.5238280000000  0.5500420000000  0.4868160000000 1.0
C      1  0.4954820000000  0.5045060000000  0.5184520000000 1.0
C      1  0.4688490000000  0.4139580000000  0.5516960000000 1.0
C      1  0.4466550000000  0.4515000000000  0.4234800000000 1.0
C      1  0.5117190000000  0.4919750000000  0.4500920000000 1.0
C      1  0.4813270000000  0.5117090000000  0.4895730000000 1.0
C      1  0.5865180000000  0.5264620000000  0.5589910000000 1.0
C      1  0.4811550000000  0.4871920000000  0.4469420000000 1.0
C      1  0.5802840000000  0.4476780000000  0.4588360000000 1.0
C      1  0.5236800000000  0.4966740000000  0.4816000000000 1.0
C      1  0.4467870000000  0.5560070000000  0.4226130000000 1.0
C      1  0.3995240000000  0.5373820000000  0.5399460000000 1.0
C      1  0.3622310000000  0.4988480000000  0.4896100000000 1.0
C      1  0.4934680000000  0.3946820000000  0.4991090000000 1.0
C      1  0.5447800000000  0.4639130000000  0.4189310000000 1.0
C      1  0.5249490000000  0.4275510000000  0.4808390000000 1.0
C      1  0.4890040000000  0.5450600000000  0.4070620000000 1.0
C      1  0.5146060000000  0.5213150000000  0.5891370000000 1.0
C      1  0.4956880000000  0.4198800000000  0.5528220000000 1.0
C      1  0.4560030000000  0.4307270000000  0.4579160000000 1.0
C      1  0.4351560000000  0.4349160000000  0.5204950000000 1.0
C      1  0.5490130000000  0.5020940000000  0.4595520000000 1.0
C      1  0.4268980000000  0.4233940000000  0.5502580000000 1.0
C      1  0.5089510000000  0.5006030000000  0.3921800000000 1.0
C      1  0.4658780000000  0.4641690000000  0.4935690000000 1.0
C      1  0.4263050000000  0.5309390000000  0.5422550000000 1.0
C      1  0.5614460000000  0.4242770000000  0.4553010000000 1.0
C      1  0.5594020000000  0.4078120000000  0.4773330000000 1.0
C      1  0.4532640000000  0.4986740000000  0.5989100000000 1.0
C      1  0.4290650000000  0.4655380000000  0.5186190000000 1.0
C      1  0.5657230000000  0.4139490000000  0.5546510000000 1.0
C      1  0.5676130000000  0.4530890000000  0.5467380000000 1.0
C      1  0.5603100000000  0.3805000000000  0.4776010000000 1.0
C      1  0.4759040000000  0.5881420000000  0.4411400000000 1.0
C      1  0.5533870000000  0.5404270000000  0.4104590000000 1.0
C      1  0.5278190000000  0.5645250000000  0.5297200000000 1.0
C      1  0.4460490000000  0.4179880000000  0.5980920000000 1.0
C      1  0.5655310000000  0.4133830000000  0.5274730000000 1.0
C      1  0.5663030000000  0.5528120000000  0.4552310000000 1.0
C      1  0.5117500000000  0.4227580000000  0.5755720000000 1.0
C      1  0.5649360000000  0.5772230000000  0.5374710000000 1.0
C      1  0.5373490000000  0.4547370000000  0.5068260000000 1.0
C      1  0.4567070000000  0.4962250000000  0.5018740000000 1.0
C      1  0.5505120000000  0.4236260000000  0.5028580000000 1.0
C      1  0.5232360000000  0.4785130000000  0.5398890000000 1.0
C      1  0.5195220000000  0.4718720000000  0.5733290000000 1.0
C      1  0.3851890000000  0.4907410000000  0.4771150000000 1.0
C      1  0.5071780000000  0.5239650000000  0.4080260000000 1.0
C      1  0.5336410000000  0.5479690000000  0.4571910000000 1.0
C      1  0.5153850000000  0.5973530000000  0.5482560000000 1.0
C      1  0.5080510000000  0.4329910000000  0.4362290000000 1.0
C      1  0.4569540000000  0.4113220000000  0.5270480000000 1.0
C      1  0.4664240000000  0.4748480000000  0.5904600000000 1.0
C      1  0.6037080000000  0.5007430000000  0.4918700000000 1.0
C      1  0.4150690000000  0.5557840000000  0.4892270000000 1.0
C      1  0.5097410000000  0.5288890000000  0.5311870000000 1.0
C      1  0.4341280000000  0.5323830000000  0.4735610000000 1.0
C      1  0.4939570000000  0.4712650000000  0.5957420000000 1.0
C      1  0.4872220000000  0.4582630000000  0.5193700000000 1.0
C      1  0.4823400000000  0.6033010000000  0.5052900000000 1.0
C      1  0.4289120000000  0.5044370000000  0.5850540000000 1.0
C      1  0.4741330000000  0.5829960000000  0.5241440000000 1.0
C      1  0.5215840000000  0.5796330000000  0.4602270000000 1.0
C      1  0.4099540000000  0.4808110000000  0.4949830000000 1.0
C      1  0.5758040000000  0.5795730000000  0.5082570000000 1.0
C      1  0.5413080000000  0.5862310000000  0.4841550000000 1.0
C      1  0.4913120000000  0.4800140000000  0.3997540000000 1.0
C      1  0.4613580000000  0.6083050000000  0.4309890000000 1.0
C      1  0.5761010000000  0.4993880000000  0.4304930000000 1.0
C      1  0.4893680000000  0.4648120000000  0.4689140000000 1.0
C      1  0.4961790000000  0.5812170000000  0.5632510000000 1.0
C      1  0.4914440000000  0.5848690000000  0.4662060000000 1.0
C      1  0.4729160000000  0.4905910000000  0.4180920000000 1.0
C      1  0.5160680000000  0.5242460000000  0.4402850000000 1.0
C      1  0.5182570000000  0.4500470000000  0.4620000000000 1.0
C      1  0.4347960000000  0.4837360000000  0.4228880000000 1.0
C      1  0.5429050000000  0.4685950000000  0.4585170000000 1.0
C      1  0.5069050000000  0.5259370000000  0.4800460000000 1.0
C      1  0.3910020000000  0.4934580000000  0.4500580000000 1.0
C      1  0.5528680000000  0.5635110000000  0.4259100000000 1.0
C      1  0.5699350000000  0.4735510000000  0.4772530000000 1.0
C      1  0.4388490000000  0.4636850000000  0.4732870000000 1.0
C      1  0.6018080000000  0.4510440000000  0.4849630000000 1.0
C      1  0.4665200000000  0.5298130000000  0.5546550000000 1.0
C      1  0.4501140000000  0.4280190000000  0.5725780000000 1.0
C      1  0.4931190000000  0.5416010000000  0.5967030000000 1.0
C      1  0.5469540000000  0.5158500000000  0.4287800000000 1.0
C      1  0.5572220000000  0.4373370000000  0.5714540000000 1.0
C      1  0.5454720000000  0.5073240000000  0.5054500000000 1.0
C      1  0.5009760000000  0.5701680000000  0.4931100000000 1.0
C      1  0.4560340000000  0.4916480000000  0.5503660000000 1.0
C      1  0.4743360000000  0.4359920000000  0.4323140000000 1.0
C      1  0.4177750000000  0.5180300000000  0.4132430000000 1.0
C      1  0.6116290000000  0.5171560000000  0.5186150000000 1.0
C      1  0.4670140000000  0.4014030000000  0.5016680000000 1.0
C      1  0.5402350000000  0.5324420000000  0.5873240000000 1.0
C      1  0.5124300000000  0.4778590000000  0.5076490000000 1.0
C      1  0.4645310000000  0.5402530000000  0.5804120000000 1.0
C      1  0.4620690000000  0.5391020000000  0.4032790000000 1.0
C      1  0.4842590000000  0.5041560000000  0.5488520000000 1.0
C      1  0.5997370000000  0.4717190000000  0.5038650000000 1.0
C      1  0.5074770000000  0.4336450000000  0.5280480000000 1.0
C      1  0.4654150000000  0.5075970000000  0.4626910000000 1.0
C      1  0.5312500000000  0.5210760000000  0.5502020000000 1.0
C      1  0.4092510000000  0.4493920000000  0.4819910000000 1.0
C      1  0.4041070000000  0.4861680000000  0.5289940000000 1.0
C      1  0.4268700000000  0.4257160000000  0.4747160000000 1.0
C      1  0.4322070000000  0.5019130000000  0.4841230000000 1.0
C      1  0.5812560000000  0.5587970000000  0.4838150000000 1.0
C      1  0.4053120000000  0.4741160000000  0.4368500000000 1.0
C      1  0.4548850000000  0.4319720000000  0.4929460000000 1.0
C      1  0.5516480000000  0.4970070000000  0.5372540000000 1.0
END
