TITL C-2847944-5688-53 -0.00129692311852323 125000 -1059.73566069119 0 0 193 (C1) n - 1
REM
REM in /home/bkarasulu/work/CARBON/AIRSS/Generating-Clusters/AIREBO/with-SteepDescent/Only-C1/SD-CG-opt/Try1-1.4A-POS3A/HFTN-CG
REM
REM
REM
REM
REM
REM ./C.cell (11c1c37f851c82e70ff6c80c92926a4b)
REM
REM compiler GCC version 9.2.1 20190827 (Red Hat 9.2.1-1)
REM options -cpp -mtune=generic -march=x86-64 -g -O0 -fpre-include=/usr/include/finclude/math-vector-fortran.h
REM seed 959119626 1747101768 -1061062893 1405675239 1987229899 -1004296396 -1061023332 -189762306 -468379630 683262731 -1244191407 1662096594 -1607952194 329793284 1618811044 -769066129 675755590 283740339 -1916028120 1402302766 2060267296 1407714224 -291477119 1959962801 521846730 -658149185 -157439670 1953742926 -804636393 -1915748736 -350836903 -2072631868 344195411
REM
CELL 1.54180   50.00000   50.00000   50.00000   90.00000   90.00000   90.00000
LATT -1
SFAC C  
C      1  0.4404490000000  0.5587830000000  0.5497690000000 1.0
C      1  0.4249790000000  0.5077480000000  0.4999170000000 1.0
C      1  0.5960660000000  0.4742280000000  0.5142160000000 1.0
C      1  0.5569500000000  0.5003650000000  0.4720170000000 1.0
C      1  0.5714210000000  0.4815140000000  0.4959950000000 1.0
C      1  0.4922600000000  0.6094330000000  0.5101750000000 1.0
C      1  0.4071750000000  0.5930050000000  0.4734470000000 1.0
C      1  0.5041720000000  0.5514540000000  0.4050920000000 1.0
C      1  0.5017370000000  0.4092790000000  0.4337410000000 1.0
C      1  0.4517620000000  0.5498950000000  0.4989890000000 1.0
C      1  0.5233740000000  0.6003730000000  0.4468440000000 1.0
C      1  0.4076320000000  0.4768630000000  0.4588510000000 1.0
C      1  0.4652650000000  0.4586940000000  0.4715270000000 1.0
C      1  0.4334050000000  0.4652120000000  0.4243600000000 1.0
C      1  0.4957650000000  0.5879260000000  0.5800590000000 1.0
C      1  0.5822960000000  0.5409810000000  0.5423260000000 1.0
C      1  0.4808180000000  0.5291680000000  0.6142160000000 1.0
C      1  0.5829690000000  0.5267250000000  0.4181080000000 1.0
C      1  0.5395680000000  0.5021710000000  0.3884360000000 1.0
C      1  0.3736420000000  0.5619980000000  0.5572870000000 1.0
C      1  0.4223380000000  0.4898320000000  0.4124690000000 1.0
C      1  0.6121080000000  0.5419030000000  0.5489930000000 1.0
C      1  0.5382150000000  0.6117420000000  0.5015780000000 1.0
C      1  0.4594450000000  0.6198320000000  0.4595790000000 1.0
C      1  0.5432810000000  0.5571930000000  0.5118550000000 1.0
C      1  0.5686420000000  0.5356970000000  0.5167430000000 1.0
C      1  0.4985990000000  0.5114490000000  0.5912670000000 1.0
C      1  0.3930330000000  0.5185940000000  0.5041600000000 1.0
C      1  0.5926430000000  0.4520540000000  0.5303550000000 1.0
C      1  0.4094480000000  0.4576110000000  0.5269280000000 1.0
C      1  0.5536370000000  0.4848570000000  0.4447640000000 1.0
C      1  0.4732770000000  0.5905080000000  0.5249670000000 1.0
C      1  0.3929250000000  0.5436820000000  0.5533760000000 1.0
C      1  0.5801310000000  0.4162510000000  0.5513480000000 1.0
C      1  0.4605860000000  0.4746600000000  0.4418070000000 1.0
C      1  0.5040300000000  0.4458750000000  0.4492090000000 1.0
C      1  0.4728800000000  0.4865200000000  0.5405860000000 1.0
C      1  0.5182230000000  0.5756590000000  0.4041280000000 1.0
C      1  0.5437620000000  0.4442550000000  0.4462480000000 1.0
C      1  0.5484210000000  0.5155380000000  0.4341090000000 1.0
C      1  0.4504610000000  0.5826330000000  0.4340990000000 1.0
C      1  0.5817430000000  0.4578870000000  0.4738130000000 1.0
C      1  0.5273880000000  0.4996780000000  0.6050440000000 1.0
C      1  0.5129820000000  0.5360670000000  0.5717110000000 1.0
C      1  0.5422800000000  0.4520610000000  0.5715030000000 1.0
C      1  0.4353810000000  0.4463870000000  0.4765960000000 1.0
C      1  0.4775420000000  0.4402210000000  0.4310920000000 1.0
C      1  0.4972870000000  0.5883410000000  0.4586060000000 1.0
C      1  0.4705090000000  0.4123870000000  0.4485090000000 1.0
C      1  0.5318100000000  0.5326450000000  0.5980120000000 1.0
C      1  0.4770470000000  0.5084210000000  0.4902590000000 1.0
C      1  0.4514480000000  0.4312600000000  0.5681440000000 1.0
C      1  0.5956290000000  0.5728650000000  0.4616240000000 1.0
C      1  0.4676000000000  0.4443090000000  0.5874590000000 1.0
C      1  0.6028870000000  0.4766600000000  0.4582770000000 1.0
C      1  0.5941020000000  0.4292670000000  0.4873990000000 1.0
C      1  0.4280690000000  0.5471540000000  0.4575530000000 1.0
C      1  0.4998560000000  0.4661150000000  0.3774740000000 1.0
C      1  0.5578160000000  0.4039780000000  0.4903340000000 1.0
C      1  0.5142950000000  0.4193320000000  0.5737350000000 1.0
C      1  0.5386400000000  0.4384430000000  0.4166920000000 1.0
C      1  0.4056440000000  0.4810380000000  0.5032650000000 1.0
C      1  0.3955450000000  0.5051750000000  0.4730080000000 1.0
C      1  0.4234230000000  0.4149870000000  0.4818070000000 1.0
C      1  0.5115420000000  0.5035830000000  0.4077340000000 1.0
C      1  0.4403890000000  0.5065250000000  0.3985750000000 1.0
C      1  0.4061810000000  0.4707460000000  0.5577350000000 1.0
C      1  0.5325900000000  0.4136130000000  0.5456040000000 1.0
C      1  0.5038810000000  0.5722050000000  0.6029280000000 1.0
C      1  0.4698680000000  0.5577250000000  0.5630830000000 1.0
C      1  0.5133110000000  0.4170850000000  0.4647440000000 1.0
C      1  0.5755080000000  0.4230830000000  0.5122450000000 1.0
C      1  0.5110410000000  0.4934700000000  0.5671590000000 1.0
C      1  0.4883280000000  0.3902270000000  0.5341210000000 1.0
C      1  0.5728730000000  0.4748840000000  0.4098140000000 1.0
C      1  0.5771060000000  0.5226410000000  0.4687310000000 1.0
C      1  0.4427760000000  0.4745990000000  0.5430070000000 1.0
C      1  0.5122090000000  0.4199840000000  0.5228680000000 1.0
C      1  0.4893260000000  0.4352270000000  0.5382710000000 1.0
C      1  0.4748050000000  0.4595110000000  0.5247050000000 1.0
C      1  0.5205180000000  0.5093420000000  0.5431300000000 1.0
C      1  0.5019650000000  0.4961460000000  0.4512130000000 1.0
C      1  0.4266870000000  0.5216280000000  0.5803300000000 1.0
C      1  0.4363480000000  0.4916810000000  0.4541980000000 1.0
C      1  0.4733270000000  0.5168290000000  0.5316370000000 1.0
C      1  0.5250380000000  0.4717070000000  0.4422610000000 1.0
C      1  0.4638170000000  0.5954150000000  0.5746320000000 1.0
C      1  0.5828660000000  0.4734510000000  0.4370270000000 1.0
C      1  0.4324270000000  0.4491240000000  0.5582870000000 1.0
C      1  0.4955440000000  0.4417700000000  0.5815410000000 1.0
C      1  0.5888730000000  0.5362450000000  0.4939470000000 1.0
C      1  0.5702960000000  0.4065730000000  0.4648000000000 1.0
C      1  0.5489200000000  0.4418890000000  0.5101570000000 1.0
C      1  0.4804580000000  0.5566590000000  0.6122120000000 1.0
C      1  0.5474300000000  0.5708860000000  0.6266840000000 1.0
C      1  0.5004840000000  0.3952070000000  0.5027510000000 1.0
C      1  0.5747340000000  0.5163140000000  0.5612240000000 1.0
C      1  0.5345090000000  0.5931250000000  0.4762320000000 1.0
C      1  0.4846960000000  0.5327190000000  0.5594720000000 1.0
C      1  0.5972990000000  0.4841950000000  0.5682640000000 1.0
C      1  0.4632120000000  0.3811160000000  0.5044750000000 1.0
C      1  0.5058720000000  0.4675880000000  0.5714340000000 1.0
C      1  0.4412530000000  0.5444900000000  0.5235450000000 1.0
C      1  0.4371840000000  0.5569140000000  0.4294070000000 1.0
C      1  0.5078720000000  0.4952430000000  0.4959900000000 1.0
C      1  0.4645630000000  0.4776640000000  0.4978430000000 1.0
C      1  0.5331060000000  0.5574440000000  0.5545620000000 1.0
C      1  0.6094280000000  0.5125840000000  0.4935820000000 1.0
C      1  0.4765680000000  0.3980040000000  0.4787270000000 1.0
C      1  0.4100040000000  0.5003610000000  0.5414590000000 1.0
C      1  0.4519550000000  0.5900230000000  0.5484570000000 1.0
C      1  0.4202300000000  0.4709410000000  0.5882040000000 1.0
C      1  0.5159190000000  0.5310860000000  0.4204280000000 1.0
C      1  0.5700310000000  0.5514890000000  0.4181930000000 1.0
C      1  0.4313680000000  0.5794290000000  0.4618760000000 1.0
C      1  0.4690880000000  0.5149910000000  0.4171630000000 1.0
C      1  0.3960280000000  0.4487710000000  0.4699810000000 1.0
C      1  0.5329240000000  0.5283640000000  0.5011420000000 1.0
C      1  0.5899350000000  0.5657430000000  0.4896200000000 1.0
C      1  0.4881700000000  0.6070350000000  0.4828170000000 1.0
C      1  0.5557650000000  0.4385880000000  0.5433470000000 1.0
C      1  0.4535950000000  0.5351060000000  0.4708720000000 1.0
C      1  0.5037280000000  0.5211640000000  0.5170230000000 1.0
C      1  0.3912130000000  0.5224530000000  0.5349860000000 1.0
C      1  0.4737000000000  0.4961270000000  0.6086670000000 1.0
C      1  0.4528700000000  0.4727400000000  0.5990490000000 1.0
C      1  0.5555940000000  0.5052100000000  0.5116320000000 1.0
C      1  0.6047050000000  0.5086300000000  0.5470820000000 1.0
C      1  0.5061820000000  0.5567700000000  0.4675670000000 1.0
C      1  0.5115780000000  0.5759620000000  0.4951090000000 1.0
C      1  0.5118490000000  0.4297220000000  0.4136040000000 1.0
C      1  0.5331670000000  0.5842320000000  0.4262170000000 1.0
C      1  0.5985910000000  0.5247440000000  0.4447160000000 1.0
C      1  0.4396820000000  0.5121310000000  0.5297040000000 1.0
C      1  0.4963120000000  0.4681750000000  0.4693220000000 1.0
C      1  0.4933950000000  0.4568360000000  0.4064070000000 1.0
C      1  0.5481770000000  0.4542120000000  0.4784560000000 1.0
C      1  0.5182210000000  0.5731990000000  0.5283600000000 1.0
C      1  0.4452150000000  0.5064270000000  0.4784300000000 1.0
C      1  0.5632790000000  0.5763500000000  0.4979820000000 1.0
C      1  0.4185240000000  0.5448360000000  0.5665650000000 1.0
C      1  0.4508850000000  0.3978040000000  0.5230300000000 1.0
C      1  0.4899670000000  0.5404450000000  0.4926160000000 1.0
C      1  0.5426210000000  0.4899310000000  0.5342010000000 1.0
C      1  0.4156550000000  0.4471830000000  0.4422870000000 1.0
C      1  0.4863810000000  0.4862190000000  0.4226440000000 1.0
C      1  0.4143410000000  0.5075700000000  0.4337060000000 1.0
C      1  0.4438580000000  0.5028230000000  0.5621420000000 1.0
C      1  0.4553880000000  0.4469880000000  0.4120670000000 1.0
C      1  0.5619880000000  0.5780410000000  0.4640440000000 1.0
C      1  0.5306280000000  0.4639400000000  0.5253500000000 1.0
C      1  0.4632550000000  0.5683320000000  0.5925420000000 1.0
C      1  0.4610250000000  0.4387010000000  0.5058870000000 1.0
C      1  0.5500720000000  0.5626720000000  0.4394210000000 1.0
C      1  0.5288190000000  0.5601770000000  0.6098090000000 1.0
C      1  0.5192800000000  0.4632780000000  0.4939100000000 1.0
C      1  0.5633960000000  0.5032890000000  0.4064970000000 1.0
C      1  0.5247760000000  0.5114290000000  0.4713200000000 1.0
C      1  0.5520450000000  0.5090840000000  0.5838060000000 1.0
C      1  0.4371470000000  0.4719920000000  0.5123120000000 1.0
C      1  0.4382860000000  0.4231090000000  0.4519830000000 1.0
C      1  0.4405840000000  0.4194480000000  0.5088450000000 1.0
C      1  0.6099840000000  0.5546600000000  0.4474080000000 1.0
C      1  0.4766180000000  0.5714560000000  0.4967690000000 1.0
C      1  0.5351780000000  0.4726040000000  0.6169000000000 1.0
C      1  0.4306610000000  0.4985000000000  0.5993950000000 1.0
C      1  0.4674090000000  0.4133190000000  0.5477990000000 1.0
C      1  0.6111390000000  0.5022340000000  0.4661910000000 1.0
C      1  0.4736720000000  0.5163180000000  0.4508340000000 1.0
C      1  0.5126030000000  0.4899170000000  0.3776140000000 1.0
C      1  0.4602380000000  0.5900670000000  0.4734340000000 1.0
C      1  0.3746500000000  0.4909580000000  0.4951670000000 1.0
C      1  0.4756900000000  0.5898220000000  0.4365520000000 1.0
C      1  0.5580850000000  0.4521000000000  0.4010750000000 1.0
C      1  0.4806220000000  0.5390150000000  0.3960370000000 1.0
C      1  0.4061300000000  0.5267450000000  0.4542280000000 1.0
C      1  0.4731440000000  0.5049010000000  0.5696800000000 1.0
C      1  0.5293590000000  0.5381940000000  0.4508430000000 1.0
C      1  0.5600390000000  0.4004780000000  0.5323960000000 1.0
C      1  0.5451390000000  0.5283360000000  0.5495730000000 1.0
C      1  0.5430480000000  0.4532300000000  0.6026290000000 1.0
C      1  0.6099210000000  0.4979520000000  0.5180460000000 1.0
C      1  0.4094160000000  0.4417350000000  0.4980510000000 1.0
C      1  0.4908150000000  0.5773050000000  0.5482380000000 1.0
C      1  0.5089370000000  0.4333350000000  0.4942900000000 1.0
C      1  0.5536520000000  0.4827150000000  0.5623450000000 1.0
C      1  0.5782420000000  0.4608730000000  0.5564120000000 1.0
C      1  0.5189330000000  0.6061970000000  0.5201730000000 1.0
C      1  0.4429880000000  0.5364000000000  0.4130310000000 1.0
C      1  0.4800100000000  0.4302430000000  0.4829270000000 1.0
C      1  0.5711680000000  0.4318000000000  0.4547330000000 1.0
C      1  0.5301900000000  0.4002400000000  0.4890270000000 1.0
C      1  0.5171850000000  0.4501400000000  0.5486060000000 1.0
END
