TITL C-2847952-8118-493 -0.00114653675586189 125000 -356.081453933855 0 0 66 (C1) n - 1
REM
REM in /home/bkarasulu/work/CARBON/AIRSS/Generating-Clusters/AIREBO/with-SteepDescent/Only-C1/SD-CG-opt/Try1-1.4A-POS3A/HFTN-CG
REM
REM
REM
REM
REM
REM ./C.cell (11c1c37f851c82e70ff6c80c92926a4b)
REM
REM compiler GCC version 9.2.1 20190827 (Red Hat 9.2.1-1)
REM options -cpp -mtune=generic -march=x86-64 -g -O0 -fpre-include=/usr/include/finclude/math-vector-fortran.h
REM seed 2035584146 273547011 717891277 878388981 1898453040 -1242276176 -1095915698 -1949819890 1421447113 751878322 -1166580169 404960024 -2036885467 1443391824 -371036710 -901631893 -342142931 411308301 -1911681275 -1335464377 -528904537 21428121 13642939 -668088750 694078889 267831410 70349620 -1191869868 1359043157 2131518435 292863810 -2035085703 -446494107
REM
CELL 1.54180   50.00000   50.00000   50.00000   90.00000   90.00000   90.00000
LATT -1
SFAC C  
C      1  0.5472050000000  0.5318330000000  0.5477360000000 1.0
C      1  0.5215640000000  0.5436580000000  0.5553780000000 1.0
C      1  0.5396380000000  0.4649890000000  0.5711400000000 1.0
C      1  0.5418160000000  0.4605690000000  0.4529680000000 1.0
C      1  0.5248470000000  0.4972290000000  0.4796370000000 1.0
C      1  0.4863600000000  0.4757820000000  0.5489020000000 1.0
C      1  0.4289440000000  0.5099730000000  0.4932100000000 1.0
C      1  0.5642630000000  0.5035060000000  0.4528810000000 1.0
C      1  0.4453790000000  0.5342540000000  0.4867770000000 1.0
C      1  0.4988110000000  0.4450320000000  0.5475510000000 1.0
C      1  0.5550850000000  0.4741110000000  0.5433810000000 1.0
C      1  0.4811590000000  0.5449180000000  0.5244230000000 1.0
C      1  0.5184790000000  0.4459940000000  0.4470060000000 1.0
C      1  0.5471170000000  0.4600190000000  0.4841860000000 1.0
C      1  0.5725450000000  0.5580820000000  0.5050100000000 1.0
C      1  0.4391220000000  0.4847350000000  0.5336700000000 1.0
C      1  0.4822640000000  0.5641580000000  0.4804230000000 1.0
C      1  0.5247790000000  0.4698770000000  0.5297400000000 1.0
C      1  0.4493890000000  0.4789590000000  0.4625870000000 1.0
C      1  0.5423030000000  0.4877250000000  0.4435110000000 1.0
C      1  0.5167590000000  0.5039610000000  0.5560860000000 1.0
C      1  0.4640480000000  0.5316370000000  0.4582470000000 1.0
C      1  0.4290720000000  0.4779310000000  0.5046810000000 1.0
C      1  0.4778850000000  0.5183380000000  0.5312320000000 1.0
C      1  0.5063920000000  0.5574870000000  0.5354130000000 1.0
C      1  0.4999980000000  0.4316800000000  0.4677570000000 1.0
C      1  0.4513730000000  0.4581570000000  0.4881100000000 1.0
C      1  0.4714220000000  0.4458700000000  0.4650630000000 1.0
C      1  0.4517220000000  0.5108450000000  0.5357310000000 1.0
C      1  0.4798740000000  0.4490090000000  0.5202510000000 1.0
C      1  0.5671480000000  0.5054080000000  0.4810560000000 1.0
C      1  0.4605860000000  0.4777970000000  0.4340120000000 1.0
C      1  0.5112140000000  0.4670630000000  0.5704070000000 1.0
C      1  0.4942470000000  0.4681580000000  0.4532170000000 1.0
C      1  0.4864930000000  0.4930520000000  0.4313800000000 1.0
C      1  0.4561830000000  0.4770270000000  0.5564190000000 1.0
C      1  0.5103700000000  0.4363750000000  0.4959420000000 1.0
C      1  0.4963930000000  0.4956020000000  0.5819980000000 1.0
C      1  0.5187960000000  0.4405090000000  0.5217050000000 1.0
C      1  0.4891900000000  0.5141120000000  0.4711590000000 1.0
C      1  0.4655620000000  0.4894100000000  0.5810970000000 1.0
C      1  0.4235330000000  0.4943560000000  0.4686540000000 1.0
C      1  0.5191990000000  0.5152430000000  0.5038990000000 1.0
C      1  0.5074860000000  0.5276090000000  0.5777630000000 1.0
C      1  0.5702320000000  0.4814030000000  0.4932750000000 1.0
C      1  0.5175100000000  0.5324680000000  0.4307600000000 1.0
C      1  0.4547060000000  0.4381300000000  0.5124010000000 1.0
C      1  0.5605520000000  0.5401810000000  0.5253720000000 1.0
C      1  0.5133590000000  0.5046430000000  0.4491740000000 1.0
C      1  0.4899240000000  0.4738890000000  0.5034250000000 1.0
C      1  0.5139220000000  0.4666820000000  0.4809330000000 1.0
C      1  0.5181290000000  0.5810290000000  0.4837600000000 1.0
C      1  0.4031560000000  0.4664560000000  0.5042720000000 1.0
C      1  0.5505200000000  0.5260050000000  0.4961410000000 1.0
C      1  0.5588850000000  0.5547380000000  0.4790020000000 1.0
C      1  0.5003320000000  0.5375740000000  0.4894130000000 1.0
C      1  0.4368310000000  0.5492540000000  0.4574860000000 1.0
C      1  0.4996430000000  0.5749170000000  0.4584820000000 1.0
C      1  0.4743270000000  0.4899210000000  0.4818730000000 1.0
C      1  0.5026100000000  0.4954760000000  0.5264310000000 1.0
C      1  0.4997860000000  0.5579970000000  0.4362040000000 1.0
C      1  0.5121120000000  0.5630290000000  0.5067760000000 1.0
C      1  0.4656830000000  0.5529370000000  0.5020880000000 1.0
C      1  0.4840960000000  0.5268950000000  0.4337040000000 1.0
C      1  0.5607940000000  0.4610490000000  0.5153560000000 1.0
C      1  0.5468740000000  0.5032820000000  0.5522720000000 1.0
END
