TITL C-2847948-6138-651 -0.00207061559921886 125000 -906.216080949626 0 0 173 (C1) n - 1
REM
REM in /home/bkarasulu/work/CARBON/AIRSS/Generating-Clusters/AIREBO/with-SteepDescent/Only-C1/SD-CG-opt/Try1-1.4A-POS3A/HFTN-CG
REM
REM
REM
REM
REM
REM ./C.cell (11c1c37f851c82e70ff6c80c92926a4b)
REM
REM compiler GCC version 9.2.1 20190827 (Red Hat 9.2.1-1)
REM options -cpp -mtune=generic -march=x86-64 -g -O0 -fpre-include=/usr/include/finclude/math-vector-fortran.h
REM seed 1185476389 -1089436096 607942876 747723801 -323645021 277223132 -1915170847 -510510192 788605206 1449638705 -244684845 1955169311 -1563239740 1567695880 -1505467092 -1239713991 1995611887 -1091082685 -1052338646 -1228939807 1200875203 -82060664 405292907 678573678 507397913 1415946431 19452874 1115135802 -320319103 216429011 1539872002 1408490605 2081194784
REM
CELL 1.54180   50.00000   50.00000   50.00000   90.00000   90.00000   90.00000
LATT -1
SFAC C  
C      1  0.5487810000000  0.4639820000000  0.5009390000000 1.0
C      1  0.4295180000000  0.5868290000000  0.5115980000000 1.0
C      1  0.4228480000000  0.4412820000000  0.4401400000000 1.0
C      1  0.4465410000000  0.5487190000000  0.4429440000000 1.0
C      1  0.4882030000000  0.4257450000000  0.5061370000000 1.0
C      1  0.4956090000000  0.5950930000000  0.5612880000000 1.0
C      1  0.4039600000000  0.4475410000000  0.4994460000000 1.0
C      1  0.5375470000000  0.4658060000000  0.5582120000000 1.0
C      1  0.4604910000000  0.5424460000000  0.4125520000000 1.0
C      1  0.5180190000000  0.4712170000000  0.4883630000000 1.0
C      1  0.5458940000000  0.4198460000000  0.4778280000000 1.0
C      1  0.5645220000000  0.4776300000000  0.4044590000000 1.0
C      1  0.5727470000000  0.5909420000000  0.4776420000000 1.0
C      1  0.4403420000000  0.4199750000000  0.5155220000000 1.0
C      1  0.4531380000000  0.4429520000000  0.5815350000000 1.0
C      1  0.4437970000000  0.4504590000000  0.5008590000000 1.0
C      1  0.4634610000000  0.4842340000000  0.4381530000000 1.0
C      1  0.5426730000000  0.5463850000000  0.4475700000000 1.0
C      1  0.5174010000000  0.4903080000000  0.3933640000000 1.0
C      1  0.4548350000000  0.5796660000000  0.4667330000000 1.0
C      1  0.5111180000000  0.5627100000000  0.4092470000000 1.0
C      1  0.4796820000000  0.4391530000000  0.4760710000000 1.0
C      1  0.5166330000000  0.5038690000000  0.4789570000000 1.0
C      1  0.5771010000000  0.5713290000000  0.5487210000000 1.0
C      1  0.5030640000000  0.5397840000000  0.4410120000000 1.0
C      1  0.5084720000000  0.5636210000000  0.5610530000000 1.0
C      1  0.5452110000000  0.4529710000000  0.4093350000000 1.0
C      1  0.4356190000000  0.4440200000000  0.5636470000000 1.0
C      1  0.5141540000000  0.4998600000000  0.4318860000000 1.0
C      1  0.4707790000000  0.4836520000000  0.5027170000000 1.0
C      1  0.6104200000000  0.5467690000000  0.5148650000000 1.0
C      1  0.4835140000000  0.4345880000000  0.5529430000000 1.0
C      1  0.5365690000000  0.5534060000000  0.5689670000000 1.0
C      1  0.5534350000000  0.5380580000000  0.5928780000000 1.0
C      1  0.4794000000000  0.4667790000000  0.5630940000000 1.0
C      1  0.5487360000000  0.5450470000000  0.5389020000000 1.0
C      1  0.4497430000000  0.4262180000000  0.4360630000000 1.0
C      1  0.4815620000000  0.4606450000000  0.4497750000000 1.0
C      1  0.4555250000000  0.4019820000000  0.4551850000000 1.0
C      1  0.5037970000000  0.5894970000000  0.4256230000000 1.0
C      1  0.4504990000000  0.4265990000000  0.4778330000000 1.0
C      1  0.4916170000000  0.5364950000000  0.4091660000000 1.0
C      1  0.4842320000000  0.5904270000000  0.4534340000000 1.0
C      1  0.5647540000000  0.5112330000000  0.4083750000000 1.0
C      1  0.5881460000000  0.4878940000000  0.5494060000000 1.0
C      1  0.4447590000000  0.4860280000000  0.5366900000000 1.0
C      1  0.5553060000000  0.5231700000000  0.5135410000000 1.0
C      1  0.4336450000000  0.4687820000000  0.4324460000000 1.0
C      1  0.5525620000000  0.4761880000000  0.5324500000000 1.0
C      1  0.5129170000000  0.4589110000000  0.4056790000000 1.0
C      1  0.4429940000000  0.5247510000000  0.4887950000000 1.0
C      1  0.5241070000000  0.5367830000000  0.4744090000000 1.0
C      1  0.5016420000000  0.5139460000000  0.5820950000000 1.0
C      1  0.5106470000000  0.4078630000000  0.4386620000000 1.0
C      1  0.5228110000000  0.5137890000000  0.5109200000000 1.0
C      1  0.5262290000000  0.4043110000000  0.5347240000000 1.0
C      1  0.5611130000000  0.4877700000000  0.5696210000000 1.0
C      1  0.4093810000000  0.4407050000000  0.4713770000000 1.0
C      1  0.4868480000000  0.4924670000000  0.6040380000000 1.0
C      1  0.5873020000000  0.5624000000000  0.5216000000000 1.0
C      1  0.4682040000000  0.5144220000000  0.5091390000000 1.0
C      1  0.5827940000000  0.5119470000000  0.5301240000000 1.0
C      1  0.4600780000000  0.5488540000000  0.5477680000000 1.0
C      1  0.5102890000000  0.5590850000000  0.4960730000000 1.0
C      1  0.4245450000000  0.5108120000000  0.4173700000000 1.0
C      1  0.4551030000000  0.4925810000000  0.6142220000000 1.0
C      1  0.6022900000000  0.4511080000000  0.5135540000000 1.0
C      1  0.5534320000000  0.5252310000000  0.4795130000000 1.0
C      1  0.5700630000000  0.5611770000000  0.4612550000000 1.0
C      1  0.5452700000000  0.4861640000000  0.4311660000000 1.0
C      1  0.5838770000000  0.4849990000000  0.4314470000000 1.0
C      1  0.5365550000000  0.4745760000000  0.4605370000000 1.0
C      1  0.4773710000000  0.5616310000000  0.4367010000000 1.0
C      1  0.4363640000000  0.4906130000000  0.5943060000000 1.0
C      1  0.5253250000000  0.6095730000000  0.4975710000000 1.0
C      1  0.5659820000000  0.5540310000000  0.5040530000000 1.0
C      1  0.4018990000000  0.5447290000000  0.5129010000000 1.0
C      1  0.4214900000000  0.4987130000000  0.4927500000000 1.0
C      1  0.4625210000000  0.5925330000000  0.5035200000000 1.0
C      1  0.5503060000000  0.4398970000000  0.5740050000000 1.0
C      1  0.4630990000000  0.5445640000000  0.5171280000000 1.0
C      1  0.5810780000000  0.5162440000000  0.4338830000000 1.0
C      1  0.5492970000000  0.4452070000000  0.4366240000000 1.0
C      1  0.4610520000000  0.5550470000000  0.5793670000000 1.0
C      1  0.4352430000000  0.4556760000000  0.5324080000000 1.0
C      1  0.5405880000000  0.4380080000000  0.5196620000000 1.0
C      1  0.5423010000000  0.5687720000000  0.4899010000000 1.0
C      1  0.5342370000000  0.5457290000000  0.4169920000000 1.0
C      1  0.4940770000000  0.5082070000000  0.3984090000000 1.0
C      1  0.5379910000000  0.4854020000000  0.6019290000000 1.0
C      1  0.4313790000000  0.5611890000000  0.5343300000000 1.0
C      1  0.4175490000000  0.5302050000000  0.5369930000000 1.0
C      1  0.4844700000000  0.3916800000000  0.4488000000000 1.0
C      1  0.5532100000000  0.5970380000000  0.5047940000000 1.0
C      1  0.5178040000000  0.5695700000000  0.4478810000000 1.0
C      1  0.4456820000000  0.4778450000000  0.4845210000000 1.0
C      1  0.5943800000000  0.4390160000000  0.4929740000000 1.0
C      1  0.5115260000000  0.4666590000000  0.4387610000000 1.0
C      1  0.5674190000000  0.4454740000000  0.4792560000000 1.0
C      1  0.4822180000000  0.5999370000000  0.5373150000000 1.0
C      1  0.5684270000000  0.5614470000000  0.5737890000000 1.0
C      1  0.4532830000000  0.5040450000000  0.4638560000000 1.0
C      1  0.5590740000000  0.4946020000000  0.4674310000000 1.0
C      1  0.5828960000000  0.4609180000000  0.5347250000000 1.0
C      1  0.5160820000000  0.4113230000000  0.5030320000000 1.0
C      1  0.5446850000000  0.5839310000000  0.4595600000000 1.0
C      1  0.4957870000000  0.5287490000000  0.5011660000000 1.0
C      1  0.5222400000000  0.4364900000000  0.4502200000000 1.0
C      1  0.4169100000000  0.5465630000000  0.4883570000000 1.0
C      1  0.5963450000000  0.5108880000000  0.4813580000000 1.0
C      1  0.4819280000000  0.4652190000000  0.3931710000000 1.0
C      1  0.4739780000000  0.4384870000000  0.4288410000000 1.0
C      1  0.6141950000000  0.4899460000000  0.5649660000000 1.0
C      1  0.4526850000000  0.5224870000000  0.5768500000000 1.0
C      1  0.4032290000000  0.4319480000000  0.4216420000000 1.0
C      1  0.4786770000000  0.5319370000000  0.5966320000000 1.0
C      1  0.4165480000000  0.4843560000000  0.4180580000000 1.0
C      1  0.3983830000000  0.5071260000000  0.4769760000000 1.0
C      1  0.5393350000000  0.4010050000000  0.4557280000000 1.0
C      1  0.4707500000000  0.4077080000000  0.5469170000000 1.0
C      1  0.4787460000000  0.4865250000000  0.5356460000000 1.0
C      1  0.4242090000000  0.5166190000000  0.5644860000000 1.0
C      1  0.4650000000000  0.4096590000000  0.5200670000000 1.0
C      1  0.5806600000000  0.5301010000000  0.4604960000000 1.0
C      1  0.4846580000000  0.5136520000000  0.4727940000000 1.0
C      1  0.4767540000000  0.5647060000000  0.4970870000000 1.0
C      1  0.4783440000000  0.4604660000000  0.5962060000000 1.0
C      1  0.4989150000000  0.4683890000000  0.5142520000000 1.0
C      1  0.4604770000000  0.5480290000000  0.4739590000000 1.0
C      1  0.4896280000000  0.5357890000000  0.5583910000000 1.0
C      1  0.4914370000000  0.5629610000000  0.5904750000000 1.0
C      1  0.4115950000000  0.4247960000000  0.5154700000000 1.0
C      1  0.5045800000000  0.5888540000000  0.4806480000000 1.0
C      1  0.4198030000000  0.5646710000000  0.4528710000000 1.0
C      1  0.5728200000000  0.4606620000000  0.4514420000000 1.0
C      1  0.5173960000000  0.4378610000000  0.4817710000000 1.0
C      1  0.4984930000000  0.4370490000000  0.5817410000000 1.0
C      1  0.5175990000000  0.5684850000000  0.5286170000000 1.0
C      1  0.4479350000000  0.5161220000000  0.4024500000000 1.0
C      1  0.4263030000000  0.5759120000000  0.4826230000000 1.0
C      1  0.4066690000000  0.5314940000000  0.4615080000000 1.0
C      1  0.4840460000000  0.5116350000000  0.4395980000000 1.0
C      1  0.5363200000000  0.4550220000000  0.6010690000000 1.0
C      1  0.5222870000000  0.4281400000000  0.5587050000000 1.0
C      1  0.5487220000000  0.4068170000000  0.5088640000000 1.0
C      1  0.5494390000000  0.5783370000000  0.5309210000000 1.0
C      1  0.4531840000000  0.5872490000000  0.5357850000000 1.0
C      1  0.4098740000000  0.4709410000000  0.5491270000000 1.0
C      1  0.5901110000000  0.4826700000000  0.4707710000000 1.0
C      1  0.5420850000000  0.5188190000000  0.6075420000000 1.0
C      1  0.4240130000000  0.4108340000000  0.4656520000000 1.0
C      1  0.5290720000000  0.4998130000000  0.5393240000000 1.0
C      1  0.5104640000000  0.4686410000000  0.5603930000000 1.0
C      1  0.4993580000000  0.4293780000000  0.4157100000000 1.0
C      1  0.5592740000000  0.5178930000000  0.5539560000000 1.0
C      1  0.5137380000000  0.4402310000000  0.6094710000000 1.0
C      1  0.5622670000000  0.4387520000000  0.5422630000000 1.0
C      1  0.4681240000000  0.4918880000000  0.4053450000000 1.0
C      1  0.4202730000000  0.5001890000000  0.5242040000000 1.0
C      1  0.5143630000000  0.5025790000000  0.6180490000000 1.0
C      1  0.5330590000000  0.5162700000000  0.4087550000000 1.0
C      1  0.5731560000000  0.4614380000000  0.5870590000000 1.0
C      1  0.4678550000000  0.6100660000000  0.4758620000000 1.0
C      1  0.6021760000000  0.5201570000000  0.5072230000000 1.0
C      1  0.4308450000000  0.5208720000000  0.4446020000000 1.0
C      1  0.5651140000000  0.4937730000000  0.4995260000000 1.0
C      1  0.5009890000000  0.5934490000000  0.5141570000000 1.0
C      1  0.4028480000000  0.4721050000000  0.5159250000000 1.0
C      1  0.5304430000000  0.5020330000000  0.5732340000000 1.0
C      1  0.4141980000000  0.4890540000000  0.5700180000000 1.0
C      1  0.4539810000000  0.4900360000000  0.5667390000000 1.0
C      1  0.5080910000000  0.4396490000000  0.5299890000000 1.0
C      1  0.4980490000000  0.5096240000000  0.5424970000000 1.0
END
