TITL C-2847949-8115-330 -6.50908743062195e-06 125000 -138.048139874239 0 0 25 (C1) n - 1
REM
REM in /home/bkarasulu/work/CARBON/AIRSS/Generating-Clusters/AIREBO/with-SteepDescent/Only-C1/SD-CG-opt/Try1-1.4A-POS3A/HFTN-CG
REM
REM
REM
REM
REM
REM ./C.cell (11c1c37f851c82e70ff6c80c92926a4b)
REM
REM compiler GCC version 9.2.1 20190827 (Red Hat 9.2.1-1)
REM options -cpp -mtune=generic -march=x86-64 -g -O0 -fpre-include=/usr/include/finclude/math-vector-fortran.h
REM seed 982521017 -289832499 396782 355628754 -1173089983 -624713539 -2138435264 -1462654329 756843268 1524412626 1144066705 -1510097543 1429221304 1361943371 386725746 -719634888 862104371 1187717075 1823081876 -1246593422 20130315 -1792639218 721951111 -1270037760 13798741 -428311181 -1391892208 885079145 403095290 1556018361 -1879580233 -559042063 -1046423125
REM
CELL 1.54180   50.00000   50.00000   50.00000   90.00000   90.00000   90.00000
LATT -1
SFAC C  
C      1  0.5827120000000  0.4951490000000  0.5228980000000 1.0
C      1  0.4907840000000  0.5330770000000  0.4949020000000 1.0
C      1  0.4812780000000  0.4514240000000  0.4928160000000 1.0
C      1  0.4835280000000  0.5412060000000  0.4455160000000 1.0
C      1  0.4555980000000  0.4920270000000  0.5067230000000 1.0
C      1  0.6076770000000  0.4942430000000  0.5304520000000 1.0
C      1  0.4456640000000  0.5191940000000  0.4694370000000 1.0
C      1  0.5127470000000  0.4930880000000  0.4553900000000 1.0
C      1  0.5361890000000  0.5069660000000  0.4606700000000 1.0
C      1  0.5248670000000  0.4802230000000  0.5290760000000 1.0
C      1  0.4943780000000  0.4247510000000  0.4798320000000 1.0
C      1  0.5393510000000  0.5159830000000  0.4874100000000 1.0
C      1  0.5063460000000  0.4916370000000  0.5113080000000 1.0
C      1  0.4893940000000  0.4962260000000  0.4689330000000 1.0
C      1  0.5520930000000  0.4844750000000  0.5250480000000 1.0
C      1  0.5136310000000  0.5172510000000  0.5005100000000 1.0
C      1  0.4740880000000  0.5375070000000  0.5166320000000 1.0
C      1  0.4575080000000  0.5455490000000  0.5704960000000 1.0
C      1  0.4760440000000  0.4223080000000  0.5060940000000 1.0
C      1  0.4376420000000  0.4985850000000  0.4859220000000 1.0
C      1  0.4618730000000  0.5352520000000  0.5469210000000 1.0
C      1  0.4766020000000  0.5253460000000  0.4675850000000 1.0
C      1  0.4819020000000  0.4801880000000  0.4960550000000 1.0
C      1  0.4583820000000  0.5117680000000  0.5256570000000 1.0
C      1  0.5597190000000  0.5065740000000  0.5037190000000 1.0
END
