TITL C-2848500-1637-694 0.00259228079367268 125000 -925.861650890904 0 0 168 (C1) n - 1
REM
REM in /home/bkarasulu/work/CARBON/AIRSS/Generating-Clusters/AIREBO/with-SteepDescent/Only-C1/SD-CG-opt/Try1-1.4A-POS3A/HFTN-CG
REM
REM
REM
REM
REM
REM ./C.cell (11c1c37f851c82e70ff6c80c92926a4b)
REM
REM compiler GCC version 9.2.1 20190827 (Red Hat 9.2.1-1)
REM options -cpp -mtune=generic -march=x86-64 -g -O0 -fpre-include=/usr/include/finclude/math-vector-fortran.h
REM seed 1083245501 1333819550 613431076 1281706392 -886495650 2085931685 -7478386 -1397107334 -31354129 -648856740 1856004452 1639720578 1205423150 -1872859102 -119428762 496637129 -723273382 942729861 -602877801 1275846460 1868540057 -1708506875 -1404003134 1845153897 1512941661 1708422955 1151688300 -190035598 -1436289622 353318302 895642786 719032261 -469851134
REM
CELL 1.54180   50.00000   50.00000   50.00000   90.00000   90.00000   90.00000
LATT -1
SFAC C  
C      1  0.4692600000000  0.5170390000000  0.5683080000000 1.0
C      1  0.4167500000000  0.5450270000000  0.4810520000000 1.0
C      1  0.5312650000000  0.4851730000000  0.5417040000000 1.0
C      1  0.4811270000000  0.5961380000000  0.5009220000000 1.0
C      1  0.5088010000000  0.5462330000000  0.5046140000000 1.0
C      1  0.4285080000000  0.4382560000000  0.5155170000000 1.0
C      1  0.5265350000000  0.4248410000000  0.5613140000000 1.0
C      1  0.4846910000000  0.5898320000000  0.5324010000000 1.0
C      1  0.4247780000000  0.6015290000000  0.4491830000000 1.0
C      1  0.4906290000000  0.4492550000000  0.5471760000000 1.0
C      1  0.5814400000000  0.4382900000000  0.4557810000000 1.0
C      1  0.5259900000000  0.5687370000000  0.4081650000000 1.0
C      1  0.4706660000000  0.5893500000000  0.4353730000000 1.0
C      1  0.4436350000000  0.5038480000000  0.5282110000000 1.0
C      1  0.5592900000000  0.4825580000000  0.5700000000000 1.0
C      1  0.5842510000000  0.4934510000000  0.5159890000000 1.0
C      1  0.5919980000000  0.5659890000000  0.5187440000000 1.0
C      1  0.4932620000000  0.5503070000000  0.4524640000000 1.0
C      1  0.5502880000000  0.4424820000000  0.4920240000000 1.0
C      1  0.4814560000000  0.5193370000000  0.5208820000000 1.0
C      1  0.4580970000000  0.5107520000000  0.4214010000000 1.0
C      1  0.5374200000000  0.5885990000000  0.4642330000000 1.0
C      1  0.5206150000000  0.5215490000000  0.5595560000000 1.0
C      1  0.4901910000000  0.5564410000000  0.3975570000000 1.0
C      1  0.4784310000000  0.4762220000000  0.4895040000000 1.0
C      1  0.4400230000000  0.5327640000000  0.5905440000000 1.0
C      1  0.4517720000000  0.4831880000000  0.5490590000000 1.0
C      1  0.5692900000000  0.5241770000000  0.5735920000000 1.0
C      1  0.6046480000000  0.4980180000000  0.5520990000000 1.0
C      1  0.5106720000000  0.4837010000000  0.6043030000000 1.0
C      1  0.5218680000000  0.5242940000000  0.5256820000000 1.0
C      1  0.4273160000000  0.5135240000000  0.4275120000000 1.0
C      1  0.5499400000000  0.5701060000000  0.5491030000000 1.0
C      1  0.4459900000000  0.4948350000000  0.5797360000000 1.0
C      1  0.5126930000000  0.4885230000000  0.4224520000000 1.0
C      1  0.4160310000000  0.5388550000000  0.4471930000000 1.0
C      1  0.4003420000000  0.5043920000000  0.5061610000000 1.0
C      1  0.4931930000000  0.5569050000000  0.5329030000000 1.0
C      1  0.5480670000000  0.5625140000000  0.4332630000000 1.0
C      1  0.3969480000000  0.4759070000000  0.5073050000000 1.0
C      1  0.5555110000000  0.5069560000000  0.5477110000000 1.0
C      1  0.4406290000000  0.5563980000000  0.4605030000000 1.0
C      1  0.4564470000000  0.5098660000000  0.4546480000000 1.0
C      1  0.4643500000000  0.5382570000000  0.4653090000000 1.0
C      1  0.5250320000000  0.5797190000000  0.5899670000000 1.0
C      1  0.5364880000000  0.4888470000000  0.5933980000000 1.0
C      1  0.5709000000000  0.5233320000000  0.5224670000000 1.0
C      1  0.4688610000000  0.5365600000000  0.5452170000000 1.0
C      1  0.5224930000000  0.5481410000000  0.5879280000000 1.0
C      1  0.4796990000000  0.4875890000000  0.4143860000000 1.0
C      1  0.5255680000000  0.5026200000000  0.4848030000000 1.0
C      1  0.5114020000000  0.4009070000000  0.5226470000000 1.0
C      1  0.4474400000000  0.5862420000000  0.4568840000000 1.0
C      1  0.4715150000000  0.4419580000000  0.4560260000000 1.0
C      1  0.5069520000000  0.5351640000000  0.4181110000000 1.0
C      1  0.5179610000000  0.3784550000000  0.4721080000000 1.0
C      1  0.4915180000000  0.4654700000000  0.4616860000000 1.0
C      1  0.4272330000000  0.4647590000000  0.4772530000000 1.0
C      1  0.5973050000000  0.5538960000000  0.4490230000000 1.0
C      1  0.5753450000000  0.4815280000000  0.4854020000000 1.0
C      1  0.5321630000000  0.4254780000000  0.4506200000000 1.0
C      1  0.5089350000000  0.5304380000000  0.4744760000000 1.0
C      1  0.5492530000000  0.5298010000000  0.4371360000000 1.0
C      1  0.4182610000000  0.4617850000000  0.4100630000000 1.0
C      1  0.5025390000000  0.4289290000000  0.4107330000000 1.0
C      1  0.5139400000000  0.4119740000000  0.4762330000000 1.0
C      1  0.5282260000000  0.4433550000000  0.4059340000000 1.0
C      1  0.4779160000000  0.4478780000000  0.5007980000000 1.0
C      1  0.4757480000000  0.5351690000000  0.4275300000000 1.0
C      1  0.4667570000000  0.5291400000000  0.4934900000000 1.0
C      1  0.4682630000000  0.5551300000000  0.5098450000000 1.0
C      1  0.4848580000000  0.4138800000000  0.4587230000000 1.0
C      1  0.5190040000000  0.5961460000000  0.5721190000000 1.0
C      1  0.4286520000000  0.5749690000000  0.5298340000000 1.0
C      1  0.5557640000000  0.4932750000000  0.4602050000000 1.0
C      1  0.4482190000000  0.5739480000000  0.5055210000000 1.0
C      1  0.5178850000000  0.5722480000000  0.4462860000000 1.0
C      1  0.5538300000000  0.4881670000000  0.3977510000000 1.0
C      1  0.5879660000000  0.4516610000000  0.4823920000000 1.0
C      1  0.5767740000000  0.5710110000000  0.4431200000000 1.0
C      1  0.4799350000000  0.5564230000000  0.3740960000000 1.0
C      1  0.5174160000000  0.4391500000000  0.5318400000000 1.0
C      1  0.4476900000000  0.3934980000000  0.5131690000000 1.0
C      1  0.5478410000000  0.5234120000000  0.4697030000000 1.0
C      1  0.4954360000000  0.5023130000000  0.5658410000000 1.0
C      1  0.4407900000000  0.4411370000000  0.4474710000000 1.0
C      1  0.4723670000000  0.4178000000000  0.4901040000000 1.0
C      1  0.5183860000000  0.5595060000000  0.5561140000000 1.0
C      1  0.4062580000000  0.5134010000000  0.5597860000000 1.0
C      1  0.4685680000000  0.4277890000000  0.5595020000000 1.0
C      1  0.4147510000000  0.5514890000000  0.5101780000000 1.0
C      1  0.5313810000000  0.3928370000000  0.4984470000000 1.0
C      1  0.4577660000000  0.4499130000000  0.5247670000000 1.0
C      1  0.4109760000000  0.4836980000000  0.4296330000000 1.0
C      1  0.5771700000000  0.4334680000000  0.4278800000000 1.0
C      1  0.5653490000000  0.5566230000000  0.4905020000000 1.0
C      1  0.5271830000000  0.5996810000000  0.4871900000000 1.0
C      1  0.5357310000000  0.5362030000000  0.4064620000000 1.0
C      1  0.4091630000000  0.4598590000000  0.5279670000000 1.0
C      1  0.4389120000000  0.5459610000000  0.5418290000000 1.0
C      1  0.5701570000000  0.5460440000000  0.5478100000000 1.0
C      1  0.4248190000000  0.5352030000000  0.5677900000000 1.0
C      1  0.4626970000000  0.6020180000000  0.5498950000000 1.0
C      1  0.4170260000000  0.4890150000000  0.5679770000000 1.0
C      1  0.5759950000000  0.4184930000000  0.5320150000000 1.0
C      1  0.5370700000000  0.4803830000000  0.4447280000000 1.0
C      1  0.5434410000000  0.4755970000000  0.4955980000000 1.0
C      1  0.5568170000000  0.4301790000000  0.4690940000000 1.0
C      1  0.4550550000000  0.4980690000000  0.4989640000000 1.0
C      1  0.5999920000000  0.5155730000000  0.5789740000000 1.0
C      1  0.5449350000000  0.4044270000000  0.5262180000000 1.0
C      1  0.4823340000000  0.4927340000000  0.4474160000000 1.0
C      1  0.5081420000000  0.5780150000000  0.5024280000000 1.0
C      1  0.5195550000000  0.4565140000000  0.4466010000000 1.0
C      1  0.4122740000000  0.4595530000000  0.4495080000000 1.0
C      1  0.4790140000000  0.4747590000000  0.5331950000000 1.0
C      1  0.4673200000000  0.4565990000000  0.5868080000000 1.0
C      1  0.4379070000000  0.5977260000000  0.5478750000000 1.0
C      1  0.4760400000000  0.4347300000000  0.4042650000000 1.0
C      1  0.5592620000000  0.4282340000000  0.5600110000000 1.0
C      1  0.4459010000000  0.4525540000000  0.5626290000000 1.0
C      1  0.4456660000000  0.4462380000000  0.4153890000000 1.0
C      1  0.5576420000000  0.5125010000000  0.4087760000000 1.0
C      1  0.5999750000000  0.5301450000000  0.5490250000000 1.0
C      1  0.4948300000000  0.5069910000000  0.6098470000000 1.0
C      1  0.5819570000000  0.4772130000000  0.5451970000000 1.0
C      1  0.4972100000000  0.4243320000000  0.5775050000000 1.0
C      1  0.3946970000000  0.4619920000000  0.4790070000000 1.0
C      1  0.4094440000000  0.5138970000000  0.4775870000000 1.0
C      1  0.4917680000000  0.4062440000000  0.5485230000000 1.0
C      1  0.5071460000000  0.4341500000000  0.5011250000000 1.0
C      1  0.5548040000000  0.4696560000000  0.5279380000000 1.0
C      1  0.5149870000000  0.5894020000000  0.5411720000000 1.0
C      1  0.5058840000000  0.4122230000000  0.4337720000000 1.0
C      1  0.5316660000000  0.4716170000000  0.4045030000000 1.0
C      1  0.5626130000000  0.5743490000000  0.5188320000000 1.0
C      1  0.4171500000000  0.5230410000000  0.5292290000000 1.0
C      1  0.5408300000000  0.5197760000000  0.5840080000000 1.0
C      1  0.5965690000000  0.5391820000000  0.5082310000000 1.0
C      1  0.3988820000000  0.5095040000000  0.4465060000000 1.0
C      1  0.4962760000000  0.5773390000000  0.4223630000000 1.0
C      1  0.5090280000000  0.5306320000000  0.6115770000000 1.0
C      1  0.5915860000000  0.5404100000000  0.4757660000000 1.0
C      1  0.5585970000000  0.5924700000000  0.5681480000000 1.0
C      1  0.5683780000000  0.4512540000000  0.5722420000000 1.0
C      1  0.4350330000000  0.4967010000000  0.4725790000000 1.0
C      1  0.5621660000000  0.5774800000000  0.4674480000000 1.0
C      1  0.5459180000000  0.5315290000000  0.5027170000000 1.0
C      1  0.4994110000000  0.4523910000000  0.5972270000000 1.0
C      1  0.4947820000000  0.5008480000000  0.4956690000000 1.0
C      1  0.5078730000000  0.5141870000000  0.4445060000000 1.0
C      1  0.4403440000000  0.4683290000000  0.5043990000000 1.0
C      1  0.5031810000000  0.4969220000000  0.5339970000000 1.0
C      1  0.5879720000000  0.4360630000000  0.5054590000000 1.0
C      1  0.4339640000000  0.4134510000000  0.5002690000000 1.0
C      1  0.5356440000000  0.5909650000000  0.5177930000000 1.0
C      1  0.4434850000000  0.4189990000000  0.4721370000000 1.0
C      1  0.5492320000000  0.4303430000000  0.4216200000000 1.0
C      1  0.4651350000000  0.5125870000000  0.6015180000000 1.0
C      1  0.4566260000000  0.5930140000000  0.4851940000000 1.0
C      1  0.5301520000000  0.4583970000000  0.5571670000000 1.0
C      1  0.4689580000000  0.4647630000000  0.4008360000000 1.0
C      1  0.4168870000000  0.4644950000000  0.5545950000000 1.0
C      1  0.5497470000000  0.4378900000000  0.5224780000000 1.0
C      1  0.4929220000000  0.4722800000000  0.5705320000000 1.0
C      1  0.5948240000000  0.5103770000000  0.4884570000000 1.0
C      1  0.5146810000000  0.4601920000000  0.4860230000000 1.0
C      1  0.4788860000000  0.3986720000000  0.5175640000000 1.0
END
