TITL C-2847944-5688-606 -0.00166633655275781 125000 -862.443610681565 0 0 155 (C1) n - 1
REM
REM in /home/bkarasulu/work/CARBON/AIRSS/Generating-Clusters/AIREBO/with-SteepDescent/Only-C1/SD-CG-opt/Try1-1.4A-POS3A/HFTN-CG
REM
REM
REM
REM
REM
REM ./C.cell (11c1c37f851c82e70ff6c80c92926a4b)
REM
REM compiler GCC version 9.2.1 20190827 (Red Hat 9.2.1-1)
REM options -cpp -mtune=generic -march=x86-64 -g -O0 -fpre-include=/usr/include/finclude/math-vector-fortran.h
REM seed 2086582655 1772288474 1710481642 1621189318 -150482486 1150083620 -1791276093 420838390 -567266897 -2098846290 1038544964 -2122440789 2053661684 -381131927 1743698580 -18429207 1849625355 1931185194 -873120019 1063277505 2085636485 -1352447629 2030797416 -998284566 1337740773 -1884230503 -1472928703 1911209430 705734239 -1991898226 2029015109 1583323866 -482688474
REM
CELL 1.54180   50.00000   50.00000   50.00000   90.00000   90.00000   90.00000
LATT -1
SFAC C  
C      1  0.4554320000000  0.5183440000000  0.5372830000000 1.0
C      1  0.4946710000000  0.3982340000000  0.4623470000000 1.0
C      1  0.5278340000000  0.5989550000000  0.4971490000000 1.0
C      1  0.5485190000000  0.5036270000000  0.4787070000000 1.0
C      1  0.5732240000000  0.4988330000000  0.4404530000000 1.0
C      1  0.5210850000000  0.4341250000000  0.4575690000000 1.0
C      1  0.4115160000000  0.4575990000000  0.5192460000000 1.0
C      1  0.5941660000000  0.4562680000000  0.5069540000000 1.0
C      1  0.4813040000000  0.5027370000000  0.4959140000000 1.0
C      1  0.5954300000000  0.4825880000000  0.5605880000000 1.0
C      1  0.4212500000000  0.5464200000000  0.4579860000000 1.0
C      1  0.5229810000000  0.5232400000000  0.5333950000000 1.0
C      1  0.5436770000000  0.5513050000000  0.4105610000000 1.0
C      1  0.4908150000000  0.5941490000000  0.4544240000000 1.0
C      1  0.5256300000000  0.4417000000000  0.5732410000000 1.0
C      1  0.4701270000000  0.4902720000000  0.5242190000000 1.0
C      1  0.5301460000000  0.4931750000000  0.5844000000000 1.0
C      1  0.5436800000000  0.4829220000000  0.5125650000000 1.0
C      1  0.4752390000000  0.5926530000000  0.4949990000000 1.0
C      1  0.4898380000000  0.5080060000000  0.6043980000000 1.0
C      1  0.5900620000000  0.5075300000000  0.5052340000000 1.0
C      1  0.5094520000000  0.4880550000000  0.4516480000000 1.0
C      1  0.5163070000000  0.5907290000000  0.4437560000000 1.0
C      1  0.5319380000000  0.5221070000000  0.4944930000000 1.0
C      1  0.5406690000000  0.4686480000000  0.4117920000000 1.0
C      1  0.5959870000000  0.4788510000000  0.4888450000000 1.0
C      1  0.4804200000000  0.5334060000000  0.4980120000000 1.0
C      1  0.3937660000000  0.5206140000000  0.5312940000000 1.0
C      1  0.5010580000000  0.4497230000000  0.4456220000000 1.0
C      1  0.5182940000000  0.4221580000000  0.4128050000000 1.0
C      1  0.4802190000000  0.4916070000000  0.4141840000000 1.0
C      1  0.5634060000000  0.5046040000000  0.5238210000000 1.0
C      1  0.4543590000000  0.5341800000000  0.4149850000000 1.0
C      1  0.5050110000000  0.5533880000000  0.4931580000000 1.0
C      1  0.4877450000000  0.5850130000000  0.5355770000000 1.0
C      1  0.4788070000000  0.4300090000000  0.5563750000000 1.0
C      1  0.5006240000000  0.6006970000000  0.5084640000000 1.0
C      1  0.4006540000000  0.5386380000000  0.4760140000000 1.0
C      1  0.5069200000000  0.4066980000000  0.5241740000000 1.0
C      1  0.4453120000000  0.5257940000000  0.5809360000000 1.0
C      1  0.5498490000000  0.5339400000000  0.5171000000000 1.0
C      1  0.5346990000000  0.5162220000000  0.5602200000000 1.0
C      1  0.5142200000000  0.5507570000000  0.5235800000000 1.0
C      1  0.5573260000000  0.4932110000000  0.5552990000000 1.0
C      1  0.4446280000000  0.4370210000000  0.4503060000000 1.0
C      1  0.4356090000000  0.5235290000000  0.4495190000000 1.0
C      1  0.4394660000000  0.5471180000000  0.5459350000000 1.0
C      1  0.4802590000000  0.4348990000000  0.4902050000000 1.0
C      1  0.3878000000000  0.5140400000000  0.4685980000000 1.0
C      1  0.5101980000000  0.4198810000000  0.4834780000000 1.0
C      1  0.4837030000000  0.5613930000000  0.5775230000000 1.0
C      1  0.5388420000000  0.4414600000000  0.4189550000000 1.0
C      1  0.4399370000000  0.5305720000000  0.5095910000000 1.0
C      1  0.4567320000000  0.4714590000000  0.5954220000000 1.0
C      1  0.5736600000000  0.4370240000000  0.4991370000000 1.0
C      1  0.4732230000000  0.4243580000000  0.4586450000000 1.0
C      1  0.5642610000000  0.4549280000000  0.4613830000000 1.0
C      1  0.4787780000000  0.3946710000000  0.5163730000000 1.0
C      1  0.4826490000000  0.5676910000000  0.4741570000000 1.0
C      1  0.4945290000000  0.4660930000000  0.5768910000000 1.0
C      1  0.4448680000000  0.4616980000000  0.4290050000000 1.0
C      1  0.4579400000000  0.4510080000000  0.5731060000000 1.0
C      1  0.4586570000000  0.5124610000000  0.4719430000000 1.0
C      1  0.4230750000000  0.4811030000000  0.5403800000000 1.0
C      1  0.4747490000000  0.4691620000000  0.5497730000000 1.0
C      1  0.5036360000000  0.4694650000000  0.4876250000000 1.0
C      1  0.4119660000000  0.5454810000000  0.5350920000000 1.0
C      1  0.4276370000000  0.4502510000000  0.4900270000000 1.0
C      1  0.4793890000000  0.5233170000000  0.4075950000000 1.0
C      1  0.4742460000000  0.5110940000000  0.5747780000000 1.0
C      1  0.3996460000000  0.4885440000000  0.4692460000000 1.0
C      1  0.4069040000000  0.4973190000000  0.5202100000000 1.0
C      1  0.4336180000000  0.4894940000000  0.4703750000000 1.0
C      1  0.5071320000000  0.4199620000000  0.5710050000000 1.0
C      1  0.5610870000000  0.4085420000000  0.5034030000000 1.0
C      1  0.5316010000000  0.5354250000000  0.4380100000000 1.0
C      1  0.4082070000000  0.5410660000000  0.5033150000000 1.0
C      1  0.4001740000000  0.4609490000000  0.4761000000000 1.0
C      1  0.4748550000000  0.5052140000000  0.4429400000000 1.0
C      1  0.5147700000000  0.4634360000000  0.5496880000000 1.0
C      1  0.4863220000000  0.4442650000000  0.4210790000000 1.0
C      1  0.5970360000000  0.5363950000000  0.5158450000000 1.0
C      1  0.5048310000000  0.5797110000000  0.5635760000000 1.0
C      1  0.5842410000000  0.5279300000000  0.4542170000000 1.0
C      1  0.4921050000000  0.4131390000000  0.4325360000000 1.0
C      1  0.5317810000000  0.5712100000000  0.5353910000000 1.0
C      1  0.5157350000000  0.5677560000000  0.4208040000000 1.0
C      1  0.4462810000000  0.5828610000000  0.4801080000000 1.0
C      1  0.4582740000000  0.5754960000000  0.5496120000000 1.0
C      1  0.5480350000000  0.4246520000000  0.5270050000000 1.0
C      1  0.5317650000000  0.4804460000000  0.4728710000000 1.0
C      1  0.4349330000000  0.5021270000000  0.5588350000000 1.0
C      1  0.4775290000000  0.5376320000000  0.5545020000000 1.0
C      1  0.5365310000000  0.5919810000000  0.4670440000000 1.0
C      1  0.4399390000000  0.4933010000000  0.5900990000000 1.0
C      1  0.4820770000000  0.5647610000000  0.4246890000000 1.0
C      1  0.5135260000000  0.4967140000000  0.5050070000000 1.0
C      1  0.4335730000000  0.4857420000000  0.4366800000000 1.0
C      1  0.4997300000000  0.4392260000000  0.5311370000000 1.0
C      1  0.5464390000000  0.4670740000000  0.5747340000000 1.0
C      1  0.5649680000000  0.4448680000000  0.5449330000000 1.0
C      1  0.5001490000000  0.5203130000000  0.4571280000000 1.0
C      1  0.4346280000000  0.5120240000000  0.4220200000000 1.0
C      1  0.4523490000000  0.5635270000000  0.4256780000000 1.0
C      1  0.4381220000000  0.5699860000000  0.4538260000000 1.0
C      1  0.5510470000000  0.5486430000000  0.5766120000000 1.0
C      1  0.5909320000000  0.5576590000000  0.4946540000000 1.0
C      1  0.5417880000000  0.4627340000000  0.5348300000000 1.0
C      1  0.4339730000000  0.4176940000000  0.4975440000000 1.0
C      1  0.4837860000000  0.4794260000000  0.6039430000000 1.0
C      1  0.5479590000000  0.5611130000000  0.4674400000000 1.0
C      1  0.5070940000000  0.5355630000000  0.4140750000000 1.0
C      1  0.5860510000000  0.4748790000000  0.4609540000000 1.0
C      1  0.5782560000000  0.4593700000000  0.5717990000000 1.0
C      1  0.5134110000000  0.4877610000000  0.4187140000000 1.0
C      1  0.5685640000000  0.5863270000000  0.4573330000000 1.0
C      1  0.5340310000000  0.5687520000000  0.5647500000000 1.0
C      1  0.5073280000000  0.5293850000000  0.6078300000000 1.0
C      1  0.4582790000000  0.5450840000000  0.4775930000000 1.0
C      1  0.5472980000000  0.4381760000000  0.4463730000000 1.0
C      1  0.5245360000000  0.4387500000000  0.5078660000000 1.0
C      1  0.5073640000000  0.4949050000000  0.5377500000000 1.0
C      1  0.5926220000000  0.4608380000000  0.5353010000000 1.0
C      1  0.5178620000000  0.4889230000000  0.3849990000000 1.0
C      1  0.4803530000000  0.5536800000000  0.5246370000000 1.0
C      1  0.4829570000000  0.4613410000000  0.5114810000000 1.0
C      1  0.5636590000000  0.4829230000000  0.4140780000000 1.0
C      1  0.5801960000000  0.5557650000000  0.4668400000000 1.0
C      1  0.4245260000000  0.4302970000000  0.5244710000000 1.0
C      1  0.5241230000000  0.5405120000000  0.4703360000000 1.0
C      1  0.5480020000000  0.4568420000000  0.4911820000000 1.0
C      1  0.5585390000000  0.5225400000000  0.4209680000000 1.0
C      1  0.4925360000000  0.5510630000000  0.4487180000000 1.0
C      1  0.5655120000000  0.5606710000000  0.5167770000000 1.0
C      1  0.5763240000000  0.5380270000000  0.5652480000000 1.0
C      1  0.5299580000000  0.5139680000000  0.4046980000000 1.0
C      1  0.4248380000000  0.4183620000000  0.4661550000000 1.0
C      1  0.4465620000000  0.4608080000000  0.5367680000000 1.0
C      1  0.4537050000000  0.4620750000000  0.4711450000000 1.0
C      1  0.4455150000000  0.4294380000000  0.5493490000000 1.0
C      1  0.5751860000000  0.5111010000000  0.4781020000000 1.0
C      1  0.4683310000000  0.4635620000000  0.4142480000000 1.0
C      1  0.4242240000000  0.5047370000000  0.4992000000000 1.0
C      1  0.5339020000000  0.5258710000000  0.5929360000000 1.0
C      1  0.5309570000000  0.3995940000000  0.5011950000000 1.0
C      1  0.4523520000000  0.5620730000000  0.5064420000000 1.0
C      1  0.4500770000000  0.5564170000000  0.5765370000000 1.0
C      1  0.4954030000000  0.5536890000000  0.6052990000000 1.0
C      1  0.5011640000000  0.4961840000000  0.5680620000000 1.0
C      1  0.4629190000000  0.4114560000000  0.5012890000000 1.0
C      1  0.4835790000000  0.4694040000000  0.4635880000000 1.0
C      1  0.5157480000000  0.3997140000000  0.5539120000000 1.0
C      1  0.5822470000000  0.5101550000000  0.5665140000000 1.0
C      1  0.5459850000000  0.5866490000000  0.5151630000000 1.0
C      1  0.5854440000000  0.5491090000000  0.5414180000000 1.0
END
