TITL C-2847951-7423-496 -0.00129565702983947 125000 -1059.62108829102 0 0 193 (C1) n - 1
REM
REM in /home/bkarasulu/work/CARBON/AIRSS/Generating-Clusters/AIREBO/with-SteepDescent/Only-C1/SD-CG-opt/Try1-1.4A-POS3A/HFTN-CG
REM
REM
REM
REM
REM
REM ./C.cell (11c1c37f851c82e70ff6c80c92926a4b)
REM
REM compiler GCC version 9.2.1 20190827 (Red Hat 9.2.1-1)
REM options -cpp -mtune=generic -march=x86-64 -g -O0 -fpre-include=/usr/include/finclude/math-vector-fortran.h
REM seed -710610233 -1688553930 -1566094191 267308410 2124473506 1844068936 672905496 -303414419 -1373657462 1192993598 -2123960943 459588601 436508443 1379743064 2027415650 -1136274118 -500773789 1776581963 -392156531 1090736793 241131332 315650286 1902891830 -426008411 1972680196 7460898 1141201951 1875332981 -908087146 405551551 1962023364 1336174466 -854010801
REM
CELL 1.54180   50.00000   50.00000   50.00000   90.00000   90.00000   90.00000
LATT -1
SFAC C  
C      1  0.5870220000000  0.6055000000000  0.5010860000000 1.0
C      1  0.5915000000000  0.4945680000000  0.5186010000000 1.0
C      1  0.4532450000000  0.5695900000000  0.5829210000000 1.0
C      1  0.5270160000000  0.5252010000000  0.4181420000000 1.0
C      1  0.5279170000000  0.4290550000000  0.4230820000000 1.0
C      1  0.5011230000000  0.4346060000000  0.5027960000000 1.0
C      1  0.4709680000000  0.5409000000000  0.5614440000000 1.0
C      1  0.4176110000000  0.4469660000000  0.5265940000000 1.0
C      1  0.5298270000000  0.3821490000000  0.5131850000000 1.0
C      1  0.5285560000000  0.5921440000000  0.5584160000000 1.0
C      1  0.6154850000000  0.4880180000000  0.4678060000000 1.0
C      1  0.4536550000000  0.3969960000000  0.5212390000000 1.0
C      1  0.4918290000000  0.5528710000000  0.5183010000000 1.0
C      1  0.5011790000000  0.4669330000000  0.5072210000000 1.0
C      1  0.3733820000000  0.5035340000000  0.4852080000000 1.0
C      1  0.4755880000000  0.4313310000000  0.4220060000000 1.0
C      1  0.5353330000000  0.4644130000000  0.4397730000000 1.0
C      1  0.4233640000000  0.5607480000000  0.4678480000000 1.0
C      1  0.4197400000000  0.4209410000000  0.4454410000000 1.0
C      1  0.4887850000000  0.5037310000000  0.4883870000000 1.0
C      1  0.5403990000000  0.4172620000000  0.4775670000000 1.0
C      1  0.4584480000000  0.4769650000000  0.4354750000000 1.0
C      1  0.5571700000000  0.4645540000000  0.5644140000000 1.0
C      1  0.4271530000000  0.5469970000000  0.4015420000000 1.0
C      1  0.4506990000000  0.5365890000000  0.5872770000000 1.0
C      1  0.4115440000000  0.4472060000000  0.4498620000000 1.0
C      1  0.5531020000000  0.4548480000000  0.4735240000000 1.0
C      1  0.4643840000000  0.5135060000000  0.4038060000000 1.0
C      1  0.4817270000000  0.5283480000000  0.5350390000000 1.0
C      1  0.3945720000000  0.4300260000000  0.5121060000000 1.0
C      1  0.5171890000000  0.5044950000000  0.5057420000000 1.0
C      1  0.3813580000000  0.5295250000000  0.4677040000000 1.0
C      1  0.5039270000000  0.5068230000000  0.5369670000000 1.0
C      1  0.5211660000000  0.5351490000000  0.4630060000000 1.0
C      1  0.4509220000000  0.4523110000000  0.4544160000000 1.0
C      1  0.5104230000000  0.5785150000000  0.5136710000000 1.0
C      1  0.4972830000000  0.5414750000000  0.6038070000000 1.0
C      1  0.5459190000000  0.5614330000000  0.5397840000000 1.0
C      1  0.4613190000000  0.4476880000000  0.5316460000000 1.0
C      1  0.5090620000000  0.4843970000000  0.4721410000000 1.0
C      1  0.4244310000000  0.5334530000000  0.4264080000000 1.0
C      1  0.3862330000000  0.5110170000000  0.5487630000000 1.0
C      1  0.5411100000000  0.4696850000000  0.5919320000000 1.0
C      1  0.5827510000000  0.4944250000000  0.5714610000000 1.0
C      1  0.4013490000000  0.5513190000000  0.4826670000000 1.0
C      1  0.5433720000000  0.5226690000000  0.5941860000000 1.0
C      1  0.4556850000000  0.4640000000000  0.5926500000000 1.0
C      1  0.4707000000000  0.5225830000000  0.6072820000000 1.0
C      1  0.5103990000000  0.5064920000000  0.4361390000000 1.0
C      1  0.4854040000000  0.4084180000000  0.4346470000000 1.0
C      1  0.5663790000000  0.5522230000000  0.5620830000000 1.0
C      1  0.5238420000000  0.3886440000000  0.4551840000000 1.0
C      1  0.5041050000000  0.5640780000000  0.4576630000000 1.0
C      1  0.4725920000000  0.4103490000000  0.5621570000000 1.0
C      1  0.4614800000000  0.5998190000000  0.5227730000000 1.0
C      1  0.5233480000000  0.5006170000000  0.3876920000000 1.0
C      1  0.5407360000000  0.5471500000000  0.4379050000000 1.0
C      1  0.4248710000000  0.5238780000000  0.4993540000000 1.0
C      1  0.5918940000000  0.4919890000000  0.4877220000000 1.0
C      1  0.4547220000000  0.5255940000000  0.4343760000000 1.0
C      1  0.5108570000000  0.6075880000000  0.4556150000000 1.0
C      1  0.4806100000000  0.5957110000000  0.5481730000000 1.0
C      1  0.6002410000000  0.4445780000000  0.5527570000000 1.0
C      1  0.5896230000000  0.4460380000000  0.5039300000000 1.0
C      1  0.4093960000000  0.4785580000000  0.5170430000000 1.0
C      1  0.5064760000000  0.4195070000000  0.4769030000000 1.0
C      1  0.5069150000000  0.4361470000000  0.5356540000000 1.0
C      1  0.4609280000000  0.4999160000000  0.5758710000000 1.0
C      1  0.4932550000000  0.6114010000000  0.4820620000000 1.0
C      1  0.5056830000000  0.5439560000000  0.4919720000000 1.0
C      1  0.4471310000000  0.5540260000000  0.5410580000000 1.0
C      1  0.5162420000000  0.4530150000000  0.4061740000000 1.0
C      1  0.4899820000000  0.5061210000000  0.5669590000000 1.0
C      1  0.5488450000000  0.5532030000000  0.5841900000000 1.0
C      1  0.5860240000000  0.4483710000000  0.4701960000000 1.0
C      1  0.5189690000000  0.5425200000000  0.5483420000000 1.0
C      1  0.5559470000000  0.4304340000000  0.4513820000000 1.0
C      1  0.5986050000000  0.5475850000000  0.4965380000000 1.0
C      1  0.6206690000000  0.5011860000000  0.5335730000000 1.0
C      1  0.4021670000000  0.5427000000000  0.5132310000000 1.0
C      1  0.4396680000000  0.4219660000000  0.5332810000000 1.0
C      1  0.5017850000000  0.5450370000000  0.4293910000000 1.0
C      1  0.5426950000000  0.5728600000000  0.5086270000000 1.0
C      1  0.5128360000000  0.4191710000000  0.5604560000000 1.0
C      1  0.4106430000000  0.5133020000000  0.4744860000000 1.0
C      1  0.5393690000000  0.5597570000000  0.4781460000000 1.0
C      1  0.4592320000000  0.4905620000000  0.6071210000000 1.0
C      1  0.4697940000000  0.4788800000000  0.5017330000000 1.0
C      1  0.5500160000000  0.5020490000000  0.4085430000000 1.0
C      1  0.5061760000000  0.4346850000000  0.5853000000000 1.0
C      1  0.4574650000000  0.5258280000000  0.4990210000000 1.0
C      1  0.4528090000000  0.4270650000000  0.4845120000000 1.0
C      1  0.5287500000000  0.3874230000000  0.4855620000000 1.0
C      1  0.5112920000000  0.4790740000000  0.4272860000000 1.0
C      1  0.4586930000000  0.5462970000000  0.4004570000000 1.0
C      1  0.6457070000000  0.4978610000000  0.5354110000000 1.0
C      1  0.5450040000000  0.4121170000000  0.5563790000000 1.0
C      1  0.4922460000000  0.5178590000000  0.4582230000000 1.0
C      1  0.4757440000000  0.5795950000000  0.5702400000000 1.0
C      1  0.5740960000000  0.5827960000000  0.5166740000000 1.0
C      1  0.4784120000000  0.5591380000000  0.4764280000000 1.0
C      1  0.4383790000000  0.5858730000000  0.4734120000000 1.0
C      1  0.5394470000000  0.6088090000000  0.4914680000000 1.0
C      1  0.4423920000000  0.4591560000000  0.5059930000000 1.0
C      1  0.5481560000000  0.4239570000000  0.5073200000000 1.0
C      1  0.5997470000000  0.5314810000000  0.4375520000000 1.0
C      1  0.4643550000000  0.4016900000000  0.4966550000000 1.0
C      1  0.4323310000000  0.4806160000000  0.5421200000000 1.0
C      1  0.5128420000000  0.4782870000000  0.5355490000000 1.0
C      1  0.5061160000000  0.4738250000000  0.3880400000000 1.0
C      1  0.5040030000000  0.4674520000000  0.5774260000000 1.0
C      1  0.5274400000000  0.5716050000000  0.5783650000000 1.0
C      1  0.5965220000000  0.4873550000000  0.4407230000000 1.0
C      1  0.5605920000000  0.4976030000000  0.5894340000000 1.0
C      1  0.4344950000000  0.5238870000000  0.5316410000000 1.0
C      1  0.5878450000000  0.4658190000000  0.5655630000000 1.0
C      1  0.4277670000000  0.4585940000000  0.4752870000000 1.0
C      1  0.5887500000000  0.4558230000000  0.4404490000000 1.0
C      1  0.5784490000000  0.5308750000000  0.4883490000000 1.0
C      1  0.4086080000000  0.4638060000000  0.4267330000000 1.0
C      1  0.4626420000000  0.5016150000000  0.4535520000000 1.0
C      1  0.5217220000000  0.5348240000000  0.6150520000000 1.0
C      1  0.4072840000000  0.4904580000000  0.5626080000000 1.0
C      1  0.4792650000000  0.4048750000000  0.4659380000000 1.0
C      1  0.4994540000000  0.5553870000000  0.5730620000000 1.0
C      1  0.5673460000000  0.4710050000000  0.4973170000000 1.0
C      1  0.5544130000000  0.5167920000000  0.4454570000000 1.0
C      1  0.4962060000000  0.4602490000000  0.4623550000000 1.0
C      1  0.5280270000000  0.5749040000000  0.4264180000000 1.0
C      1  0.5172330000000  0.5854510000000  0.4806350000000 1.0
C      1  0.5073470000000  0.5941220000000  0.4314930000000 1.0
C      1  0.4801300000000  0.5898190000000  0.4250490000000 1.0
C      1  0.5338490000000  0.4476280000000  0.5212780000000 1.0
C      1  0.4612540000000  0.5537250000000  0.5120290000000 1.0
C      1  0.5607400000000  0.4954140000000  0.5278180000000 1.0
C      1  0.4210270000000  0.5410740000000  0.5585770000000 1.0
C      1  0.4922910000000  0.5424300000000  0.3984540000000 1.0
C      1  0.6114290000000  0.4304440000000  0.4829290000000 1.0
C      1  0.5326400000000  0.5064520000000  0.4761020000000 1.0
C      1  0.4718120000000  0.5609550000000  0.4269090000000 1.0
C      1  0.5569650000000  0.4467140000000  0.4214920000000 1.0
C      1  0.4595680000000  0.5807840000000  0.4946610000000 1.0
C      1  0.5691220000000  0.4784140000000  0.4238380000000 1.0
C      1  0.5440110000000  0.4384200000000  0.5779150000000 1.0
C      1  0.4428330000000  0.5836060000000  0.5435100000000 1.0
C      1  0.4536150000000  0.5534660000000  0.4538630000000 1.0
C      1  0.4198170000000  0.4861680000000  0.4872960000000 1.0
C      1  0.5132100000000  0.4035220000000  0.4332170000000 1.0
C      1  0.4865020000000  0.4605240000000  0.4326610000000 1.0
C      1  0.4427790000000  0.6048080000000  0.4533090000000 1.0
C      1  0.4299790000000  0.5132870000000  0.5735830000000 1.0
C      1  0.5164130000000  0.4923290000000  0.5927520000000 1.0
C      1  0.5537080000000  0.5945720000000  0.5403020000000 1.0
C      1  0.5338080000000  0.4750640000000  0.5019310000000 1.0
C      1  0.5790500000000  0.5374030000000  0.5385040000000 1.0
C      1  0.3825500000000  0.4876050000000  0.5016800000000 1.0
C      1  0.4991220000000  0.3893330000000  0.5579750000000 1.0
C      1  0.4610260000000  0.5035290000000  0.5244460000000 1.0
C      1  0.5528720000000  0.4858420000000  0.4595040000000 1.0
C      1  0.6209270000000  0.5476350000000  0.4353160000000 1.0
C      1  0.4064830000000  0.5282200000000  0.4453610000000 1.0
C      1  0.4301430000000  0.4692160000000  0.4084740000000 1.0
C      1  0.5268350000000  0.3888060000000  0.5392490000000 1.0
C      1  0.5875960000000  0.4330000000000  0.5305090000000 1.0
C      1  0.4788850000000  0.4503830000000  0.5897280000000 1.0
C      1  0.5172910000000  0.4390920000000  0.4535510000000 1.0
C      1  0.5482580000000  0.6131570000000  0.5143330000000 1.0
C      1  0.5842940000000  0.5118380000000  0.4609080000000 1.0
C      1  0.4976050000000  0.5024610000000  0.6125100000000 1.0
C      1  0.5772330000000  0.5174460000000  0.4219540000000 1.0
C      1  0.4500910000000  0.4284790000000  0.5644670000000 1.0
C      1  0.3969170000000  0.5350900000000  0.5394780000000 1.0
C      1  0.4880640000000  0.4606670000000  0.5481560000000 1.0
C      1  0.4894470000000  0.5018430000000  0.3900950000000 1.0
C      1  0.5069590000000  0.5947830000000  0.5399200000000 1.0
C      1  0.5446430000000  0.4738060000000  0.5400990000000 1.0
C      1  0.5637950000000  0.4193320000000  0.5321760000000 1.0
C      1  0.4589700000000  0.6073240000000  0.4311750000000 1.0
C      1  0.4393940000000  0.4938430000000  0.3978760000000 1.0
C      1  0.5277060000000  0.5350490000000  0.5163300000000 1.0
C      1  0.5202470000000  0.5185080000000  0.5713500000000 1.0
C      1  0.4629890000000  0.4831300000000  0.5495140000000 1.0
C      1  0.5929660000000  0.5114690000000  0.5482540000000 1.0
C      1  0.4723030000000  0.4530330000000  0.4797830000000 1.0
C      1  0.4369940000000  0.4591300000000  0.5680840000000 1.0
C      1  0.5919910000000  0.5591870000000  0.5204070000000 1.0
C      1  0.5582730000000  0.5243210000000  0.5149640000000 1.0
C      1  0.4698880000000  0.3869140000000  0.5415840000000 1.0
C      1  0.4528540000000  0.4505280000000  0.4147360000000 1.0
C      1  0.4053700000000  0.4567440000000  0.5567860000000 1.0
C      1  0.4510080000000  0.4182550000000  0.4525260000000 1.0
C      1  0.4751900000000  0.6172210000000  0.4999460000000 1.0
C      1  0.4498090000000  0.4979730000000  0.4819180000000 1.0
END
