TITL C-2847945-6269-708 0.00166825665944273 125000 -566.302968538646 0 0 105 (C1) n - 1
REM
REM in /home/bkarasulu/work/CARBON/AIRSS/Generating-Clusters/AIREBO/with-SteepDescent/Only-C1/SD-CG-opt/Try1-1.4A-POS3A/HFTN-CG
REM
REM
REM
REM
REM
REM ./C.cell (11c1c37f851c82e70ff6c80c92926a4b)
REM
REM compiler GCC version 9.2.1 20190827 (Red Hat 9.2.1-1)
REM options -cpp -mtune=generic -march=x86-64 -g -O0 -fpre-include=/usr/include/finclude/math-vector-fortran.h
REM seed 309362119 51502032 427694908 1409881089 1429060050 635375420 -1449734695 1638307555 278221524 395373837 1995030956 1621520510 1663520331 -589718323 703678671 407548262 -1127494153 2127389520 -687359948 -674914347 -990259614 1501125359 417057146 -43593697 -1638960743 -923915673 144529502 -1019072260 -337197503 610093508 626743210 1464945815 393796292
REM
CELL 1.54180   50.00000   50.00000   50.00000   90.00000   90.00000   90.00000
LATT -1
SFAC C  
C      1  0.4661620000000  0.5077500000000  0.5140660000000 1.0
C      1  0.4858230000000  0.4377040000000  0.5154370000000 1.0
C      1  0.5823600000000  0.5194920000000  0.5239640000000 1.0
C      1  0.4724360000000  0.5061610000000  0.4131900000000 1.0
C      1  0.4958350000000  0.4283150000000  0.5404900000000 1.0
C      1  0.4838570000000  0.5873110000000  0.5037870000000 1.0
C      1  0.4321800000000  0.5250430000000  0.5694040000000 1.0
C      1  0.4575010000000  0.4892290000000  0.4609100000000 1.0
C      1  0.4419790000000  0.5702760000000  0.4621020000000 1.0
C      1  0.4307570000000  0.4788040000000  0.5416040000000 1.0
C      1  0.5582890000000  0.5394930000000  0.5261350000000 1.0
C      1  0.4156150000000  0.5200270000000  0.5194030000000 1.0
C      1  0.5696750000000  0.4655310000000  0.4946140000000 1.0
C      1  0.4888000000000  0.5609810000000  0.5206950000000 1.0
C      1  0.4815180000000  0.4856180000000  0.4334080000000 1.0
C      1  0.5445150000000  0.4295870000000  0.5137100000000 1.0
C      1  0.5694790000000  0.4482430000000  0.4455480000000 1.0
C      1  0.4742450000000  0.5678420000000  0.4555010000000 1.0
C      1  0.5820700000000  0.4452410000000  0.5459760000000 1.0
C      1  0.5384110000000  0.4630740000000  0.4814400000000 1.0
C      1  0.5221650000000  0.4611390000000  0.5961880000000 1.0
C      1  0.4946100000000  0.4578800000000  0.4718220000000 1.0
C      1  0.5065550000000  0.4401210000000  0.4462260000000 1.0
C      1  0.4405410000000  0.5625270000000  0.4949530000000 1.0
C      1  0.4410880000000  0.4574230000000  0.4785240000000 1.0
C      1  0.5126850000000  0.5781030000000  0.5491120000000 1.0
C      1  0.4352550000000  0.5175230000000  0.4434120000000 1.0
C      1  0.4784220000000  0.5335700000000  0.4756720000000 1.0
C      1  0.5090660000000  0.4737580000000  0.5168520000000 1.0
C      1  0.4177520000000  0.5497190000000  0.4652660000000 1.0
C      1  0.5521210000000  0.5414960000000  0.5563050000000 1.0
C      1  0.4544970000000  0.5808910000000  0.5172470000000 1.0
C      1  0.5049490000000  0.5427030000000  0.4659820000000 1.0
C      1  0.5543720000000  0.4898310000000  0.5771640000000 1.0
C      1  0.5476260000000  0.5006420000000  0.5200520000000 1.0
C      1  0.5370000000000  0.5140940000000  0.5680120000000 1.0
C      1  0.5217030000000  0.5500560000000  0.5606350000000 1.0
C      1  0.5014710000000  0.4639210000000  0.4241280000000 1.0
C      1  0.5353300000000  0.4497280000000  0.5747940000000 1.0
C      1  0.4958460000000  0.5819590000000  0.4767980000000 1.0
C      1  0.5221560000000  0.5006530000000  0.5429350000000 1.0
C      1  0.5954820000000  0.5103490000000  0.4992620000000 1.0
C      1  0.4059020000000  0.5002420000000  0.5349820000000 1.0
C      1  0.5442240000000  0.5647410000000  0.5081360000000 1.0
C      1  0.4439000000000  0.5034240000000  0.4886890000000 1.0
C      1  0.4578930000000  0.4381630000000  0.5005830000000 1.0
C      1  0.4862740000000  0.5317920000000  0.5632440000000 1.0
C      1  0.4540960000000  0.4586410000000  0.5272650000000 1.0
C      1  0.5672850000000  0.5301210000000  0.4790380000000 1.0
C      1  0.4833820000000  0.5622040000000  0.5542430000000 1.0
C      1  0.5702010000000  0.5543100000000  0.4911830000000 1.0
C      1  0.5097250000000  0.5419050000000  0.5323910000000 1.0
C      1  0.4678800000000  0.5463370000000  0.5023390000000 1.0
C      1  0.5727830000000  0.4920620000000  0.5389130000000 1.0
C      1  0.4455020000000  0.4425110000000  0.4493730000000 1.0
C      1  0.5228300000000  0.5832510000000  0.5242530000000 1.0
C      1  0.4699200000000  0.4731200000000  0.4854640000000 1.0
C      1  0.5383900000000  0.5581790000000  0.4510870000000 1.0
C      1  0.5215790000000  0.5207610000000  0.4529810000000 1.0
C      1  0.5252930000000  0.4093920000000  0.5106350000000 1.0
C      1  0.5650580000000  0.4980970000000  0.4902480000000 1.0
C      1  0.4544230000000  0.5400870000000  0.4526220000000 1.0
C      1  0.4450660000000  0.4698950000000  0.4372620000000 1.0
C      1  0.4773830000000  0.4782260000000  0.5266760000000 1.0
C      1  0.4848570000000  0.5039560000000  0.4859220000000 1.0
C      1  0.5351270000000  0.4551110000000  0.5283140000000 1.0
C      1  0.5121700000000  0.4471580000000  0.4961200000000 1.0
C      1  0.4925030000000  0.5149860000000  0.5343410000000 1.0
C      1  0.5826370000000  0.4657220000000  0.5234200000000 1.0
C      1  0.4451310000000  0.4990560000000  0.4242520000000 1.0
C      1  0.4162110000000  0.4767910000000  0.4781550000000 1.0
C      1  0.5530380000000  0.5297930000000  0.4517410000000 1.0
C      1  0.5317290000000  0.4660820000000  0.4294860000000 1.0
C      1  0.4931420000000  0.5238620000000  0.4075320000000 1.0
C      1  0.4445100000000  0.4993550000000  0.5644960000000 1.0
C      1  0.5128550000000  0.4506750000000  0.5516140000000 1.0
C      1  0.5115600000000  0.5295070000000  0.5840430000000 1.0
C      1  0.5401190000000  0.5083980000000  0.4102470000000 1.0
C      1  0.4205800000000  0.5038060000000  0.4639330000000 1.0
C      1  0.5289420000000  0.5272770000000  0.5140620000000 1.0
C      1  0.4970380000000  0.4806570000000  0.5543230000000 1.0
C      1  0.5084140000000  0.4146360000000  0.4868950000000 1.0
C      1  0.4395910000000  0.4431990000000  0.5521880000000 1.0
C      1  0.4433850000000  0.5284730000000  0.5269900000000 1.0
C      1  0.4548240000000  0.5699180000000  0.5441580000000 1.0
C      1  0.5559740000000  0.4658470000000  0.5531060000000 1.0
C      1  0.5803830000000  0.4711550000000  0.4456160000000 1.0
C      1  0.4913020000000  0.4189060000000  0.4640250000000 1.0
C      1  0.5130950000000  0.5013010000000  0.5010450000000 1.0
C      1  0.5104490000000  0.4043700000000  0.5347550000000 1.0
C      1  0.4645490000000  0.4268330000000  0.4691430000000 1.0
C      1  0.4725460000000  0.5013420000000  0.5656590000000 1.0
C      1  0.5069200000000  0.5706340000000  0.4466900000000 1.0
C      1  0.4257480000000  0.5320600000000  0.4914890000000 1.0
C      1  0.5176130000000  0.5214500000000  0.4213730000000 1.0
C      1  0.4972350000000  0.4876130000000  0.4590400000000 1.0
C      1  0.5252440000000  0.5655470000000  0.4815650000000 1.0
C      1  0.5389790000000  0.4467770000000  0.4540120000000 1.0
C      1  0.5640970000000  0.4978600000000  0.4555460000000 1.0
C      1  0.4270610000000  0.4805340000000  0.5078410000000 1.0
C      1  0.4403650000000  0.5453900000000  0.5501930000000 1.0
C      1  0.5631750000000  0.4346760000000  0.4948200000000 1.0
C      1  0.5009490000000  0.4770930000000  0.5879220000000 1.0
C      1  0.5255520000000  0.4934150000000  0.4728550000000 1.0
C      1  0.5492180000000  0.4875100000000  0.4267480000000 1.0
END
