TITL C-2847951-7423-278 -0.000545597973822877 125000 -554.418702271843 0 0 101 (C1) n - 1
REM
REM in /home/bkarasulu/work/CARBON/AIRSS/Generating-Clusters/AIREBO/with-SteepDescent/Only-C1/SD-CG-opt/Try1-1.4A-POS3A/HFTN-CG
REM
REM
REM
REM
REM
REM ./C.cell (11c1c37f851c82e70ff6c80c92926a4b)
REM
REM compiler GCC version 9.2.1 20190827 (Red Hat 9.2.1-1)
REM options -cpp -mtune=generic -march=x86-64 -g -O0 -fpre-include=/usr/include/finclude/math-vector-fortran.h
REM seed 2067151211 -795054392 -1375562808 1184591906 739542145 1227426726 1075998993 1747639253 1490391768 -1154272489 -483442710 647421099 -1362057739 -1477050917 370473148 -235179486 1852962981 -743350827 2058970938 1973367955 -1896027106 -295485642 1478455510 -2137709574 1441822324 1537615894 1364859313 -71993101 1646687013 1170215255 -869352603 -634742714 -2076247654
REM
CELL 1.54180   50.00000   50.00000   50.00000   90.00000   90.00000   90.00000
LATT -1
SFAC C  
C      1  0.5638020000000  0.4903450000000  0.4489950000000 1.0
C      1  0.4739170000000  0.5806060000000  0.4754100000000 1.0
C      1  0.4261930000000  0.4841360000000  0.5411910000000 1.0
C      1  0.4709990000000  0.4882310000000  0.4738100000000 1.0
C      1  0.5308760000000  0.4460130000000  0.5581860000000 1.0
C      1  0.5414790000000  0.4518860000000  0.4688500000000 1.0
C      1  0.5949400000000  0.5253950000000  0.5460740000000 1.0
C      1  0.4292630000000  0.4396460000000  0.5007620000000 1.0
C      1  0.5246570000000  0.5386850000000  0.5262120000000 1.0
C      1  0.5325730000000  0.4201010000000  0.5087040000000 1.0
C      1  0.5050220000000  0.3987790000000  0.4772440000000 1.0
C      1  0.5091820000000  0.4741020000000  0.5418680000000 1.0
C      1  0.4462420000000  0.5134640000000  0.5589510000000 1.0
C      1  0.4942030000000  0.5030630000000  0.5478030000000 1.0
C      1  0.4500230000000  0.4648750000000  0.5414130000000 1.0
C      1  0.5714640000000  0.5354560000000  0.5557910000000 1.0
C      1  0.4656150000000  0.5445920000000  0.4603440000000 1.0
C      1  0.5739490000000  0.4791580000000  0.5381630000000 1.0
C      1  0.5458250000000  0.5156830000000  0.5622390000000 1.0
C      1  0.4543300000000  0.5041620000000  0.4101100000000 1.0
C      1  0.5039100000000  0.4881950000000  0.5121830000000 1.0
C      1  0.5717500000000  0.5238680000000  0.5135960000000 1.0
C      1  0.5604250000000  0.5223940000000  0.4599180000000 1.0
C      1  0.4769360000000  0.5113540000000  0.4413470000000 1.0
C      1  0.4587170000000  0.5197170000000  0.4775920000000 1.0
C      1  0.4887850000000  0.5644450000000  0.5443930000000 1.0
C      1  0.5055590000000  0.5504710000000  0.5763320000000 1.0
C      1  0.4982050000000  0.4202370000000  0.4599860000000 1.0
C      1  0.4809980000000  0.4195270000000  0.5475500000000 1.0
C      1  0.4817300000000  0.4142290000000  0.5185580000000 1.0
C      1  0.4943390000000  0.5605800000000  0.4831060000000 1.0
C      1  0.4982430000000  0.4459320000000  0.5571390000000 1.0
C      1  0.5247420000000  0.5609930000000  0.4270370000000 1.0
C      1  0.5357100000000  0.4865590000000  0.4297340000000 1.0
C      1  0.4314050000000  0.6040250000000  0.5154260000000 1.0
C      1  0.4291780000000  0.4705220000000  0.4487780000000 1.0
C      1  0.4134260000000  0.5253930000000  0.5187060000000 1.0
C      1  0.5707810000000  0.4578360000000  0.5160080000000 1.0
C      1  0.4928140000000  0.5402200000000  0.4487990000000 1.0
C      1  0.4185690000000  0.5349060000000  0.4920360000000 1.0
C      1  0.5220190000000  0.5467210000000  0.4953020000000 1.0
C      1  0.5194550000000  0.5682850000000  0.5525520000000 1.0
C      1  0.4289430000000  0.5317950000000  0.5420300000000 1.0
C      1  0.5088510000000  0.4061460000000  0.5046960000000 1.0
C      1  0.4181860000000  0.4852360000000  0.4701380000000 1.0
C      1  0.5294090000000  0.5049100000000  0.5265260000000 1.0
C      1  0.4827940000000  0.4417880000000  0.5019610000000 1.0
C      1  0.5660600000000  0.5720700000000  0.4778570000000 1.0
C      1  0.5419950000000  0.4417610000000  0.5299200000000 1.0
C      1  0.5840230000000  0.4687930000000  0.4900990000000 1.0
C      1  0.5400650000000  0.4606350000000  0.5016780000000 1.0
C      1  0.5465940000000  0.4246040000000  0.4852260000000 1.0
C      1  0.5341310000000  0.5390250000000  0.4181730000000 1.0
C      1  0.5269100000000  0.5149560000000  0.4943530000000 1.0
C      1  0.4655170000000  0.4453350000000  0.5620340000000 1.0
C      1  0.5197440000000  0.4744770000000  0.5741910000000 1.0
C      1  0.5072530000000  0.4577340000000  0.5055530000000 1.0
C      1  0.4908150000000  0.4889790000000  0.5848680000000 1.0
C      1  0.4664190000000  0.5628840000000  0.5234140000000 1.0
C      1  0.5361200000000  0.5167390000000  0.4394420000000 1.0
C      1  0.5492850000000  0.4925980000000  0.4945420000000 1.0
C      1  0.4561900000000  0.4600510000000  0.4618170000000 1.0
C      1  0.5124520000000  0.5175360000000  0.4576500000000 1.0
C      1  0.4530890000000  0.4151640000000  0.5030210000000 1.0
C      1  0.4514050000000  0.5022270000000  0.5272790000000 1.0
C      1  0.4745780000000  0.5394300000000  0.5003470000000 1.0
C      1  0.5167930000000  0.5267420000000  0.5570590000000 1.0
C      1  0.5185720000000  0.4669660000000  0.4487210000000 1.0
C      1  0.4261160000000  0.4721070000000  0.4942540000000 1.0
C      1  0.5771540000000  0.5711800000000  0.5028280000000 1.0
C      1  0.4454790000000  0.4295440000000  0.4731640000000 1.0
C      1  0.4367570000000  0.5769580000000  0.5142390000000 1.0
C      1  0.5755310000000  0.5073520000000  0.4840860000000 1.0
C      1  0.4440030000000  0.5183850000000  0.4394770000000 1.0
C      1  0.6029990000000  0.4916450000000  0.4965330000000 1.0
C      1  0.4851470000000  0.4987340000000  0.4108620000000 1.0
C      1  0.4271850000000  0.5142230000000  0.4688260000000 1.0
C      1  0.4771970000000  0.4363380000000  0.4723000000000 1.0
C      1  0.4748040000000  0.5242740000000  0.5296420000000 1.0
C      1  0.5676800000000  0.4695080000000  0.4675710000000 1.0
C      1  0.4883000000000  0.4796130000000  0.4458230000000 1.0
C      1  0.5104790000000  0.4895740000000  0.4080450000000 1.0
C      1  0.5994660000000  0.5083700000000  0.5208460000000 1.0
C      1  0.4271810000000  0.5619980000000  0.4895720000000 1.0
C      1  0.4737980000000  0.4784050000000  0.5594010000000 1.0
C      1  0.4686390000000  0.5126440000000  0.5790570000000 1.0
C      1  0.4784790000000  0.5369910000000  0.5609600000000 1.0
C      1  0.5459650000000  0.5495380000000  0.4713870000000 1.0
C      1  0.4443960000000  0.5690330000000  0.4662840000000 1.0
C      1  0.5432870000000  0.4926380000000  0.5823370000000 1.0
C      1  0.4724580000000  0.4633630000000  0.4242890000000 1.0
C      1  0.4565740000000  0.4542790000000  0.5128980000000 1.0
C      1  0.4545180000000  0.4841070000000  0.5032670000000 1.0
C      1  0.5175740000000  0.5601680000000  0.4582280000000 1.0
C      1  0.5150590000000  0.4346310000000  0.4443950000000 1.0
C      1  0.5008350000000  0.4999670000000  0.4817770000000 1.0
C      1  0.4406960000000  0.5513280000000  0.4381600000000 1.0
C      1  0.4384840000000  0.5576730000000  0.5402910000000 1.0
C      1  0.5472420000000  0.5560360000000  0.5436700000000 1.0
C      1  0.5597640000000  0.5035470000000  0.5348280000000 1.0
C      1  0.5683130000000  0.5524850000000  0.5199160000000 1.0
END
