TITL C-2847959-7740-467 0.000682149215207636 125000 -869.183147553969 0 0 164 (C1) n - 1
REM
REM in /home/bkarasulu/work/CARBON/AIRSS/Generating-Clusters/AIREBO/with-SteepDescent/Only-C1/SD-CG-opt/Try1-1.4A-POS3A/HFTN-CG
REM
REM
REM
REM
REM
REM ./C.cell (11c1c37f851c82e70ff6c80c92926a4b)
REM
REM compiler GCC version 9.2.1 20190827 (Red Hat 9.2.1-1)
REM options -cpp -mtune=generic -march=x86-64 -g -O0 -fpre-include=/usr/include/finclude/math-vector-fortran.h
REM seed -1266659451 67668370 -1785479704 -1300395114 -1875324700 -1681599988 1422124234 1305847154 -157646136 706301486 -841227582 1506090420 -1264419787 1725644959 266457003 -581435304 755793527 2067123475 1971343652 -1573686126 769844074 83300568 -448920846 2130852195 -885207814 700894081 148328613 1722687110 -739204175 2073939766 1705791976 1996721167 -1475264018
REM
CELL 1.54180   50.00000   50.00000   50.00000   90.00000   90.00000   90.00000
LATT -1
SFAC C  
C      1  0.5622310000000  0.5448770000000  0.5188590000000 1.0
C      1  0.4998540000000  0.4476890000000  0.5136480000000 1.0
C      1  0.4021310000000  0.4976900000000  0.5294260000000 1.0
C      1  0.5529100000000  0.5199340000000  0.4976980000000 1.0
C      1  0.5028800000000  0.5754240000000  0.4448310000000 1.0
C      1  0.5474360000000  0.4427510000000  0.4984990000000 1.0
C      1  0.5053370000000  0.4519860000000  0.4624300000000 1.0
C      1  0.5804660000000  0.5495130000000  0.5473820000000 1.0
C      1  0.5619630000000  0.4488770000000  0.4682690000000 1.0
C      1  0.4923710000000  0.4897020000000  0.4635570000000 1.0
C      1  0.4371040000000  0.5682580000000  0.5558670000000 1.0
C      1  0.5509500000000  0.5177300000000  0.5786500000000 1.0
C      1  0.5840570000000  0.5542720000000  0.4945400000000 1.0
C      1  0.5959030000000  0.4974690000000  0.4477110000000 1.0
C      1  0.5177370000000  0.6082680000000  0.5120390000000 1.0
C      1  0.4929820000000  0.5303960000000  0.5660000000000 1.0
C      1  0.5061980000000  0.3998200000000  0.4809630000000 1.0
C      1  0.5056400000000  0.4255990000000  0.5376840000000 1.0
C      1  0.4972330000000  0.5067200000000  0.3989530000000 1.0
C      1  0.5063690000000  0.5533140000000  0.5833550000000 1.0
C      1  0.5500070000000  0.5525350000000  0.4218410000000 1.0
C      1  0.5023450000000  0.4811390000000  0.5483610000000 1.0
C      1  0.5266320000000  0.5008830000000  0.4027370000000 1.0
C      1  0.5354350000000  0.5339670000000  0.4633080000000 1.0
C      1  0.5547920000000  0.5485100000000  0.5647060000000 1.0
C      1  0.5373260000000  0.4099680000000  0.4480580000000 1.0
C      1  0.4693940000000  0.4606090000000  0.5214860000000 1.0
C      1  0.5267720000000  0.5888230000000  0.5453650000000 1.0
C      1  0.5695960000000  0.4518730000000  0.5616140000000 1.0
C      1  0.6008960000000  0.4462070000000  0.5374750000000 1.0
C      1  0.4451990000000  0.5139270000000  0.4498400000000 1.0
C      1  0.5099620000000  0.5156820000000  0.4767190000000 1.0
C      1  0.4472550000000  0.5918700000000  0.5386060000000 1.0
C      1  0.5860430000000  0.4746730000000  0.5422120000000 1.0
C      1  0.4821980000000  0.4313620000000  0.4764350000000 1.0
C      1  0.4542530000000  0.4302500000000  0.5190890000000 1.0
C      1  0.5535300000000  0.4636930000000  0.4388290000000 1.0
C      1  0.5638850000000  0.4224560000000  0.4542830000000 1.0
C      1  0.4855600000000  0.4234620000000  0.5624660000000 1.0
C      1  0.4694620000000  0.5791950000000  0.4989160000000 1.0
C      1  0.5243060000000  0.5498500000000  0.5477750000000 1.0
C      1  0.4687080000000  0.5208430000000  0.5215230000000 1.0
C      1  0.5213840000000  0.4201040000000  0.4195230000000 1.0
C      1  0.4185750000000  0.5564610000000  0.4724090000000 1.0
C      1  0.4420500000000  0.4967260000000  0.4945910000000 1.0
C      1  0.5908500000000  0.5212120000000  0.5344230000000 1.0
C      1  0.4538840000000  0.5056940000000  0.4118440000000 1.0
C      1  0.4461530000000  0.5600550000000  0.5056040000000 1.0
C      1  0.4533200000000  0.4279450000000  0.5525930000000 1.0
C      1  0.5476620000000  0.6057940000000  0.4967450000000 1.0
C      1  0.5415510000000  0.4746150000000  0.5087990000000 1.0
C      1  0.4492140000000  0.4690850000000  0.5732060000000 1.0
C      1  0.5286060000000  0.5178980000000  0.5530170000000 1.0
C      1  0.5594650000000  0.5773440000000  0.4424190000000 1.0
C      1  0.5290970000000  0.4728860000000  0.4583760000000 1.0
C      1  0.5057760000000  0.4491470000000  0.5852810000000 1.0
C      1  0.5116890000000  0.5758470000000  0.5202990000000 1.0
C      1  0.4140520000000  0.5113690000000  0.4441590000000 1.0
C      1  0.4759280000000  0.4609950000000  0.5537910000000 1.0
C      1  0.4660550000000  0.4501610000000  0.4567870000000 1.0
C      1  0.5491150000000  0.4947300000000  0.4751420000000 1.0
C      1  0.4546700000000  0.5731860000000  0.4688060000000 1.0
C      1  0.5880820000000  0.4259850000000  0.5295240000000 1.0
C      1  0.4383490000000  0.5988720000000  0.4840040000000 1.0
C      1  0.5163490000000  0.4181580000000  0.5759140000000 1.0
C      1  0.4425020000000  0.4320190000000  0.4433010000000 1.0
C      1  0.4775970000000  0.5962540000000  0.5432140000000 1.0
C      1  0.5574960000000  0.5180430000000  0.5392100000000 1.0
C      1  0.4148630000000  0.5723000000000  0.5022680000000 1.0
C      1  0.5162610000000  0.3996260000000  0.5274880000000 1.0
C      1  0.4954890000000  0.3926810000000  0.5098410000000 1.0
C      1  0.5741520000000  0.4814740000000  0.4266350000000 1.0
C      1  0.4274610000000  0.4502510000000  0.5550870000000 1.0
C      1  0.4820210000000  0.5368460000000  0.4009360000000 1.0
C      1  0.5388570000000  0.4072250000000  0.4813310000000 1.0
C      1  0.5241320000000  0.5017540000000  0.4425650000000 1.0
C      1  0.5283810000000  0.5468660000000  0.5141460000000 1.0
C      1  0.4072220000000  0.4629690000000  0.4737510000000 1.0
C      1  0.5229580000000  0.5142060000000  0.5063940000000 1.0
C      1  0.4909010000000  0.5777440000000  0.5776650000000 1.0
C      1  0.4375560000000  0.5346010000000  0.5243880000000 1.0
C      1  0.5087370000000  0.4493510000000  0.4076420000000 1.0
C      1  0.4353470000000  0.4440230000000  0.4944110000000 1.0
C      1  0.5189970000000  0.6099650000000  0.4787770000000 1.0
C      1  0.4422980000000  0.5478490000000  0.4495860000000 1.0
C      1  0.4959860000000  0.5363120000000  0.5346910000000 1.0
C      1  0.5106840000000  0.5541490000000  0.4870020000000 1.0
C      1  0.4496480000000  0.4081380000000  0.4628030000000 1.0
C      1  0.4682550000000  0.5612230000000  0.5598500000000 1.0
C      1  0.4611040000000  0.4834170000000  0.4516610000000 1.0
C      1  0.4800820000000  0.4536560000000  0.4118730000000 1.0
C      1  0.5445760000000  0.5653860000000  0.4691940000000 1.0
C      1  0.4052780000000  0.4502770000000  0.5055110000000 1.0
C      1  0.5607500000000  0.5000140000000  0.4007520000000 1.0
C      1  0.5007030000000  0.4816170000000  0.4316760000000 1.0
C      1  0.3993920000000  0.5063470000000  0.4641460000000 1.0
C      1  0.5938260000000  0.4930350000000  0.4957150000000 1.0
C      1  0.5190330000000  0.4938960000000  0.5751160000000 1.0
C      1  0.4904890000000  0.5995040000000  0.4942680000000 1.0
C      1  0.4435290000000  0.4818670000000  0.5220310000000 1.0
C      1  0.4668230000000  0.4412330000000  0.5815880000000 1.0
C      1  0.4802050000000  0.5657880000000  0.5283030000000 1.0
C      1  0.5439340000000  0.5295650000000  0.4001800000000 1.0
C      1  0.3963750000000  0.4821100000000  0.4997040000000 1.0
C      1  0.4564440000000  0.5381360000000  0.4201910000000 1.0
C      1  0.4343930000000  0.5084950000000  0.5738560000000 1.0
C      1  0.5290240000000  0.4710970000000  0.4174940000000 1.0
C      1  0.5783110000000  0.5145330000000  0.4248300000000 1.0
C      1  0.5136590000000  0.5307560000000  0.4400480000000 1.0
C      1  0.5567250000000  0.4279330000000  0.5276670000000 1.0
C      1  0.4790620000000  0.5618020000000  0.4503530000000 1.0
C      1  0.5610200000000  0.5159720000000  0.4540810000000 1.0
C      1  0.4505170000000  0.5383730000000  0.4872160000000 1.0
C      1  0.4221270000000  0.5451740000000  0.5494300000000 1.0
C      1  0.5173490000000  0.4275510000000  0.4973540000000 1.0
C      1  0.5037740000000  0.5992600000000  0.5605150000000 1.0
C      1  0.4700870000000  0.4860750000000  0.5939910000000 1.0
C      1  0.4916120000000  0.4679660000000  0.4891260000000 1.0
C      1  0.5165770000000  0.5179810000000  0.5989960000000 1.0
C      1  0.5986470000000  0.5102420000000  0.4726290000000 1.0
C      1  0.5724180000000  0.4975860000000  0.5614580000000 1.0
C      1  0.5150310000000  0.4878490000000  0.5185680000000 1.0
C      1  0.4820570000000  0.4909250000000  0.5123190000000 1.0
C      1  0.4805320000000  0.4005570000000  0.4621320000000 1.0
C      1  0.4166250000000  0.4669440000000  0.5306110000000 1.0
C      1  0.5421090000000  0.4016690000000  0.5148760000000 1.0
C      1  0.4496840000000  0.4935290000000  0.5496920000000 1.0
C      1  0.4042180000000  0.5212270000000  0.5419640000000 1.0
C      1  0.4821110000000  0.5304330000000  0.4522700000000 1.0
C      1  0.4674120000000  0.4294940000000  0.4232270000000 1.0
C      1  0.4130090000000  0.5095580000000  0.4928570000000 1.0
C      1  0.4821320000000  0.5090640000000  0.4293270000000 1.0
C      1  0.4131490000000  0.5383590000000  0.5006850000000 1.0
C      1  0.4340720000000  0.4023690000000  0.5155760000000 1.0
C      1  0.5168600000000  0.4509930000000  0.5544370000000 1.0
C      1  0.5890240000000  0.5374880000000  0.4727700000000 1.0
C      1  0.5695320000000  0.4745130000000  0.4894600000000 1.0
C      1  0.5997440000000  0.4965130000000  0.5235720000000 1.0
C      1  0.5136330000000  0.5409790000000  0.4105770000000 1.0
C      1  0.5434490000000  0.4302680000000  0.5589000000000 1.0
C      1  0.4651100000000  0.5147180000000  0.4771920000000 1.0
C      1  0.4398960000000  0.4720580000000  0.4757120000000 1.0
C      1  0.5498380000000  0.4606470000000  0.5343180000000 1.0
C      1  0.4785500000000  0.5048150000000  0.5506160000000 1.0
C      1  0.4904580000000  0.5255300000000  0.6074330000000 1.0
C      1  0.5355010000000  0.5446210000000  0.5926140000000 1.0
C      1  0.4553390000000  0.5114710000000  0.5926760000000 1.0
C      1  0.5722590000000  0.5467180000000  0.4471940000000 1.0
C      1  0.4634270000000  0.4759790000000  0.4185490000000 1.0
C      1  0.5204400000000  0.5694310000000  0.4239760000000 1.0
C      1  0.5597290000000  0.5765810000000  0.4948370000000 1.0
C      1  0.5482190000000  0.5007780000000  0.6061750000000 1.0
C      1  0.4140220000000  0.4452000000000  0.4500990000000 1.0
C      1  0.4774060000000  0.4161810000000  0.5031610000000 1.0
C      1  0.5461180000000  0.4763270000000  0.5642610000000 1.0
C      1  0.4338130000000  0.5970080000000  0.5139110000000 1.0
C      1  0.4958020000000  0.4290670000000  0.4391660000000 1.0
C      1  0.4965790000000  0.4751780000000  0.5924860000000 1.0
C      1  0.5067610000000  0.3969230000000  0.4408720000000 1.0
C      1  0.4376160000000  0.4125180000000  0.4874470000000 1.0
C      1  0.5516990000000  0.5762700000000  0.5278770000000 1.0
C      1  0.4885730000000  0.5308390000000  0.4957910000000 1.0
C      1  0.4689870000000  0.5396500000000  0.5864920000000 1.0
C      1  0.5166480000000  0.5799100000000  0.4701290000000 1.0
END
