TITL C-2848509-3138-300 -0.000913107969335213 125000 -754.524408259262 0 0 141 (C1) n - 1
REM
REM in /home/bkarasulu/work/CARBON/AIRSS/Generating-Clusters/AIREBO/with-SteepDescent/Only-C1/SD-CG-opt/Try1-1.4A-POS3A/HFTN-CG
REM
REM
REM
REM
REM
REM ./C.cell (11c1c37f851c82e70ff6c80c92926a4b)
REM
REM compiler GCC version 9.2.1 20190827 (Red Hat 9.2.1-1)
REM options -cpp -mtune=generic -march=x86-64 -g -O0 -fpre-include=/usr/include/finclude/math-vector-fortran.h
REM seed 913109988 -1091268818 2079811242 1565917644 -1421840361 1803988079 -1647446274 417638546 -1468769361 -1287351291 -580100680 -470923658 931124 1834370278 425785830 -1774874391 -118279167 811632943 -792515488 1313312291 332711534 -1362164419 -388743859 -1572793161 -357062741 860050017 796955190 -2087937057 -437489198 -1097471625 -365338015 -1046452516 1184257850
REM
CELL 1.54180   50.00000   50.00000   50.00000   90.00000   90.00000   90.00000
LATT -1
SFAC C  
C      1  0.5429380000000  0.5051130000000  0.4013480000000 1.0
C      1  0.4189030000000  0.5743590000000  0.4821480000000 1.0
C      1  0.4770290000000  0.4885620000000  0.4091420000000 1.0
C      1  0.4933640000000  0.5999100000000  0.4662860000000 1.0
C      1  0.5465100000000  0.5773310000000  0.4471280000000 1.0
C      1  0.4673650000000  0.5606200000000  0.5572140000000 1.0
C      1  0.4955630000000  0.5686160000000  0.4531760000000 1.0
C      1  0.5571330000000  0.4489240000000  0.4403240000000 1.0
C      1  0.5263550000000  0.4756650000000  0.4692240000000 1.0
C      1  0.4593450000000  0.5930730000000  0.5077530000000 1.0
C      1  0.5510670000000  0.5828330000000  0.4861190000000 1.0
C      1  0.4706740000000  0.4160710000000  0.5184510000000 1.0
C      1  0.4513670000000  0.5272270000000  0.5021820000000 1.0
C      1  0.4573620000000  0.4858610000000  0.4574930000000 1.0
C      1  0.5086710000000  0.5982220000000  0.5260900000000 1.0
C      1  0.5168470000000  0.5824680000000  0.5463310000000 1.0
C      1  0.5615900000000  0.5235870000000  0.5152830000000 1.0
C      1  0.5337910000000  0.5074180000000  0.4921510000000 1.0
C      1  0.4439380000000  0.4891760000000  0.4102640000000 1.0
C      1  0.4416930000000  0.4135100000000  0.5561760000000 1.0
C      1  0.5922040000000  0.4460630000000  0.5275010000000 1.0
C      1  0.5645440000000  0.5114680000000  0.4262490000000 1.0
C      1  0.5219840000000  0.4764570000000  0.5716190000000 1.0
C      1  0.4359790000000  0.4520960000000  0.5254810000000 1.0
C      1  0.5287480000000  0.5569690000000  0.4851160000000 1.0
C      1  0.5261720000000  0.5911160000000  0.4644900000000 1.0
C      1  0.5521510000000  0.5444210000000  0.5404610000000 1.0
C      1  0.3998650000000  0.5241570000000  0.4929260000000 1.0
C      1  0.5145080000000  0.5511750000000  0.5866100000000 1.0
C      1  0.5687370000000  0.4724880000000  0.5661540000000 1.0
C      1  0.4819410000000  0.5510510000000  0.5213110000000 1.0
C      1  0.4970140000000  0.4477020000000  0.4745610000000 1.0
C      1  0.4448380000000  0.4233550000000  0.5295630000000 1.0
C      1  0.5368660000000  0.5637620000000  0.5639000000000 1.0
C      1  0.5342580000000  0.4457580000000  0.5273350000000 1.0
C      1  0.4904990000000  0.5954110000000  0.5001140000000 1.0
C      1  0.4364630000000  0.4595660000000  0.4360970000000 1.0
C      1  0.4611500000000  0.5896280000000  0.4616710000000 1.0
C      1  0.4899540000000  0.5600300000000  0.3996740000000 1.0
C      1  0.5515210000000  0.4529650000000  0.4721720000000 1.0
C      1  0.4177320000000  0.5002620000000  0.5094700000000 1.0
C      1  0.4605470000000  0.4591770000000  0.4137250000000 1.0
C      1  0.5584500000000  0.5535490000000  0.4584720000000 1.0
C      1  0.4795140000000  0.5675810000000  0.4237770000000 1.0
C      1  0.5104930000000  0.4372190000000  0.5039750000000 1.0
C      1  0.4350800000000  0.4639400000000  0.4936130000000 1.0
C      1  0.5043610000000  0.5399650000000  0.4381510000000 1.0
C      1  0.5938440000000  0.5103780000000  0.5552580000000 1.0
C      1  0.4529260000000  0.4556430000000  0.4658840000000 1.0
C      1  0.5098480000000  0.5617690000000  0.5096680000000 1.0
C      1  0.5067610000000  0.4926760000000  0.5973470000000 1.0
C      1  0.5462150000000  0.5145430000000  0.5555670000000 1.0
C      1  0.4142410000000  0.4417190000000  0.4523540000000 1.0
C      1  0.4869000000000  0.4716170000000  0.4521600000000 1.0
C      1  0.5395810000000  0.4323240000000  0.5730960000000 1.0
C      1  0.4853410000000  0.5217950000000  0.5319750000000 1.0
C      1  0.5110390000000  0.5364030000000  0.4708970000000 1.0
C      1  0.4806670000000  0.4368880000000  0.4205340000000 1.0
C      1  0.4348270000000  0.5289010000000  0.4535530000000 1.0
C      1  0.5345480000000  0.4154210000000  0.4938610000000 1.0
C      1  0.5180760000000  0.5163980000000  0.5678960000000 1.0
C      1  0.4617780000000  0.4170550000000  0.5751870000000 1.0
C      1  0.4850040000000  0.5100500000000  0.5631580000000 1.0
C      1  0.4529550000000  0.5114070000000  0.5322420000000 1.0
C      1  0.4882320000000  0.4232750000000  0.5676570000000 1.0
C      1  0.4125360000000  0.4745140000000  0.5277570000000 1.0
C      1  0.5576920000000  0.4281460000000  0.4875690000000 1.0
C      1  0.6187560000000  0.5200260000000  0.4889660000000 1.0
C      1  0.4268050000000  0.4904290000000  0.4462960000000 1.0
C      1  0.4121430000000  0.5601760000000  0.5207820000000 1.0
C      1  0.4893460000000  0.4314470000000  0.5377030000000 1.0
C      1  0.5082590000000  0.4459640000000  0.4192310000000 1.0
C      1  0.5718070000000  0.5526340000000  0.4879370000000 1.0
C      1  0.5928450000000  0.5318770000000  0.5049070000000 1.0
C      1  0.4651250000000  0.5752220000000  0.5291860000000 1.0
C      1  0.5034120000000  0.4757380000000  0.4247340000000 1.0
C      1  0.4691400000000  0.4286100000000  0.4705800000000 1.0
C      1  0.4293520000000  0.5138440000000  0.4235600000000 1.0
C      1  0.4439770000000  0.5895630000000  0.4843610000000 1.0
C      1  0.4170290000000  0.4887420000000  0.4788980000000 1.0
C      1  0.4565240000000  0.5681140000000  0.4454100000000 1.0
C      1  0.5073730000000  0.4742260000000  0.5198740000000 1.0
C      1  0.5915430000000  0.5047010000000  0.5253690000000 1.0
C      1  0.5254290000000  0.5080440000000  0.4588650000000 1.0
C      1  0.5708230000000  0.5016180000000  0.5674630000000 1.0
C      1  0.4398550000000  0.4179880000000  0.4842080000000 1.0
C      1  0.4202520000000  0.5110830000000  0.5416080000000 1.0
C      1  0.4575730000000  0.5169880000000  0.5919990000000 1.0
C      1  0.4800900000000  0.4940480000000  0.6030880000000 1.0
C      1  0.5166990000000  0.5138980000000  0.5209430000000 1.0
C      1  0.4555170000000  0.4938210000000  0.5680200000000 1.0
C      1  0.4732550000000  0.4188940000000  0.4398000000000 1.0
C      1  0.5507680000000  0.4706200000000  0.5234360000000 1.0
C      1  0.5080520000000  0.4038590000000  0.4822210000000 1.0
C      1  0.5178860000000  0.4165890000000  0.5299740000000 1.0
C      1  0.5560100000000  0.4783240000000  0.4271450000000 1.0
C      1  0.4437830000000  0.5096250000000  0.4768430000000 1.0
C      1  0.4299990000000  0.5237590000000  0.5732910000000 1.0
C      1  0.4504320000000  0.5405680000000  0.4264300000000 1.0
C      1  0.4919660000000  0.5052280000000  0.4533890000000 1.0
C      1  0.5473870000000  0.4767000000000  0.4950680000000 1.0
C      1  0.4871160000000  0.5653210000000  0.4846330000000 1.0
C      1  0.4930940000000  0.4782580000000  0.5594940000000 1.0
C      1  0.5795820000000  0.4273590000000  0.5044700000000 1.0
C      1  0.5669750000000  0.5092950000000  0.4848560000000 1.0
C      1  0.4660120000000  0.4743960000000  0.5031450000000 1.0
C      1  0.4768260000000  0.5643650000000  0.5890550000000 1.0
C      1  0.5169110000000  0.4247820000000  0.4592360000000 1.0
C      1  0.4478190000000  0.5387120000000  0.5518650000000 1.0
C      1  0.5270890000000  0.4932570000000  0.4282830000000 1.0
C      1  0.6037010000000  0.4738100000000  0.4710160000000 1.0
C      1  0.5475760000000  0.4222220000000  0.5455750000000 1.0
C      1  0.5834010000000  0.4665540000000  0.4527920000000 1.0
C      1  0.5806140000000  0.5530090000000  0.5496230000000 1.0
C      1  0.4827880000000  0.4980090000000  0.4853250000000 1.0
C      1  0.4805400000000  0.4632320000000  0.5318230000000 1.0
C      1  0.4806540000000  0.5319440000000  0.4855220000000 1.0
C      1  0.5803620000000  0.4734140000000  0.5341940000000 1.0
C      1  0.4213050000000  0.4911530000000  0.5691340000000 1.0
C      1  0.5459660000000  0.4593150000000  0.5755260000000 1.0
C      1  0.4928980000000  0.5139210000000  0.4205260000000 1.0
C      1  0.5501980000000  0.5288760000000  0.4484300000000 1.0
C      1  0.4687940000000  0.5304120000000  0.4536890000000 1.0
C      1  0.5013960000000  0.5352180000000  0.3979540000000 1.0
C      1  0.4056600000000  0.5493810000000  0.4805000000000 1.0
C      1  0.4331800000000  0.5451760000000  0.5249970000000 1.0
C      1  0.5755220000000  0.4191650000000  0.5353420000000 1.0
C      1  0.5188730000000  0.5434200000000  0.5335410000000 1.0
C      1  0.5208620000000  0.5204180000000  0.5996570000000 1.0
C      1  0.5724390000000  0.4964090000000  0.4545220000000 1.0
C      1  0.5282130000000  0.4350690000000  0.4359590000000 1.0
C      1  0.5041090000000  0.4763170000000  0.4915060000000 1.0
C      1  0.5289570000000  0.4892070000000  0.5408460000000 1.0
C      1  0.4199600000000  0.4372420000000  0.4789450000000 1.0
C      1  0.5500430000000  0.5615680000000  0.5112290000000 1.0
C      1  0.4852980000000  0.5337800000000  0.5877120000000 1.0
C      1  0.5135060000000  0.4233060000000  0.5805330000000 1.0
C      1  0.4517330000000  0.4783620000000  0.5402540000000 1.0
C      1  0.5994150000000  0.4987550000000  0.4837130000000 1.0
C      1  0.4823330000000  0.4102040000000  0.4937720000000 1.0
C      1  0.4989780000000  0.5556220000000  0.5571290000000 1.0
END
