TITL C-2848502-4955-127 0.000382484014720754 125000 -1081.89334847747 0 0 193 (C1) n - 1
REM
REM in /home/bkarasulu/work/CARBON/AIRSS/Generating-Clusters/AIREBO/with-SteepDescent/Only-C1/SD-CG-opt/Try1-1.4A-POS3A/HFTN-CG
REM
REM
REM
REM
REM
REM ./C.cell (11c1c37f851c82e70ff6c80c92926a4b)
REM
REM compiler GCC version 9.2.1 20190827 (Red Hat 9.2.1-1)
REM options -cpp -mtune=generic -march=x86-64 -g -O0 -fpre-include=/usr/include/finclude/math-vector-fortran.h
REM seed 1351661291 -2028854100 -1323683558 -2136595811 -1875015190 130624577 -1471024255 59907600 1441526812 -1934296719 -936393353 734502961 1121850906 -1338897450 -2132819660 -11045154 2100396484 -37453014 1412493502 1925897458 -729575882 -1985436654 -508733795 -617681973 653227072 1144421175 -72500842 -283521558 -529767361 -1384669348 -826774116 1837337099 102997522
REM
CELL 1.54180   50.00000   50.00000   50.00000   90.00000   90.00000   90.00000
LATT -1
SFAC C  
C      1  0.4250590000000  0.4485110000000  0.5324740000000 1.0
C      1  0.5502150000000  0.4345490000000  0.4215150000000 1.0
C      1  0.4706640000000  0.4129420000000  0.4825270000000 1.0
C      1  0.5106920000000  0.4917200000000  0.5426660000000 1.0
C      1  0.4620770000000  0.4918010000000  0.3992590000000 1.0
C      1  0.5549180000000  0.6043890000000  0.5065560000000 1.0
C      1  0.5731630000000  0.4457360000000  0.4093290000000 1.0
C      1  0.5811740000000  0.5444010000000  0.4261230000000 1.0
C      1  0.4187390000000  0.4246170000000  0.4847770000000 1.0
C      1  0.4378280000000  0.4283630000000  0.5107940000000 1.0
C      1  0.5256160000000  0.4847220000000  0.4678310000000 1.0
C      1  0.4189540000000  0.5096760000000  0.4788330000000 1.0
C      1  0.5331240000000  0.5405200000000  0.4347410000000 1.0
C      1  0.4117360000000  0.4759500000000  0.4410740000000 1.0
C      1  0.5471870000000  0.3773990000000  0.4876680000000 1.0
C      1  0.4889740000000  0.4184490000000  0.4455930000000 1.0
C      1  0.5817270000000  0.5551150000000  0.4515090000000 1.0
C      1  0.4815270000000  0.5145180000000  0.3851270000000 1.0
C      1  0.5132870000000  0.5066130000000  0.5723610000000 1.0
C      1  0.4544100000000  0.5270700000000  0.4156190000000 1.0
C      1  0.4843300000000  0.5102030000000  0.6140610000000 1.0
C      1  0.5422940000000  0.5523880000000  0.4870580000000 1.0
C      1  0.5497140000000  0.5068780000000  0.4994060000000 1.0
C      1  0.5084890000000  0.4936980000000  0.6209110000000 1.0
C      1  0.4503200000000  0.5541710000000  0.4579670000000 1.0
C      1  0.5144260000000  0.4390690000000  0.4499770000000 1.0
C      1  0.4783490000000  0.5871540000000  0.4858200000000 1.0
C      1  0.5182360000000  0.5538090000000  0.4950050000000 1.0
C      1  0.5647100000000  0.4192240000000  0.5216410000000 1.0
C      1  0.5497350000000  0.5254320000000  0.5632130000000 1.0
C      1  0.4682310000000  0.4616540000000  0.4855950000000 1.0
C      1  0.5229440000000  0.4354610000000  0.5590550000000 1.0
C      1  0.6137220000000  0.4902520000000  0.5345760000000 1.0
C      1  0.5029690000000  0.5948390000000  0.5668750000000 1.0
C      1  0.4226640000000  0.4786760000000  0.5605760000000 1.0
C      1  0.5115720000000  0.5372130000000  0.5643250000000 1.0
C      1  0.4498650000000  0.4635040000000  0.5477130000000 1.0
C      1  0.4827670000000  0.5445420000000  0.4791470000000 1.0
C      1  0.4368450000000  0.4646240000000  0.4610240000000 1.0
C      1  0.3795590000000  0.5206110000000  0.5077070000000 1.0
C      1  0.5626210000000  0.5736750000000  0.4603420000000 1.0
C      1  0.6054750000000  0.5447940000000  0.4998320000000 1.0
C      1  0.5131240000000  0.6012150000000  0.5190890000000 1.0
C      1  0.5074350000000  0.4540960000000  0.3971730000000 1.0
C      1  0.4869180000000  0.4726900000000  0.5086860000000 1.0
C      1  0.4055930000000  0.5502410000000  0.4773960000000 1.0
C      1  0.4650850000000  0.4322270000000  0.4166910000000 1.0
C      1  0.5006830000000  0.5013550000000  0.4087090000000 1.0
C      1  0.5942930000000  0.4941490000000  0.4202150000000 1.0
C      1  0.5816180000000  0.4545890000000  0.5162650000000 1.0
C      1  0.5633660000000  0.4944110000000  0.4589170000000 1.0
C      1  0.5070210000000  0.4789880000000  0.3864170000000 1.0
C      1  0.5535500000000  0.5381470000000  0.4082610000000 1.0
C      1  0.5931300000000  0.4391930000000  0.5650200000000 1.0
C      1  0.5838440000000  0.4056170000000  0.5075690000000 1.0
C      1  0.4780020000000  0.4191330000000  0.5151460000000 1.0
C      1  0.4535110000000  0.4973370000000  0.5923790000000 1.0
C      1  0.4010880000000  0.4433560000000  0.5153550000000 1.0
C      1  0.6104640000000  0.5009790000000  0.4430140000000 1.0
C      1  0.4486740000000  0.5933150000000  0.4507620000000 1.0
C      1  0.4354020000000  0.6042280000000  0.4724010000000 1.0
C      1  0.4811170000000  0.4501480000000  0.5729490000000 1.0
C      1  0.5295410000000  0.5835370000000  0.5724140000000 1.0
C      1  0.5578680000000  0.5287890000000  0.4776720000000 1.0
C      1  0.3902090000000  0.5132660000000  0.4616830000000 1.0
C      1  0.4818300000000  0.5865110000000  0.4519120000000 1.0
C      1  0.5004560000000  0.4431790000000  0.5102770000000 1.0
C      1  0.3928150000000  0.4578630000000  0.4523610000000 1.0
C      1  0.5517400000000  0.5958170000000  0.5598630000000 1.0
C      1  0.5705840000000  0.6121290000000  0.5707150000000 1.0
C      1  0.4745850000000  0.4961520000000  0.5261920000000 1.0
C      1  0.4740710000000  0.4398360000000  0.4662850000000 1.0
C      1  0.4879260000000  0.5595510000000  0.4316370000000 1.0
C      1  0.4990350000000  0.4250920000000  0.5687190000000 1.0
C      1  0.5410210000000  0.5074690000000  0.4387630000000 1.0
C      1  0.5201070000000  0.4479220000000  0.5332370000000 1.0
C      1  0.4343890000000  0.5056150000000  0.4077570000000 1.0
C      1  0.4665270000000  0.5277150000000  0.4557070000000 1.0
C      1  0.5671950000000  0.4797250000000  0.5311720000000 1.0
C      1  0.4323110000000  0.4394080000000  0.5948730000000 1.0
C      1  0.5731020000000  0.4647970000000  0.4519650000000 1.0
C      1  0.5347030000000  0.4609000000000  0.4987800000000 1.0
C      1  0.4983050000000  0.4943890000000  0.4548780000000 1.0
C      1  0.5385650000000  0.5334040000000  0.5333160000000 1.0
C      1  0.5605090000000  0.4775660000000  0.5973200000000 1.0
C      1  0.4567370000000  0.5548260000000  0.4189300000000 1.0
C      1  0.4567520000000  0.4828960000000  0.4318540000000 1.0
C      1  0.5414640000000  0.4276700000000  0.5013000000000 1.0
C      1  0.4359670000000  0.5897680000000  0.4956290000000 1.0
C      1  0.4542730000000  0.5279300000000  0.5129170000000 1.0
C      1  0.5838910000000  0.4673890000000  0.4236740000000 1.0
C      1  0.5935180000000  0.5043050000000  0.4711400000000 1.0
C      1  0.3991930000000  0.4496430000000  0.4824410000000 1.0
C      1  0.4756730000000  0.4877170000000  0.4735030000000 1.0
C      1  0.4941610000000  0.3896420000000  0.5201990000000 1.0
C      1  0.5257050000000  0.4532070000000  0.4220700000000 1.0
C      1  0.5510570000000  0.4177220000000  0.4441770000000 1.0
C      1  0.5782270000000  0.4590940000000  0.4850940000000 1.0
C      1  0.6035340000000  0.4628030000000  0.5768850000000 1.0
C      1  0.5402000000000  0.4594690000000  0.4587390000000 1.0
C      1  0.4956650000000  0.6075240000000  0.5418070000000 1.0
C      1  0.4000760000000  0.5242940000000  0.4368230000000 1.0
C      1  0.5304740000000  0.6176760000000  0.5030940000000 1.0
C      1  0.4045030000000  0.4805360000000  0.4895580000000 1.0
C      1  0.4819070000000  0.4566120000000  0.6028130000000 1.0
C      1  0.5445620000000  0.4932870000000  0.5731930000000 1.0
C      1  0.4809420000000  0.5469590000000  0.5579380000000 1.0
C      1  0.5876720000000  0.4730860000000  0.5978290000000 1.0
C      1  0.4854100000000  0.5257900000000  0.5230880000000 1.0
C      1  0.4852720000000  0.4010410000000  0.5636440000000 1.0
C      1  0.5823350000000  0.4101870000000  0.4801500000000 1.0
C      1  0.5138820000000  0.5883820000000  0.4406920000000 1.0
C      1  0.5461690000000  0.4596450000000  0.5647550000000 1.0
C      1  0.4307280000000  0.5389400000000  0.4916570000000 1.0
C      1  0.4328090000000  0.5689310000000  0.4356220000000 1.0
C      1  0.4135330000000  0.5003850000000  0.4256490000000 1.0
C      1  0.5762300000000  0.5144260000000  0.4142860000000 1.0
C      1  0.5277570000000  0.5520830000000  0.3968940000000 1.0
C      1  0.6215700000000  0.4797070000000  0.5094110000000 1.0
C      1  0.4674250000000  0.4046680000000  0.4255650000000 1.0
C      1  0.3807370000000  0.5016770000000  0.4870880000000 1.0
C      1  0.5276770000000  0.5185610000000  0.4670840000000 1.0
C      1  0.4599010000000  0.5733390000000  0.5537030000000 1.0
C      1  0.4568910000000  0.4010250000000  0.5566910000000 1.0
C      1  0.4420530000000  0.5489300000000  0.5904010000000 1.0
C      1  0.4957980000000  0.5561780000000  0.5288760000000 1.0
C      1  0.5314960000000  0.3978310000000  0.4915060000000 1.0
C      1  0.5098880000000  0.5336400000000  0.3800380000000 1.0
C      1  0.5872490000000  0.5049580000000  0.5310950000000 1.0
C      1  0.4986720000000  0.3835830000000  0.5457630000000 1.0
C      1  0.5766150000000  0.5329020000000  0.5437110000000 1.0
C      1  0.3866870000000  0.5087550000000  0.5325570000000 1.0
C      1  0.4405960000000  0.4975140000000  0.4581890000000 1.0
C      1  0.5904180000000  0.5364050000000  0.4743040000000 1.0
C      1  0.4859200000000  0.6201260000000  0.4893570000000 1.0
C      1  0.4805390000000  0.5097250000000  0.5810110000000 1.0
C      1  0.5025880000000  0.5283590000000  0.4975220000000 1.0
C      1  0.5094390000000  0.4676920000000  0.6096960000000 1.0
C      1  0.4436810000000  0.5501810000000  0.5360260000000 1.0
C      1  0.5048590000000  0.5399390000000  0.4536970000000 1.0
C      1  0.4261410000000  0.4833420000000  0.5131820000000 1.0
C      1  0.5371220000000  0.4750680000000  0.5291130000000 1.0
C      1  0.6186620000000  0.4794710000000  0.5598830000000 1.0
C      1  0.5147380000000  0.5705340000000  0.4138180000000 1.0
C      1  0.4315350000000  0.5024660000000  0.5765000000000 1.0
C      1  0.5617350000000  0.5759470000000  0.4943000000000 1.0
C      1  0.4060850000000  0.4905450000000  0.5376370000000 1.0
C      1  0.4582680000000  0.4777300000000  0.6102500000000 1.0
C      1  0.4785140000000  0.5090200000000  0.4314210000000 1.0
C      1  0.4494290000000  0.5815790000000  0.5240700000000 1.0
C      1  0.3835790000000  0.5467350000000  0.4959110000000 1.0
C      1  0.4585770000000  0.5116100000000  0.4833770000000 1.0
C      1  0.5352480000000  0.5529630000000  0.5772440000000 1.0
C      1  0.5082090000000  0.3985200000000  0.4590430000000 1.0
C      1  0.4405210000000  0.4057060000000  0.4779970000000 1.0
C      1  0.4590190000000  0.4510520000000  0.4391060000000 1.0
C      1  0.5157910000000  0.4374700000000  0.4812660000000 1.0
C      1  0.4905780000000  0.5397600000000  0.4045530000000 1.0
C      1  0.5591430000000  0.4339790000000  0.4729230000000 1.0
C      1  0.4504200000000  0.4061790000000  0.5302450000000 1.0
C      1  0.5226980000000  0.5101230000000  0.5166950000000 1.0
C      1  0.4092380000000  0.5500590000000  0.4485790000000 1.0
C      1  0.5134060000000  0.4841440000000  0.4983390000000 1.0
C      1  0.5360310000000  0.5374420000000  0.6053300000000 1.0
C      1  0.4436590000000  0.5022740000000  0.5315420000000 1.0
C      1  0.6048810000000  0.4772190000000  0.4882680000000 1.0
C      1  0.5325690000000  0.4622370000000  0.5958270000000 1.0
C      1  0.4837280000000  0.4398440000000  0.3976050000000 1.0
C      1  0.4305310000000  0.5334700000000  0.5625740000000 1.0
C      1  0.5228530000000  0.5136940000000  0.6042150000000 1.0
C      1  0.5686520000000  0.4428120000000  0.5454460000000 1.0
C      1  0.4021310000000  0.5406460000000  0.5605060000000 1.0
C      1  0.4824620000000  0.4736470000000  0.5484050000000 1.0
C      1  0.4734210000000  0.6021650000000  0.5159530000000 1.0
C      1  0.4607790000000  0.5196830000000  0.5553290000000 1.0
C      1  0.5634300000000  0.5544200000000  0.5207970000000 1.0
C      1  0.5525220000000  0.5844650000000  0.5321710000000 1.0
C      1  0.5001080000000  0.3972460000000  0.4900730000000 1.0
C      1  0.5328920000000  0.3965100000000  0.4481690000000 1.0
C      1  0.5268850000000  0.5621520000000  0.5331140000000 1.0
C      1  0.4551240000000  0.5624910000000  0.4889130000000 1.0
C      1  0.4550450000000  0.4380540000000  0.6098970000000 1.0
C      1  0.4153860000000  0.4548680000000  0.5803070000000 1.0
C      1  0.5780860000000  0.5037870000000  0.5014350000000 1.0
C      1  0.6021100000000  0.5414140000000  0.5242030000000 1.0
C      1  0.4712700000000  0.4375160000000  0.5429540000000 1.0
C      1  0.4808850000000  0.5819640000000  0.5772180000000 1.0
C      1  0.5107260000000  0.6311370000000  0.4871530000000 1.0
C      1  0.4680340000000  0.5566770000000  0.5891360000000 1.0
C      1  0.4380380000000  0.4582260000000  0.4945030000000 1.0
C      1  0.5027030000000  0.5771570000000  0.5051430000000 1.0
C      1  0.5254400000000  0.4870860000000  0.4224000000000 1.0
C      1  0.5377660000000  0.5711540000000  0.4465100000000 1.0
END
