TITL C-2847959-7740-19 0.000325475290276936 125000 -960.271882585602 0 0 185 (C1) n - 1
REM
REM in /home/bkarasulu/work/CARBON/AIRSS/Generating-Clusters/AIREBO/with-SteepDescent/Only-C1/SD-CG-opt/Try1-1.4A-POS3A/HFTN-CG
REM
REM
REM
REM
REM
REM ./C.cell (11c1c37f851c82e70ff6c80c92926a4b)
REM
REM compiler GCC version 9.2.1 20190827 (Red Hat 9.2.1-1)
REM options -cpp -mtune=generic -march=x86-64 -g -O0 -fpre-include=/usr/include/finclude/math-vector-fortran.h
REM seed 2115143037 -1598916930 -1833727399 -1023089718 -937887910 1589744823 -1616117196 -1093560313 1343934756 -355314501 604381671 1452784170 953585116 643223035 -2057936940 -309836286 -526939303 -1585382421 -1891884100 -1740154274 -129644857 1048288133 -65933556 57799488 -2115131476 217863626 -605220441 1094795848 1537264421 1581791834 2143667932 -1627270686 1442988909
REM
CELL 1.54180   50.00000   50.00000   50.00000   90.00000   90.00000   90.00000
LATT -1
SFAC C  
C      1  0.5658220000000  0.5353020000000  0.4233220000000 1.0
C      1  0.5886710000000  0.4613850000000  0.5621420000000 1.0
C      1  0.5969460000000  0.5192870000000  0.5495600000000 1.0
C      1  0.4704900000000  0.6039850000000  0.5606480000000 1.0
C      1  0.4041280000000  0.5398930000000  0.4917620000000 1.0
C      1  0.5849070000000  0.4776150000000  0.4445910000000 1.0
C      1  0.4667240000000  0.6020630000000  0.4885750000000 1.0
C      1  0.4535710000000  0.4381950000000  0.4336370000000 1.0
C      1  0.4170070000000  0.4479730000000  0.4790140000000 1.0
C      1  0.5013490000000  0.5163030000000  0.5348090000000 1.0
C      1  0.5153180000000  0.5264830000000  0.6039490000000 1.0
C      1  0.5714190000000  0.5555750000000  0.5675370000000 1.0
C      1  0.4895780000000  0.5830560000000  0.5332050000000 1.0
C      1  0.5167920000000  0.3923820000000  0.5062900000000 1.0
C      1  0.5458660000000  0.4008870000000  0.4944670000000 1.0
C      1  0.5050210000000  0.4240530000000  0.5013400000000 1.0
C      1  0.4930360000000  0.4930930000000  0.4869760000000 1.0
C      1  0.4497360000000  0.4319110000000  0.5769310000000 1.0
C      1  0.4967970000000  0.5258330000000  0.5676790000000 1.0
C      1  0.5091720000000  0.5721600000000  0.4283420000000 1.0
C      1  0.4295020000000  0.5607120000000  0.5007150000000 1.0
C      1  0.5394890000000  0.4238140000000  0.4552610000000 1.0
C      1  0.5543700000000  0.4812450000000  0.5575340000000 1.0
C      1  0.6108720000000  0.4946700000000  0.5109570000000 1.0
C      1  0.5236170000000  0.5888640000000  0.5138080000000 1.0
C      1  0.5776610000000  0.5723030000000  0.5202030000000 1.0
C      1  0.4738320000000  0.5470400000000  0.4513680000000 1.0
C      1  0.5224410000000  0.4319800000000  0.5265000000000 1.0
C      1  0.5688290000000  0.4027720000000  0.5158770000000 1.0
C      1  0.4115640000000  0.5076590000000  0.4666410000000 1.0
C      1  0.4094910000000  0.5116490000000  0.4368850000000 1.0
C      1  0.5422510000000  0.4101730000000  0.5345670000000 1.0
C      1  0.4676080000000  0.5372310000000  0.5960660000000 1.0
C      1  0.5440920000000  0.4986340000000  0.5848920000000 1.0
C      1  0.5706680000000  0.4291010000000  0.5373170000000 1.0
C      1  0.5923210000000  0.5151930000000  0.4931890000000 1.0
C      1  0.4013840000000  0.4973400000000  0.5650470000000 1.0
C      1  0.4871920000000  0.4749700000000  0.5219050000000 1.0
C      1  0.5232020000000  0.5665800000000  0.4651870000000 1.0
C      1  0.4824370000000  0.4602990000000  0.3927500000000 1.0
C      1  0.5404880000000  0.5153220000000  0.4821130000000 1.0
C      1  0.5614340000000  0.5276720000000  0.5813960000000 1.0
C      1  0.4971690000000  0.5729560000000  0.4824860000000 1.0
C      1  0.4039500000000  0.4583620000000  0.5151520000000 1.0
C      1  0.4968070000000  0.5137230000000  0.4022540000000 1.0
C      1  0.5189270000000  0.3867860000000  0.5376470000000 1.0
C      1  0.4696490000000  0.5149380000000  0.4959910000000 1.0
C      1  0.4764330000000  0.4078320000000  0.5100700000000 1.0
C      1  0.5396380000000  0.5776810000000  0.4375940000000 1.0
C      1  0.5365410000000  0.4459590000000  0.4192680000000 1.0
C      1  0.4393650000000  0.5224280000000  0.5842560000000 1.0
C      1  0.5492000000000  0.6108230000000  0.4895520000000 1.0
C      1  0.4834600000000  0.4379650000000  0.4184540000000 1.0
C      1  0.5712080000000  0.4558190000000  0.5851540000000 1.0
C      1  0.4947490000000  0.5327240000000  0.4828220000000 1.0
C      1  0.4981720000000  0.4519960000000  0.4621060000000 1.0
C      1  0.5993560000000  0.4902660000000  0.4726680000000 1.0
C      1  0.4894970000000  0.5058910000000  0.4345340000000 1.0
C      1  0.4386120000000  0.4899050000000  0.5827160000000 1.0
C      1  0.5833900000000  0.5679540000000  0.4934240000000 1.0
C      1  0.5467610000000  0.4751710000000  0.4331090000000 1.0
C      1  0.4915020000000  0.5546320000000  0.5503800000000 1.0
C      1  0.4230850000000  0.5381360000000  0.5413340000000 1.0
C      1  0.5437920000000  0.5772440000000  0.4900550000000 1.0
C      1  0.5138700000000  0.4564300000000  0.5683540000000 1.0
C      1  0.4510690000000  0.4766820000000  0.4557570000000 1.0
C      1  0.5214610000000  0.4788970000000  0.4025300000000 1.0
C      1  0.4897060000000  0.5848530000000  0.4450470000000 1.0
C      1  0.4161700000000  0.4897420000000  0.4201700000000 1.0
C      1  0.4151640000000  0.4941170000000  0.5285120000000 1.0
C      1  0.4909670000000  0.4746350000000  0.5554270000000 1.0
C      1  0.4684210000000  0.5092980000000  0.5295240000000 1.0
C      1  0.5115440000000  0.4322660000000  0.4378250000000 1.0
C      1  0.4301990000000  0.4522620000000  0.4539410000000 1.0
C      1  0.3944340000000  0.4880680000000  0.5089230000000 1.0
C      1  0.5109700000000  0.4732810000000  0.5968600000000 1.0
C      1  0.5862370000000  0.4247100000000  0.4688070000000 1.0
C      1  0.5683380000000  0.5841130000000  0.4675490000000 1.0
C      1  0.4751870000000  0.3772460000000  0.5060070000000 1.0
C      1  0.5055370000000  0.6022340000000  0.4696620000000 1.0
C      1  0.4855320000000  0.4896730000000  0.3853980000000 1.0
C      1  0.5661740000000  0.5580610000000  0.4458000000000 1.0
C      1  0.5546320000000  0.5431130000000  0.4723010000000 1.0
C      1  0.3962820000000  0.5214220000000  0.5506460000000 1.0
C      1  0.5739570000000  0.4697850000000  0.4816580000000 1.0
C      1  0.5302950000000  0.5005900000000  0.5433010000000 1.0
C      1  0.4317460000000  0.5613930000000  0.4523740000000 1.0
C      1  0.5703800000000  0.4507800000000  0.4311800000000 1.0
C      1  0.5205070000000  0.3932310000000  0.4725020000000 1.0
C      1  0.4619650000000  0.5931120000000  0.5161030000000 1.0
C      1  0.5975470000000  0.5486730000000  0.4549460000000 1.0
C      1  0.5165570000000  0.5229010000000  0.5050980000000 1.0
C      1  0.4986420000000  0.5429440000000  0.4195900000000 1.0
C      1  0.4082900000000  0.5629730000000  0.5240300000000 1.0
C      1  0.5434540000000  0.4600930000000  0.4860480000000 1.0
C      1  0.5436720000000  0.5269190000000  0.5380600000000 1.0
C      1  0.5325360000000  0.5387720000000  0.5800020000000 1.0
C      1  0.5601600000000  0.4752420000000  0.6008700000000 1.0
C      1  0.4465940000000  0.4155350000000  0.5549410000000 1.0
C      1  0.4425000000000  0.5803580000000  0.4784880000000 1.0
C      1  0.5110300000000  0.4465920000000  0.4005160000000 1.0
C      1  0.5278110000000  0.4593000000000  0.5374660000000 1.0
C      1  0.5664450000000  0.4272380000000  0.4487360000000 1.0
C      1  0.4361940000000  0.5157600000000  0.5210510000000 1.0
C      1  0.5222610000000  0.5306680000000  0.3900760000000 1.0
C      1  0.4134270000000  0.4489040000000  0.5409530000000 1.0
C      1  0.3883200000000  0.5390310000000  0.5225630000000 1.0
C      1  0.3996720000000  0.5613190000000  0.4657290000000 1.0
C      1  0.4308790000000  0.5334720000000  0.4717620000000 1.0
C      1  0.5618990000000  0.5059680000000  0.5053360000000 1.0
C      1  0.5339050000000  0.4302530000000  0.4844990000000 1.0
C      1  0.4428200000000  0.4949930000000  0.4086060000000 1.0
C      1  0.5770370000000  0.5060060000000  0.5634970000000 1.0
C      1  0.4312290000000  0.4975680000000  0.4926840000000 1.0
C      1  0.4564380000000  0.4781830000000  0.5362010000000 1.0
C      1  0.5126440000000  0.4960030000000  0.5716070000000 1.0
C      1  0.4870400000000  0.5612790000000  0.5093610000000 1.0
C      1  0.4757160000000  0.3978720000000  0.4508890000000 1.0
C      1  0.5316300000000  0.5037180000000  0.4235150000000 1.0
C      1  0.5458630000000  0.4772750000000  0.5149330000000 1.0
C      1  0.3910780000000  0.5081030000000  0.4901840000000 1.0
C      1  0.4648030000000  0.5155810000000  0.5627580000000 1.0
C      1  0.4425530000000  0.5491470000000  0.5655120000000 1.0
C      1  0.4695880000000  0.5654590000000  0.4736250000000 1.0
C      1  0.5432410000000  0.5274000000000  0.4079570000000 1.0
C      1  0.5064580000000  0.5405680000000  0.4526170000000 1.0
C      1  0.5277170000000  0.4687670000000  0.4606290000000 1.0
C      1  0.5228600000000  0.5711820000000  0.5835060000000 1.0
C      1  0.4607810000000  0.5497560000000  0.5370160000000 1.0
C      1  0.4627690000000  0.4719270000000  0.4142580000000 1.0
C      1  0.5864910000000  0.4426400000000  0.4890500000000 1.0
C      1  0.4590260000000  0.4506050000000  0.5075490000000 1.0
C      1  0.4511290000000  0.5816310000000  0.5438690000000 1.0
C      1  0.5239400000000  0.5148150000000  0.4524100000000 1.0
C      1  0.5198500000000  0.5550430000000  0.5157820000000 1.0
C      1  0.5470650000000  0.5745190000000  0.5596930000000 1.0
C      1  0.4815650000000  0.4250430000000  0.4689570000000 1.0
C      1  0.4319500000000  0.4674650000000  0.4991490000000 1.0
C      1  0.4254480000000  0.4230360000000  0.5376210000000 1.0
C      1  0.5736740000000  0.4686870000000  0.5325110000000 1.0
C      1  0.5504450000000  0.5479930000000  0.5040900000000 1.0
C      1  0.4762510000000  0.4149250000000  0.5415080000000 1.0
C      1  0.5922040000000  0.4458310000000  0.5185930000000 1.0
C      1  0.5146220000000  0.4891480000000  0.5088030000000 1.0
C      1  0.4640590000000  0.4607250000000  0.5708710000000 1.0
C      1  0.4636690000000  0.4754090000000  0.5984890000000 1.0
C      1  0.4736090000000  0.5048700000000  0.5942750000000 1.0
C      1  0.4673050000000  0.4462190000000  0.5402750000000 1.0
C      1  0.5513850000000  0.4473470000000  0.5588600000000 1.0
C      1  0.5529310000000  0.5837030000000  0.5300500000000 1.0
C      1  0.4267010000000  0.4776980000000  0.5535770000000 1.0
C      1  0.5054040000000  0.4912640000000  0.4607000000000 1.0
C      1  0.6116600000000  0.4717440000000  0.5204570000000 1.0
C      1  0.4068380000000  0.4259890000000  0.4914520000000 1.0
C      1  0.4490600000000  0.5241480000000  0.4165770000000 1.0
C      1  0.4520310000000  0.4208640000000  0.4954030000000 1.0
C      1  0.5061930000000  0.4007400000000  0.4494070000000 1.0
C      1  0.5252960000000  0.5510490000000  0.5491170000000 1.0
C      1  0.5240780000000  0.4266450000000  0.5660850000000 1.0
C      1  0.4584940000000  0.5453440000000  0.5063610000000 1.0
C      1  0.5052540000000  0.4084550000000  0.5538210000000 1.0
C      1  0.4654900000000  0.5204510000000  0.4431930000000 1.0
C      1  0.4963630000000  0.5509080000000  0.5906600000000 1.0
C      1  0.5615570000000  0.4959510000000  0.4637470000000 1.0
C      1  0.5972290000000  0.5446600000000  0.4827300000000 1.0
C      1  0.4774380000000  0.4688050000000  0.4431740000000 1.0
C      1  0.4591780000000  0.5728440000000  0.4357820000000 1.0
C      1  0.4233830000000  0.5375100000000  0.4296280000000 1.0
C      1  0.5687890000000  0.4853960000000  0.4092980000000 1.0
C      1  0.4861730000000  0.4619150000000  0.6163050000000 1.0
C      1  0.4686400000000  0.5707380000000  0.5699600000000 1.0
C      1  0.5007430000000  0.5024120000000  0.6090330000000 1.0
C      1  0.5383950000000  0.6030290000000  0.4602250000000 1.0
C      1  0.4506760000000  0.4187820000000  0.4614650000000 1.0
C      1  0.4676790000000  0.5497970000000  0.4122500000000 1.0
C      1  0.5895520000000  0.5505920000000  0.5412980000000 1.0
C      1  0.4514540000000  0.5066030000000  0.4684800000000 1.0
C      1  0.4904770000000  0.4541770000000  0.4951670000000 1.0
C      1  0.4291930000000  0.4600210000000  0.4223080000000 1.0
C      1  0.5011710000000  0.4778760000000  0.4233210000000 1.0
C      1  0.5703880000000  0.5327480000000  0.5228930000000 1.0
C      1  0.4254540000000  0.4144820000000  0.5102320000000 1.0
C      1  0.5735520000000  0.5079610000000  0.4342830000000 1.0
C      1  0.4973970000000  0.6073170000000  0.5024100000000 1.0
C      1  0.4888420000000  0.6158870000000  0.5345470000000 1.0
END
