TITL C-2848508-1660-16 0.000779699357400334 125000 -314.891959384327 0 0 56 (C1) n - 1
REM
REM in /home/bkarasulu/work/CARBON/AIRSS/Generating-Clusters/AIREBO/with-SteepDescent/Only-C1/SD-CG-opt/Try1-1.4A-POS3A/HFTN-CG
REM
REM
REM
REM
REM
REM ./C.cell (11c1c37f851c82e70ff6c80c92926a4b)
REM
REM compiler GCC version 9.2.1 20190827 (Red Hat 9.2.1-1)
REM options -cpp -mtune=generic -march=x86-64 -g -O0 -fpre-include=/usr/include/finclude/math-vector-fortran.h
REM seed -1400025906 -73036762 829669000 -243642435 1502913455 1205630062 133973104 304684627 1907312651 -934824256 -862919992 1821380270 979345179 -1501671381 1121782456 1863982443 2082672236 1204455264 1868540119 -1518567317 194320093 1669425370 -1073173057 -1348870400 617776669 -1787996720 147343577 -948394804 -908291360 136100035 925540923 -1509430598 1537002898
REM
CELL 1.54180   50.00000   50.00000   50.00000   90.00000   90.00000   90.00000
LATT -1
SFAC C  
C      1  0.4972330000000  0.5570030000000  0.4673010000000 1.0
C      1  0.4539130000000  0.5138060000000  0.5172250000000 1.0
C      1  0.5663620000000  0.5228750000000  0.4900760000000 1.0
C      1  0.5067440000000  0.5685650000000  0.4946380000000 1.0
C      1  0.5776960000000  0.5091820000000  0.5112880000000 1.0
C      1  0.4397060000000  0.4643180000000  0.4842760000000 1.0
C      1  0.5008110000000  0.4944710000000  0.4853320000000 1.0
C      1  0.5224450000000  0.5497210000000  0.4477370000000 1.0
C      1  0.4839020000000  0.5009850000000  0.5274610000000 1.0
C      1  0.4366180000000  0.4576200000000  0.5104360000000 1.0
C      1  0.4517910000000  0.4587160000000  0.5844640000000 1.0
C      1  0.5397980000000  0.4856650000000  0.5272820000000 1.0
C      1  0.4543540000000  0.4919640000000  0.4711320000000 1.0
C      1  0.4996680000000  0.5077550000000  0.5634510000000 1.0
C      1  0.4837280000000  0.4797820000000  0.5524020000000 1.0
C      1  0.4399410000000  0.4676700000000  0.4521230000000 1.0
C      1  0.4992960000000  0.5293240000000  0.4385770000000 1.0
C      1  0.5363460000000  0.4662570000000  0.5057320000000 1.0
C      1  0.5151760000000  0.4867950000000  0.4576970000000 1.0
C      1  0.5352090000000  0.4193920000000  0.4505220000000 1.0
C      1  0.4863850000000  0.5388270000000  0.5673090000000 1.0
C      1  0.5507290000000  0.5496270000000  0.4926110000000 1.0
C      1  0.5198760000000  0.5477270000000  0.5346990000000 1.0
C      1  0.5273800000000  0.4220690000000  0.5217930000000 1.0
C      1  0.4218010000000  0.5420340000000  0.4858480000000 1.0
C      1  0.4646020000000  0.4872510000000  0.4397820000000 1.0
C      1  0.5241880000000  0.5300380000000  0.5557180000000 1.0
C      1  0.4889890000000  0.5529660000000  0.5360920000000 1.0
C      1  0.5429870000000  0.4890550000000  0.4537060000000 1.0
C      1  0.5288860000000  0.5568760000000  0.5088920000000 1.0
C      1  0.5660800000000  0.4952300000000  0.5326390000000 1.0
C      1  0.5449040000000  0.5411380000000  0.4620120000000 1.0
C      1  0.5076370000000  0.4729350000000  0.5053170000000 1.0
C      1  0.4678110000000  0.5642990000000  0.4597050000000 1.0
C      1  0.5725650000000  0.4341100000000  0.5093210000000 1.0
C      1  0.5563410000000  0.4699790000000  0.4399490000000 1.0
C      1  0.4971090000000  0.4817840000000  0.4371140000000 1.0
C      1  0.4707340000000  0.5270750000000  0.5409200000000 1.0
C      1  0.3974590000000  0.5501100000000  0.4778950000000 1.0
C      1  0.4960830000000  0.4626740000000  0.5286470000000 1.0
C      1  0.4261570000000  0.5228280000000  0.5065240000000 1.0
C      1  0.5017590000000  0.5236710000000  0.4695980000000 1.0
C      1  0.5165010000000  0.4961370000000  0.5365710000000 1.0
C      1  0.5016460000000  0.4365520000000  0.5340790000000 1.0
C      1  0.5395890000000  0.4277180000000  0.4742420000000 1.0
C      1  0.4411160000000  0.4627470000000  0.5366970000000 1.0
C      1  0.4460060000000  0.5517810000000  0.4760910000000 1.0
C      1  0.4573780000000  0.4670970000000  0.5590450000000 1.0
C      1  0.4713960000000  0.5078090000000  0.4896280000000 1.0
C      1  0.4686420000000  0.5411010000000  0.4922500000000 1.0
C      1  0.4860200000000  0.5087500000000  0.4253590000000 1.0
C      1  0.5784860000000  0.4912080000000  0.5561810000000 1.0
C      1  0.5078510000000  0.4055550000000  0.5412680000000 1.0
C      1  0.5449980000000  0.4373170000000  0.5031000000000 1.0
C      1  0.4824960000000  0.5599970000000  0.5076450000000 1.0
C      1  0.5566750000000  0.5120610000000  0.4626010000000 1.0
END
