TITL C-2847959-7740-191 0.00128863866651919 125000 -844.861809540383 0 0 158 (C1) n - 1
REM
REM in /home/bkarasulu/work/CARBON/AIRSS/Generating-Clusters/AIREBO/with-SteepDescent/Only-C1/SD-CG-opt/Try1-1.4A-POS3A/HFTN-CG
REM
REM
REM
REM
REM
REM ./C.cell (11c1c37f851c82e70ff6c80c92926a4b)
REM
REM compiler GCC version 9.2.1 20190827 (Red Hat 9.2.1-1)
REM options -cpp -mtune=generic -march=x86-64 -g -O0 -fpre-include=/usr/include/finclude/math-vector-fortran.h
REM seed -1648537918 -2070871667 -1683329960 347075096 -2027428669 -687606449 -2098133686 -79459086 1042416824 1252487930 684608673 -323992190 -1761054960 1528278677 1239074777 1214710803 -1595034678 597008652 1129503143 48355465 1850179077 1608695717 1568979408 -342350668 -259146130 -1907930113 325705784 -303920687 372860727 690289020 -177425737 -2021638038 1378343810
REM
CELL 1.54180   50.00000   50.00000   50.00000   90.00000   90.00000   90.00000
LATT -1
SFAC C  
C      1  0.4008570000000  0.5328960000000  0.4975460000000 1.0
C      1  0.4847520000000  0.4173810000000  0.4742760000000 1.0
C      1  0.5398270000000  0.5471270000000  0.5059990000000 1.0
C      1  0.4409470000000  0.3983820000000  0.4582570000000 1.0
C      1  0.5089110000000  0.4545080000000  0.5504840000000 1.0
C      1  0.5180880000000  0.5943160000000  0.5482480000000 1.0
C      1  0.5810320000000  0.5146300000000  0.5032860000000 1.0
C      1  0.5010730000000  0.4457460000000  0.4514630000000 1.0
C      1  0.4051760000000  0.4776800000000  0.4627760000000 1.0
C      1  0.4192480000000  0.4392760000000  0.4818060000000 1.0
C      1  0.5568870000000  0.5349430000000  0.5560590000000 1.0
C      1  0.5131420000000  0.5153540000000  0.4805140000000 1.0
C      1  0.5391070000000  0.4578210000000  0.4529100000000 1.0
C      1  0.4453060000000  0.4813340000000  0.5894240000000 1.0
C      1  0.4987980000000  0.5613240000000  0.5055060000000 1.0
C      1  0.4631530000000  0.4580800000000  0.4529230000000 1.0
C      1  0.5268190000000  0.5946440000000  0.4515840000000 1.0
C      1  0.4415760000000  0.4498370000000  0.5531660000000 1.0
C      1  0.4690600000000  0.4625720000000  0.5934500000000 1.0
C      1  0.4685770000000  0.4556300000000  0.4136580000000 1.0
C      1  0.5332920000000  0.5441360000000  0.5341950000000 1.0
C      1  0.4286010000000  0.4301100000000  0.4552770000000 1.0
C      1  0.5102320000000  0.4822290000000  0.4121080000000 1.0
C      1  0.4660300000000  0.5423860000000  0.4825180000000 1.0
C      1  0.4824600000000  0.4932970000000  0.5977920000000 1.0
C      1  0.5966010000000  0.5366770000000  0.4560000000000 1.0
C      1  0.4738520000000  0.5606250000000  0.4314530000000 1.0
C      1  0.4988200000000  0.5526760000000  0.4214820000000 1.0
C      1  0.5101190000000  0.4448060000000  0.5830520000000 1.0
C      1  0.4650180000000  0.5754990000000  0.4902940000000 1.0
C      1  0.6157060000000  0.5030020000000  0.5322370000000 1.0
C      1  0.4490530000000  0.5681720000000  0.5205810000000 1.0
C      1  0.5214320000000  0.4273360000000  0.4334130000000 1.0
C      1  0.4747880000000  0.5474760000000  0.5652960000000 1.0
C      1  0.5491180000000  0.5119830000000  0.4072230000000 1.0
C      1  0.4462010000000  0.5227730000000  0.4115110000000 1.0
C      1  0.4234510000000  0.4781380000000  0.5218750000000 1.0
C      1  0.5732690000000  0.5720730000000  0.5451620000000 1.0
C      1  0.5122970000000  0.4771770000000  0.4449640000000 1.0
C      1  0.4550720000000  0.5411220000000  0.5403130000000 1.0
C      1  0.5204790000000  0.5277510000000  0.4438660000000 1.0
C      1  0.4369040000000  0.5048660000000  0.4459610000000 1.0
C      1  0.4574360000000  0.4782680000000  0.5236270000000 1.0
C      1  0.5293020000000  0.5639800000000  0.5803110000000 1.0
C      1  0.5450220000000  0.4701030000000  0.5019460000000 1.0
C      1  0.4728990000000  0.4481570000000  0.5662890000000 1.0
C      1  0.4138760000000  0.5203110000000  0.5275320000000 1.0
C      1  0.4546860000000  0.4051810000000  0.5489560000000 1.0
C      1  0.5205600000000  0.5069150000000  0.4027020000000 1.0
C      1  0.5405290000000  0.5374490000000  0.4189360000000 1.0
C      1  0.4753870000000  0.5113430000000  0.4003240000000 1.0
C      1  0.4806970000000  0.4847410000000  0.4482400000000 1.0
C      1  0.5290110000000  0.5729770000000  0.4935530000000 1.0
C      1  0.5434190000000  0.4182050000000  0.4495130000000 1.0
C      1  0.4881390000000  0.4490740000000  0.4827320000000 1.0
C      1  0.4523020000000  0.5931930000000  0.4400230000000 1.0
C      1  0.4654410000000  0.5021430000000  0.4304950000000 1.0
C      1  0.5079030000000  0.4748780000000  0.5847390000000 1.0
C      1  0.4406410000000  0.5353310000000  0.4606030000000 1.0
C      1  0.5421100000000  0.4678360000000  0.5326110000000 1.0
C      1  0.5354030000000  0.5015260000000  0.4503910000000 1.0
C      1  0.5819120000000  0.4823400000000  0.4926380000000 1.0
C      1  0.4639010000000  0.4639320000000  0.4923560000000 1.0
C      1  0.5109260000000  0.4193310000000  0.5157290000000 1.0
C      1  0.4967010000000  0.5026710000000  0.5039350000000 1.0
C      1  0.5048310000000  0.4123910000000  0.5467320000000 1.0
C      1  0.4298890000000  0.4737310000000  0.5668030000000 1.0
C      1  0.4822250000000  0.4782120000000  0.4033850000000 1.0
C      1  0.5269420000000  0.4860960000000  0.5670010000000 1.0
C      1  0.5126740000000  0.4721630000000  0.4790900000000 1.0
C      1  0.5046650000000  0.5589390000000  0.5612490000000 1.0
C      1  0.5411770000000  0.5712740000000  0.5507490000000 1.0
C      1  0.4405730000000  0.5417720000000  0.5848610000000 1.0
C      1  0.5769610000000  0.5602290000000  0.4698410000000 1.0
C      1  0.5965650000000  0.4836650000000  0.5233050000000 1.0
C      1  0.4495860000000  0.5685480000000  0.5740630000000 1.0
C      1  0.4927470000000  0.5052610000000  0.5475660000000 1.0
C      1  0.5383980000000  0.4194130000000  0.5335030000000 1.0
C      1  0.5636340000000  0.4991600000000  0.4693780000000 1.0
C      1  0.4204220000000  0.4765030000000  0.4369610000000 1.0
C      1  0.5017490000000  0.5944320000000  0.5126890000000 1.0
C      1  0.5865500000000  0.5457620000000  0.5482080000000 1.0
C      1  0.5348320000000  0.5941960000000  0.5186530000000 1.0
C      1  0.4552590000000  0.5112580000000  0.5879180000000 1.0
C      1  0.5431460000000  0.5023650000000  0.5125560000000 1.0
C      1  0.6063510000000  0.5260090000000  0.5470420000000 1.0
C      1  0.5464080000000  0.5496000000000  0.4650430000000 1.0
C      1  0.4779670000000  0.4183480000000  0.5556780000000 1.0
C      1  0.4340140000000  0.4213570000000  0.5402930000000 1.0
C      1  0.6420430000000  0.4998820000000  0.5270590000000 1.0
C      1  0.5030020000000  0.5674560000000  0.4723170000000 1.0
C      1  0.5311360000000  0.4451610000000  0.4834450000000 1.0
C      1  0.4178740000000  0.4241810000000  0.5135050000000 1.0
C      1  0.5415230000000  0.4497380000000  0.5591180000000 1.0
C      1  0.4649420000000  0.3930530000000  0.4752700000000 1.0
C      1  0.5138080000000  0.4180110000000  0.4867810000000 1.0
C      1  0.4868520000000  0.6240620000000  0.5130650000000 1.0
C      1  0.5614250000000  0.4947130000000  0.4298100000000 1.0
C      1  0.4186060000000  0.5827200000000  0.5247980000000 1.0
C      1  0.4258370000000  0.5097360000000  0.4975100000000 1.0
C      1  0.5953260000000  0.4814430000000  0.4459740000000 1.0
C      1  0.4104810000000  0.4820120000000  0.4902580000000 1.0
C      1  0.4635820000000  0.4450680000000  0.5276850000000 1.0
C      1  0.4376830000000  0.5769880000000  0.4268410000000 1.0
C      1  0.5696250000000  0.4637660000000  0.4389980000000 1.0
C      1  0.5702930000000  0.4820730000000  0.5424140000000 1.0
C      1  0.4893640000000  0.4341650000000  0.4232820000000 1.0
C      1  0.4375300000000  0.5195830000000  0.5597740000000 1.0
C      1  0.4824810000000  0.5327990000000  0.5107370000000 1.0
C      1  0.5190650000000  0.4908860000000  0.5347730000000 1.0
C      1  0.4191540000000  0.5069030000000  0.4167450000000 1.0
C      1  0.4617420000000  0.4241950000000  0.4503970000000 1.0
C      1  0.5681320000000  0.4305890000000  0.5213250000000 1.0
C      1  0.4946530000000  0.5364320000000  0.4642220000000 1.0
C      1  0.5054670000000  0.6083150000000  0.4616190000000 1.0
C      1  0.5547770000000  0.4861650000000  0.5723940000000 1.0
C      1  0.5846210000000  0.5119520000000  0.4458670000000 1.0
C      1  0.5220770000000  0.5617090000000  0.4445960000000 1.0
C      1  0.4691980000000  0.3707500000000  0.4903810000000 1.0
C      1  0.4590620000000  0.5122800000000  0.5244190000000 1.0
C      1  0.4838770000000  0.4993900000000  0.4739470000000 1.0
C      1  0.5693050000000  0.4506860000000  0.4937580000000 1.0
C      1  0.4584040000000  0.5033180000000  0.4925620000000 1.0
C      1  0.4394660000000  0.5402820000000  0.5036390000000 1.0
C      1  0.5033800000000  0.4718760000000  0.5118030000000 1.0
C      1  0.4935030000000  0.4444170000000  0.5239500000000 1.0
C      1  0.5035960000000  0.5350290000000  0.5373090000000 1.0
C      1  0.5655930000000  0.4392750000000  0.4619450000000 1.0
C      1  0.4743900000000  0.5786570000000  0.4577490000000 1.0
C      1  0.5734760000000  0.4488770000000  0.5494880000000 1.0
C      1  0.5569770000000  0.5799010000000  0.4504700000000 1.0
C      1  0.5459210000000  0.5408540000000  0.5839050000000 1.0
C      1  0.4894550000000  0.5854050000000  0.5517430000000 1.0
C      1  0.4175180000000  0.4966160000000  0.5484390000000 1.0
C      1  0.5343410000000  0.4015890000000  0.4697060000000 1.0
C      1  0.5915440000000  0.5349250000000  0.4872890000000 1.0
C      1  0.5099720000000  0.5131720000000  0.5956960000000 1.0
C      1  0.4818110000000  0.4748040000000  0.5470990000000 1.0
C      1  0.5869150000000  0.4094240000000  0.5185140000000 1.0
C      1  0.4394580000000  0.4517030000000  0.4308930000000 1.0
C      1  0.4117990000000  0.5537270000000  0.5216090000000 1.0
C      1  0.4461040000000  0.5461670000000  0.4305110000000 1.0
C      1  0.5370500000000  0.5193910000000  0.5994380000000 1.0
C      1  0.5437460000000  0.5220320000000  0.4848240000000 1.0
C      1  0.5663440000000  0.5143970000000  0.5337900000000 1.0
C      1  0.4621610000000  0.5816490000000  0.5489380000000 1.0
C      1  0.5281810000000  0.4213670000000  0.5662900000000 1.0
C      1  0.4917720000000  0.5230370000000  0.5732480000000 1.0
C      1  0.4718260000000  0.4073300000000  0.4226410000000 1.0
C      1  0.6061410000000  0.4759740000000  0.4714080000000 1.0
C      1  0.5564250000000  0.4981470000000  0.5980190000000 1.0
C      1  0.4844450000000  0.6032410000000  0.4866800000000 1.0
C      1  0.5646730000000  0.5941710000000  0.5278880000000 1.0
C      1  0.4034010000000  0.4544480000000  0.5079870000000 1.0
C      1  0.4471700000000  0.4827520000000  0.4696620000000 1.0
C      1  0.5011770000000  0.5298040000000  0.4044070000000 1.0
C      1  0.4144960000000  0.5414770000000  0.4720860000000 1.0
C      1  0.4419290000000  0.4455370000000  0.5046330000000 1.0
END
