TITL C-2847952-8118-627 -0.00178774522861386 125000 -489.095182749055 0 0 90 (C1) n - 1
REM
REM in /home/bkarasulu/work/CARBON/AIRSS/Generating-Clusters/AIREBO/with-SteepDescent/Only-C1/SD-CG-opt/Try1-1.4A-POS3A/HFTN-CG
REM
REM
REM
REM
REM
REM ./C.cell (11c1c37f851c82e70ff6c80c92926a4b)
REM
REM compiler GCC version 9.2.1 20190827 (Red Hat 9.2.1-1)
REM options -cpp -mtune=generic -march=x86-64 -g -O0 -fpre-include=/usr/include/finclude/math-vector-fortran.h
REM seed -736271787 -1813947996 -2123267236 1718993786 -361304715 -2029063092 2030338961 180882160 2017938435 998236111 1265666525 1822444333 51360762 1793803842 -1246238448 -1639186127 1980903913 743257492 -568772084 531709934 660838102 -1487330445 -1839802222 990718072 1544169279 1058704431 1175873207 -2118302262 -1326595444 896223073 -992126536 -1655617659 -180019503
REM
CELL 1.54180   50.00000   50.00000   50.00000   90.00000   90.00000   90.00000
LATT -1
SFAC C  
C      1  0.5329500000000  0.5750700000000  0.4395260000000 1.0
C      1  0.5974970000000  0.5576360000000  0.4881470000000 1.0
C      1  0.5045340000000  0.6114670000000  0.4872060000000 1.0
C      1  0.4296590000000  0.4901680000000  0.4742340000000 1.0
C      1  0.5174480000000  0.4123960000000  0.5302380000000 1.0
C      1  0.5715610000000  0.5119130000000  0.4599170000000 1.0
C      1  0.4861030000000  0.5124470000000  0.5867980000000 1.0
C      1  0.5546980000000  0.4517590000000  0.5279080000000 1.0
C      1  0.4883960000000  0.5273090000000  0.4048040000000 1.0
C      1  0.4695890000000  0.4737500000000  0.4904870000000 1.0
C      1  0.5297600000000  0.4424370000000  0.4524110000000 1.0
C      1  0.4264530000000  0.5460380000000  0.5010520000000 1.0
C      1  0.5239010000000  0.5043690000000  0.5142110000000 1.0
C      1  0.4631690000000  0.5247910000000  0.5570050000000 1.0
C      1  0.4727590000000  0.5044400000000  0.4017230000000 1.0
C      1  0.5200970000000  0.5492410000000  0.5515980000000 1.0
C      1  0.5350800000000  0.5236090000000  0.5700090000000 1.0
C      1  0.5397800000000  0.4274640000000  0.5093520000000 1.0
C      1  0.4491490000000  0.4768740000000  0.5759750000000 1.0
C      1  0.4860800000000  0.4857410000000  0.4635720000000 1.0
C      1  0.4218070000000  0.4917260000000  0.5027090000000 1.0
C      1  0.5262210000000  0.4755140000000  0.4745610000000 1.0
C      1  0.5617170000000  0.4055290000000  0.5123100000000 1.0
C      1  0.5411520000000  0.5490440000000  0.4452500000000 1.0
C      1  0.4565980000000  0.5815020000000  0.5036470000000 1.0
C      1  0.4233630000000  0.5063790000000  0.5467530000000 1.0
C      1  0.4930040000000  0.5401540000000  0.4291170000000 1.0
C      1  0.5094000000000  0.4418560000000  0.5405440000000 1.0
C      1  0.4873730000000  0.5367680000000  0.5068220000000 1.0
C      1  0.5056630000000  0.4914630000000  0.5895520000000 1.0
C      1  0.5328380000000  0.4980520000000  0.5807290000000 1.0
C      1  0.5217010000000  0.5634440000000  0.4951220000000 1.0
C      1  0.5322710000000  0.4685140000000  0.4307330000000 1.0
C      1  0.3955990000000  0.4567720000000  0.5236560000000 1.0
C      1  0.4759550000000  0.5041580000000  0.5064810000000 1.0
C      1  0.4725500000000  0.5116640000000  0.4522230000000 1.0
C      1  0.5770160000000  0.4855370000000  0.4581560000000 1.0
C      1  0.5703680000000  0.5548670000000  0.4889470000000 1.0
C      1  0.5667250000000  0.5282260000000  0.5317300000000 1.0
C      1  0.4459200000000  0.5155380000000  0.4658690000000 1.0
C      1  0.5269690000000  0.5387220000000  0.4734600000000 1.0
C      1  0.4159330000000  0.4750950000000  0.5230640000000 1.0
C      1  0.5047100000000  0.5227240000000  0.4531290000000 1.0
C      1  0.4540060000000  0.5502660000000  0.5432370000000 1.0
C      1  0.4448450000000  0.4646940000000  0.4688430000000 1.0
C      1  0.5041040000000  0.4938760000000  0.4903970000000 1.0
C      1  0.4450100000000  0.5166190000000  0.4998410000000 1.0
C      1  0.4964590000000  0.5296150000000  0.5619600000000 1.0
C      1  0.4922600000000  0.4179290000000  0.5525260000000 1.0
C      1  0.4609170000000  0.4958570000000  0.3787110000000 1.0
C      1  0.5479400000000  0.5202600000000  0.4449030000000 1.0
C      1  0.5550960000000  0.4795790000000  0.5125340000000 1.0
C      1  0.5265680000000  0.4972450000000  0.4480160000000 1.0
C      1  0.5190950000000  0.4504970000000  0.4952720000000 1.0
C      1  0.5593900000000  0.4564760000000  0.5547470000000 1.0
C      1  0.4664350000000  0.4636270000000  0.5415930000000 1.0
C      1  0.4821620000000  0.5665130000000  0.4927290000000 1.0
C      1  0.4871820000000  0.5668370000000  0.4352080000000 1.0
C      1  0.4542260000000  0.4330460000000  0.4638330000000 1.0
C      1  0.4344330000000  0.5293190000000  0.5295630000000 1.0
C      1  0.4871890000000  0.4783060000000  0.5642060000000 1.0
C      1  0.5859550000000  0.4865360000000  0.5095670000000 1.0
C      1  0.4872560000000  0.4460140000000  0.4934150000000 1.0
C      1  0.5530550000000  0.4672360000000  0.4564550000000 1.0
C      1  0.5069360000000  0.5812260000000  0.4487730000000 1.0
C      1  0.5041130000000  0.5198540000000  0.5300460000000 1.0
C      1  0.4866280000000  0.4633970000000  0.4395540000000 1.0
C      1  0.4577740000000  0.5028340000000  0.5824120000000 1.0
C      1  0.5407970000000  0.4232650000000  0.4756150000000 1.0
C      1  0.5537490000000  0.5127370000000  0.5085980000000 1.0
C      1  0.5036610000000  0.5848720000000  0.4783960000000 1.0
C      1  0.4693320000000  0.4542130000000  0.5802640000000 1.0
C      1  0.5396840000000  0.4718830000000  0.5685920000000 1.0
C      1  0.5569740000000  0.5278430000000  0.4831080000000 1.0
C      1  0.5149750000000  0.4610460000000  0.5614530000000 1.0
C      1  0.4770930000000  0.4270780000000  0.5749120000000 1.0
C      1  0.5522670000000  0.5402190000000  0.5505430000000 1.0
C      1  0.4793480000000  0.5010880000000  0.5401940000000 1.0
C      1  0.5057990000000  0.5593260000000  0.5243780000000 1.0
C      1  0.4814300000000  0.4298560000000  0.4691700000000 1.0
C      1  0.4536430000000  0.4639110000000  0.4386110000000 1.0
C      1  0.4912400000000  0.4589980000000  0.5223450000000 1.0
C      1  0.4316430000000  0.5717890000000  0.4964640000000 1.0
C      1  0.5331060000000  0.4650680000000  0.4012680000000 1.0
C      1  0.4994960000000  0.4383380000000  0.4482060000000 1.0
C      1  0.4363500000000  0.4754820000000  0.5467560000000 1.0
C      1  0.5517770000000  0.5727580000000  0.4975680000000 1.0
C      1  0.4727580000000  0.5669950000000  0.5282620000000 1.0
C      1  0.5221550000000  0.4728500000000  0.5189940000000 1.0
C      1  0.4701720000000  0.4905590000000  0.4272250000000 1.0
END
