TITL C-2847947-6848-213 -0.000791994744290402 125000 -48.3514662389965 0 0 10 (C1) n - 1
REM
REM in /home/bkarasulu/work/CARBON/AIRSS/Generating-Clusters/AIREBO/with-SteepDescent/Only-C1/SD-CG-opt/Try1-1.4A-POS3A/HFTN-CG
REM
REM
REM
REM
REM
REM ./C.cell (11c1c37f851c82e70ff6c80c92926a4b)
REM
REM compiler GCC version 9.2.1 20190827 (Red Hat 9.2.1-1)
REM options -cpp -mtune=generic -march=x86-64 -g -O0 -fpre-include=/usr/include/finclude/math-vector-fortran.h
REM seed -218564675 -1597568024 1837236813 1574105984 1905399139 1293267992 835681599 -1380680342 1026162519 216743003 1086581282 1406827065 -832428162 -1792032815 -1676843496 -479137568 361605807 -1158241941 -550086199 605323400 -492555439 -1098043984 -1159722927 1915903540 -411486544 -1605549144 -388557174 -568096377 -632475663 -231107228 -2027981609 816860175 861343395
REM
CELL 1.54180   50.00000   50.00000   50.00000   90.00000   90.00000   90.00000
LATT -1
SFAC C  
C      1  0.4825420000000  0.5158920000000  0.5110790000000 1.0
C      1  0.5225630000000  0.4426880000000  0.4753660000000 1.0
C      1  0.5499510000000  0.5157510000000  0.4791540000000 1.0
C      1  0.5264310000000  0.4950220000000  0.4857500000000 1.0
C      1  0.5251060000000  0.4680280000000  0.4815670000000 1.0
C      1  0.5077650000000  0.5141840000000  0.5030970000000 1.0
C      1  0.4610950000000  0.5319640000000  0.5291090000000 1.0
C      1  0.4377490000000  0.4820920000000  0.5179480000000 1.0
C      1  0.5317130000000  0.5328700000000  0.4967030000000 1.0
C      1  0.4550840000000  0.5015090000000  0.5202260000000 1.0
END
