TITL C-2848504-8560-67 9859.01562557813 125000 -855.038512701228 0 0 161 (C1) n - 1
REM
REM in /home/bkarasulu/work/CARBON/AIRSS/Generating-Clusters/AIREBO/with-SteepDescent/Only-C1/SD-CG-opt/Try1-1.4A-POS3A/HFTN-CG
REM
REM
REM
REM
REM
REM ./C.cell (11c1c37f851c82e70ff6c80c92926a4b)
REM
REM compiler GCC version 9.2.1 20190827 (Red Hat 9.2.1-1)
REM options -cpp -mtune=generic -march=x86-64 -g -O0 -fpre-include=/usr/include/finclude/math-vector-fortran.h
REM seed -536490931 551419423 -1147720642 23902290 1911084167 993198686 -429468184 -1037838867 1548350618 315884604 1121524495 147469634 1902016711 -73381099 -865126710 706653091 1433202234 -1448275885 -212950997 -1628647613 952709729 986602005 1299401371 -1006616866 -2058228185 235926154 -276937813 -226678890 -755217718 -1483455737 1774130117 551607970 -702036916
REM
CELL 1.54180   50.00000   50.00000   50.00000   90.00000   90.00000   90.00000
LATT -1
SFAC C  
C      1  0.5161140000000  0.5304290000000  0.4753360000000 1.0
C      1  0.5935510000000  0.4930010000000  0.5208170000000 1.0
C      1  0.5773190000000  0.5398120000000  0.4924290000000 1.0
C      1  0.4216490000000  0.5874420000000  0.4903500000000 1.0
C      1  0.5548820000000  0.5539640000000  0.5700030000000 1.0
C      1  0.5000880000000  0.5609920000000  0.5989520000000 1.0
C      1  0.4416560000000  0.4428760000000  0.4324860000000 1.0
C      1  0.5027660000000  0.4458280000000  0.4611360000000 1.0
C      1  0.4502460000000  0.4951610000000  0.5708310000000 1.0
C      1  0.4145610000000  0.4326670000000  0.5140900000000 1.0
C      1  0.4602050000000  0.5268540000000  0.4665730000000 1.0
C      1  0.5926830000000  0.4604280000000  0.5534890000000 1.0
C      1  0.5338350000000  0.5312550000000  0.4995680000000 1.0
C      1  0.4755350000000  0.4846270000000  0.5134560000000 1.0
C      1  0.4847840000000  0.4595970000000  0.5289920000000 1.0
C      1  0.4535830000000  0.4976580000000  0.4827010000000 1.0
C      1  0.4852610000000  0.5480490000000  0.4576680000000 1.0
C      1  0.4250920000000  0.4715410000000  0.4411610000000 1.0
C      1  0.5012000000000  0.4432330000000  0.5765010000000 1.0
C      1  0.5708990000000  0.4497020000000  0.5298140000000 1.0
C      1  0.5175120000000  0.5120660000000  0.4071680000000 1.0
C      1  0.5004400000000  0.4710270000000  0.5569250000000 1.0
C      1  0.5719310000000  0.5724070000000  0.4447320000000 1.0
C      1  0.5333850000000  0.4399630000000  0.4475260000000 1.0
C      1  0.6102920000000  0.5020010000000  0.4965840000000 1.0
C      1  0.5636570000000  0.5146180000000  0.4740960000000 1.0
C      1  0.4903540000000  0.5134350000000  0.5031060000000 1.0
C      1  0.5161680000000  0.4841480000000  0.5297620000000 1.0
C      1  0.5297510000000  0.5134720000000  0.5383580000000 1.0
C      1  0.5490450000000  0.4227060000000  0.4638070000000 1.0
C      1  0.5684120000000  0.5589760000000  0.5180730000000 1.0
C      1  0.5015920000000  0.5239250000000  0.5334370000000 1.0
C      1  0.4713310000000  0.4267250000000  0.5747950000000 1.0
C      1  0.5009930000000  0.5673490000000  0.4777980000000 1.0
C      1  0.5915090000000  0.5134010000000  0.5648450000000 1.0
C      1  0.5692240000000  0.5082220000000  0.5390580000000 1.0
C      1  0.4597400000000  0.5686270000000  0.4545560000000 1.0
C      1  0.4737320000000  0.5455250000000  0.5868870000000 1.0
C      1  0.4371380000000  0.5145870000000  0.5014790000000 1.0
C      1  0.4345390000000  0.5491440000000  0.4672410000000 1.0
C      1  0.4689120000000  0.4965190000000  0.5979100000000 1.0
C      1  0.5162040000000  0.5819640000000  0.4533100000000 1.0
C      1  0.5502140000000  0.4875180000000  0.4585100000000 1.0
C      1  0.4688300000000  0.5722620000000  0.4876740000000 1.0
C      1  0.4484220000000  0.4268500000000  0.4575290000000 1.0
C      1  0.5448330000000  0.5053560000000  0.5822360000000 1.0
C      1  0.4214420000000  0.4873380000000  0.5662750000000 1.0
C      1  0.5073940000000  0.5309310000000  0.6047490000000 1.0
C      1  0.4699540000000  0.4714750000000  0.4138020000000 1.0
C      1  0.4907050000000  0.4080570000000  0.5607770000000 1.0
C      1  0.5188520000000  0.4688910000000  0.6043100000000 1.0
C      1  0.5783070000000  0.5067530000000  0.4377650000000 1.0
C      1  0.5168790000000  0.4600360000000  0.4886440000000 1.0
C      1  0.4853230000000  0.5557270000000  0.3951570000000 1.0
C      1  0.4849620000000  0.3990940000000  0.4585390000000 1.0
C      1  0.4242090000000  0.5452040000000  0.4182760000000 1.0
C      1  0.4593000000000  0.4119850000000  0.5278630000000 1.0
C      1  0.4962000000000  0.4619880000000  0.4319330000000 1.0
C      1  0.4588510000000  0.4760300000000  0.4456180000000 1.0
C      1  0.4575440000000  0.5141780000000  0.5472710000000 1.0
C      1  0.5371000000000  0.5296530000000  0.6006690000000 1.0
C      1  0.5170480000000  0.4906350000000  0.4629640000000 1.0
C      1  0.4838400000000  0.5272280000000  0.5598910000000 1.0
C      1  0.4048230000000  0.4733170000000  0.4884500000000 1.0
C      1  0.4234670000000  0.5756100000000  0.5359550000000 1.0
C      1  0.5617110000000  0.5173250000000  0.4100430000000 1.0
C      1  0.4196110000000  0.5298090000000  0.4471030000000 1.0
C      1  0.5158600000000  0.4898350000000  0.5792540000000 1.0
C      1  0.4584690000000  0.5460540000000  0.5354320000000 1.0
C      1  0.4994410000000  0.5752150000000  0.4176490000000 1.0
C      1  0.5408060000000  0.4245680000000  0.5131170000000 1.0
C      1  0.4685070000000  0.4697730000000  0.5685530000000 1.0
C      1  0.4465430000000  0.5638340000000  0.4234430000000 1.0
C      1  0.4215020000000  0.5355850000000  0.5673070000000 1.0
C      1  0.4197760000000  0.4823820000000  0.5176180000000 1.0
C      1  0.4383670000000  0.4839830000000  0.4124370000000 1.0
C      1  0.4675840000000  0.5038620000000  0.4130320000000 1.0
C      1  0.4029490000000  0.5099980000000  0.5262850000000 1.0
C      1  0.4940150000000  0.4202720000000  0.5083820000000 1.0
C      1  0.6003180000000  0.4869180000000  0.5512390000000 1.0
C      1  0.5118890000000  0.5438870000000  0.4120630000000 1.0
C      1  0.5177570000000  0.5302160000000  0.4426410000000 1.0
C      1  0.5834900000000  0.4350970000000  0.5005420000000 1.0
C      1  0.5329160000000  0.4114280000000  0.4841730000000 1.0
C      1  0.5249850000000  0.5739120000000  0.5374970000000 1.0
C      1  0.5489330000000  0.4632160000000  0.4347620000000 1.0
C      1  0.5192020000000  0.5949380000000  0.5113640000000 1.0
C      1  0.5167810000000  0.4929350000000  0.4969090000000 1.0
C      1  0.4849040000000  0.4013680000000  0.5341330000000 1.0
C      1  0.5255670000000  0.6145570000000  0.4883970000000 1.0
C      1  0.4872400000000  0.4678030000000  0.5962850000000 1.0
C      1  0.5448460000000  0.5147460000000  0.4388650000000 1.0
C      1  0.5587720000000  0.5867820000000  0.4689710000000 1.0
C      1  0.6018170000000  0.4710280000000  0.4885120000000 1.0
C      1  0.4897170000000  0.5099960000000  0.4688620000000 1.0
C      1  0.5347470000000  0.5585610000000  0.4443580000000 1.0
C      1  0.5656650000000  0.4785610000000  0.5125890000000 1.0
C      1  0.5948970000000  0.5041070000000  0.4673260000000 1.0
C      1  0.4497080000000  0.4972580000000  0.5239730000000 1.0
C      1  0.4164860000000  0.4460950000000  0.4874910000000 1.0
C      1  0.5393090000000  0.4602870000000  0.5366800000000 1.0
C      1  0.4147490000000  0.5616770000000  0.4859540000000 1.0
C      1  0.5538900000000  0.5312540000000  0.5254100000000 1.0
C      1  0.4970280000000  0.5560920000000  0.5324650000000 1.0
C      1  0.4412260000000  0.4202770000000  0.5052300000000 1.0
C      1  0.4202800000000  0.4594830000000  0.5600480000000 1.0
C      1  0.4879720000000  0.5156250000000  0.4351330000000 1.0
C      1  0.5603730000000  0.5467240000000  0.4633480000000 1.0
C      1  0.5349260000000  0.6028740000000  0.4650980000000 1.0
C      1  0.5175740000000  0.4871810000000  0.4291200000000 1.0
C      1  0.5665490000000  0.5279230000000  0.5737020000000 1.0
C      1  0.5892630000000  0.4763550000000  0.4482600000000 1.0
C      1  0.4743280000000  0.5452880000000  0.4255910000000 1.0
C      1  0.5600520000000  0.5484200000000  0.4237660000000 1.0
C      1  0.4589920000000  0.4423370000000  0.5344950000000 1.0
C      1  0.5469430000000  0.4884310000000  0.5541810000000 1.0
C      1  0.5709480000000  0.4662410000000  0.4750770000000 1.0
C      1  0.4261100000000  0.5493390000000  0.5254770000000 1.0
C      1  0.5740600000000  0.4478550000000  0.4167010000000 1.0
C      1  0.4096210000000  0.5117250000000  0.5552230000000 1.0
C      1  0.4468950000000  0.5469910000000  0.5673890000000 1.0
C      1  0.4105780000000  0.5314850000000  0.5010480000000 1.0
C      1  0.4811000000000  0.4798630000000  0.4820460000000 1.0
C      1  0.4049380000000  0.5159290000000  0.4709890000000 1.0
C      1  0.4572980000000  0.4014880000000  0.4655020000000 1.0
C      1  0.5361330000000  0.4575260000000  0.6191900000000 1.0
C      1  0.4714900000000  0.5770700000000  0.5404610000000 1.0
C      1  0.5526070000000  0.5660470000000  0.5446720000000 1.0
C      1  0.5622050000000  0.4631130000000  0.3971250000000 1.0
C      1  0.5551940000000  0.5728540000000  0.4931730000000 1.0
C      1  0.4442460000000  0.5062380000000  0.4450100000000 1.0
C      1  0.4061420000000  0.4872670000000  0.4648260000000 1.0
C      1  0.5362440000000  0.4157260000000  0.5464830000000 1.0
C      1  0.4983430000000  0.5950250000000  0.5382140000000 1.0
C      1  0.5030590000000  0.4155450000000  0.4766230000000 1.0
C      1  0.5648560000000  0.4196930000000  0.5446110000000 1.0
C      1  0.5483620000000  0.4536580000000  0.4971900000000 1.0
C      1  0.5233020000000  0.5635790000000  0.4989160000000 1.0
C      1  0.4443570000000  0.4591860000000  0.5138180000000 1.0
C      1  0.4858160000000  0.4094110000000  0.4314710000000 1.0
C      1  0.4649320000000  0.5243060000000  0.6091310000000 1.0
C      1  0.4851860000000  0.5870200000000  0.4414770000000 1.0
C      1  0.4697290000000  0.4516970000000  0.4667570000000 1.0
C      1  0.6058020000000  0.5332440000000  0.4923890000000 1.0
C      1  0.4775850000000  0.5453720000000  0.5067110000000 1.0
C      1  0.4469960000000  0.5901500000000  0.5285280000000 1.0
C      1  0.5141380000000  0.4454500000000  0.5192340000000 1.0
C      1  0.4479720000000  0.5911380000000  0.5007160000000 1.0
C      1  0.5493070000000  0.5009820000000  0.5001120000000 1.0
C      1  0.5723690000000  0.4122420000000  0.5160050000000 1.0
C      1  0.4747210000000  0.4357540000000  0.4288690000000 1.0
C      1  0.4436930000000  0.4661970000000  0.4831250000000 1.0
C      1  0.4479830000000  0.4459510000000  0.5639750000000 1.0
C      1  0.4364740000000  0.5167750000000  0.4136300000000 1.0
C      1  0.5461200000000  0.4869450000000  0.4105640000000 1.0
C      1  0.4675190000000  0.4320680000000  0.4944370000000 1.0
C      1  0.4103310000000  0.4541670000000  0.5340800000000 1.0
C      1  0.5177970000000  0.4173360000000  0.5653640000000 1.0
C      1  0.5743660000000  0.4333000000000  0.4715980000000 1.0
C      1  0.5288660000000  0.5573760000000  0.5845550000000 1.0
C      1  0.4947080000000  0.5115020000000  0.5857610000000 1.0
END
