TITL C-2847952-8118-648 -0.000815123544087557 125000 -778.830974911872 0 0 146 (C1) n - 1
REM
REM in /home/bkarasulu/work/CARBON/AIRSS/Generating-Clusters/AIREBO/with-SteepDescent/Only-C1/SD-CG-opt/Try1-1.4A-POS3A/HFTN-CG
REM
REM
REM
REM
REM
REM ./C.cell (11c1c37f851c82e70ff6c80c92926a4b)
REM
REM compiler GCC version 9.2.1 20190827 (Red Hat 9.2.1-1)
REM options -cpp -mtune=generic -march=x86-64 -g -O0 -fpre-include=/usr/include/finclude/math-vector-fortran.h
REM seed -440051682 1247244471 -1024985682 -1268041827 212549737 185531323 669075946 1396678778 -770271829 -1865663806 -1993416391 288369021 -1615090307 -205780343 -974549946 1820613417 -1881231330 -37278014 1635172153 -2029124129 -752619836 1400124835 -735088056 -1721550108 1072524860 -1850583377 1700146106 -375101619 1797377870 -678218476 971640566 -1821879569 272008438
REM
CELL 1.54180   50.00000   50.00000   50.00000   90.00000   90.00000   90.00000
LATT -1
SFAC C  
C      1  0.5909340000000  0.4749470000000  0.4793100000000 1.0
C      1  0.4700240000000  0.5746730000000  0.4580100000000 1.0
C      1  0.4489460000000  0.4680470000000  0.5922800000000 1.0
C      1  0.4546540000000  0.5369160000000  0.5836980000000 1.0
C      1  0.4074500000000  0.5123790000000  0.5166820000000 1.0
C      1  0.5844270000000  0.5048780000000  0.5802890000000 1.0
C      1  0.4364850000000  0.6144810000000  0.4366690000000 1.0
C      1  0.5031650000000  0.5136010000000  0.5526030000000 1.0
C      1  0.5196260000000  0.4448890000000  0.5308220000000 1.0
C      1  0.5039520000000  0.4185530000000  0.4664840000000 1.0
C      1  0.4958790000000  0.3872890000000  0.5228770000000 1.0
C      1  0.5705470000000  0.5197330000000  0.4610270000000 1.0
C      1  0.5644370000000  0.4310680000000  0.4953390000000 1.0
C      1  0.5066160000000  0.5121210000000  0.5923840000000 1.0
C      1  0.5448800000000  0.5252650000000  0.4101720000000 1.0
C      1  0.4910430000000  0.4953440000000  0.4094970000000 1.0
C      1  0.4196700000000  0.5411600000000  0.4656260000000 1.0
C      1  0.5493370000000  0.4356190000000  0.4650080000000 1.0
C      1  0.4824850000000  0.4820270000000  0.4903420000000 1.0
C      1  0.4299540000000  0.5276310000000  0.4396260000000 1.0
C      1  0.4719570000000  0.5786420000000  0.5547750000000 1.0
C      1  0.5864900000000  0.5777050000000  0.5004030000000 1.0
C      1  0.5055630000000  0.4346700000000  0.5056830000000 1.0
C      1  0.5244440000000  0.4787750000000  0.5637140000000 1.0
C      1  0.5440460000000  0.5683240000000  0.4539530000000 1.0
C      1  0.5319490000000  0.4891270000000  0.4435390000000 1.0
C      1  0.4644840000000  0.4080790000000  0.5495600000000 1.0
C      1  0.4741200000000  0.5503180000000  0.5628430000000 1.0
C      1  0.4907150000000  0.5012070000000  0.4539010000000 1.0
C      1  0.4729160000000  0.4648940000000  0.4622310000000 1.0
C      1  0.5125780000000  0.5307890000000  0.5150340000000 1.0
C      1  0.4204530000000  0.4482980000000  0.4921880000000 1.0
C      1  0.5662840000000  0.5228130000000  0.4277270000000 1.0
C      1  0.5339650000000  0.4476020000000  0.5722340000000 1.0
C      1  0.5185490000000  0.5846480000000  0.4435150000000 1.0
C      1  0.5627430000000  0.4877350000000  0.5809310000000 1.0
C      1  0.5488480000000  0.4170340000000  0.5184800000000 1.0
C      1  0.4431420000000  0.4642110000000  0.5392090000000 1.0
C      1  0.4790530000000  0.5308640000000  0.5353900000000 1.0
C      1  0.5135540000000  0.4489720000000  0.4768900000000 1.0
C      1  0.5461020000000  0.4654610000000  0.4606670000000 1.0
C      1  0.5715930000000  0.5497390000000  0.4467440000000 1.0
C      1  0.4707510000000  0.4463560000000  0.5402250000000 1.0
C      1  0.5460270000000  0.5030280000000  0.4672630000000 1.0
C      1  0.4968070000000  0.5900800000000  0.5522880000000 1.0
C      1  0.4359820000000  0.5697680000000  0.4683050000000 1.0
C      1  0.5045390000000  0.3953790000000  0.4849450000000 1.0
C      1  0.4707770000000  0.3986610000000  0.5248880000000 1.0
C      1  0.5088990000000  0.5447590000000  0.5439260000000 1.0
C      1  0.4596330000000  0.5118330000000  0.4450800000000 1.0
C      1  0.4778150000000  0.4945520000000  0.5648900000000 1.0
C      1  0.4295510000000  0.5456380000000  0.4149810000000 1.0
C      1  0.5789610000000  0.5334750000000  0.5365130000000 1.0
C      1  0.6028210000000  0.4952040000000  0.5011120000000 1.0
C      1  0.5343900000000  0.6065020000000  0.5828180000000 1.0
C      1  0.5473670000000  0.5435000000000  0.5289370000000 1.0
C      1  0.4900440000000  0.4404750000000  0.5926510000000 1.0
C      1  0.5488100000000  0.4562640000000  0.5248550000000 1.0
C      1  0.4864540000000  0.5685840000000  0.5003370000000 1.0
C      1  0.5873760000000  0.5205510000000  0.4856740000000 1.0
C      1  0.5232750000000  0.4327540000000  0.4247530000000 1.0
C      1  0.4891430000000  0.5601320000000  0.4120800000000 1.0
C      1  0.5717500000000  0.5474570000000  0.4976960000000 1.0
C      1  0.5096140000000  0.5514230000000  0.4913720000000 1.0
C      1  0.4748370000000  0.4320060000000  0.4717550000000 1.0
C      1  0.5279070000000  0.5407990000000  0.4428720000000 1.0
C      1  0.4674730000000  0.5254780000000  0.4818170000000 1.0
C      1  0.5208560000000  0.4063330000000  0.5118470000000 1.0
C      1  0.4116630000000  0.4746760000000  0.5317540000000 1.0
C      1  0.5172610000000  0.4374280000000  0.5955040000000 1.0
C      1  0.4877410000000  0.5372270000000  0.4290770000000 1.0
C      1  0.4445090000000  0.5944980000000  0.4501160000000 1.0
C      1  0.5237440000000  0.5109790000000  0.4904710000000 1.0
C      1  0.4446870000000  0.5805900000000  0.5443450000000 1.0
C      1  0.4632670000000  0.5089090000000  0.4149710000000 1.0
C      1  0.5051550000000  0.4704250000000  0.4529400000000 1.0
C      1  0.4601070000000  0.4133720000000  0.4961280000000 1.0
C      1  0.5116770000000  0.5130750000000  0.4299030000000 1.0
C      1  0.4885630000000  0.5929650000000  0.4882720000000 1.0
C      1  0.4910730000000  0.4879830000000  0.5955180000000 1.0
C      1  0.4944280000000  0.5354120000000  0.5856950000000 1.0
C      1  0.4071010000000  0.5050610000000  0.4378730000000 1.0
C      1  0.6048070000000  0.4665890000000  0.4588670000000 1.0
C      1  0.4405740000000  0.4604790000000  0.4717630000000 1.0
C      1  0.4263230000000  0.5605900000000  0.5353510000000 1.0
C      1  0.5237670000000  0.5060260000000  0.3989060000000 1.0
C      1  0.4810120000000  0.4299960000000  0.5665180000000 1.0
C      1  0.5343700000000  0.5530340000000  0.4118030000000 1.0
C      1  0.5294340000000  0.4229850000000  0.4501530000000 1.0
C      1  0.4428280000000  0.5450200000000  0.4886170000000 1.0
C      1  0.5586810000000  0.5052500000000  0.5318380000000 1.0
C      1  0.5100000000000  0.4866080000000  0.5098200000000 1.0
C      1  0.4581580000000  0.4882350000000  0.5212910000000 1.0
C      1  0.5522040000000  0.5210910000000  0.5047060000000 1.0
C      1  0.4697410000000  0.4359440000000  0.4164830000000 1.0
C      1  0.4661420000000  0.3616510000000  0.4809030000000 1.0
C      1  0.5530020000000  0.4322810000000  0.5485870000000 1.0
C      1  0.5139930000000  0.5736320000000  0.4172520000000 1.0
C      1  0.4774410000000  0.3855090000000  0.4872170000000 1.0
C      1  0.5374300000000  0.4289380000000  0.4017480000000 1.0
C      1  0.5066490000000  0.5285230000000  0.4664110000000 1.0
C      1  0.4605300000000  0.5128310000000  0.5877820000000 1.0
C      1  0.4708660000000  0.5674470000000  0.3938830000000 1.0
C      1  0.5638930000000  0.4643240000000  0.4882630000000 1.0
C      1  0.5286330000000  0.5892830000000  0.5617530000000 1.0
C      1  0.4466710000000  0.4544060000000  0.4244460000000 1.0
C      1  0.3981360000000  0.5255680000000  0.4765430000000 1.0
C      1  0.4868500000000  0.4824220000000  0.5343960000000 1.0
C      1  0.5933420000000  0.4448350000000  0.5068130000000 1.0
C      1  0.5380150000000  0.5582290000000  0.5017250000000 1.0
C      1  0.5565040000000  0.5794830000000  0.5435360000000 1.0
C      1  0.5944400000000  0.4704190000000  0.5186650000000 1.0
C      1  0.5002460000000  0.4573700000000  0.5530890000000 1.0
C      1  0.4737630000000  0.4731140000000  0.4285600000000 1.0
C      1  0.4276880000000  0.5027660000000  0.5422720000000 1.0
C      1  0.4001390000000  0.4945500000000  0.4885030000000 1.0
C      1  0.4454560000000  0.4840550000000  0.5647160000000 1.0
C      1  0.5353610000000  0.5563250000000  0.5566990000000 1.0
C      1  0.4400370000000  0.5317970000000  0.5285480000000 1.0
C      1  0.5613270000000  0.4635620000000  0.5620430000000 1.0
C      1  0.5699860000000  0.4770220000000  0.5340370000000 1.0
C      1  0.4762850000000  0.4638550000000  0.5998580000000 1.0
C      1  0.5312740000000  0.4642820000000  0.4979150000000 1.0
C      1  0.5793100000000  0.5671490000000  0.5316680000000 1.0
C      1  0.5490880000000  0.5345840000000  0.5755770000000 1.0
C      1  0.4187500000000  0.4845900000000  0.4618350000000 1.0
C      1  0.5537950000000  0.5827840000000  0.4925710000000 1.0
C      1  0.4388440000000  0.5079000000000  0.5043850000000 1.0
C      1  0.4785240000000  0.5110290000000  0.5077530000000 1.0
C      1  0.5770920000000  0.5299040000000  0.5687600000000 1.0
C      1  0.4991220000000  0.4506060000000  0.4259690000000 1.0
C      1  0.4770730000000  0.4361880000000  0.5127510000000 1.0
C      1  0.4634100000000  0.5506720000000  0.5125860000000 1.0
C      1  0.5342970000000  0.5060440000000  0.5813980000000 1.0
C      1  0.5743230000000  0.5743830000000  0.4683940000000 1.0
C      1  0.4241760000000  0.4640380000000  0.4352820000000 1.0
C      1  0.4969240000000  0.5917220000000  0.4592800000000 1.0
C      1  0.4301700000000  0.4332290000000  0.5338800000000 1.0
C      1  0.4784340000000  0.5455830000000  0.4581010000000 1.0
C      1  0.5270910000000  0.4976000000000  0.5370910000000 1.0
C      1  0.4308030000000  0.4269290000000  0.5067800000000 1.0
C      1  0.4421910000000  0.5054250000000  0.4720730000000 1.0
C      1  0.6013870000000  0.5254240000000  0.5159640000000 1.0
C      1  0.4054450000000  0.4685620000000  0.5049800000000 1.0
C      1  0.4607060000000  0.4573750000000  0.4989600000000 1.0
C      1  0.4021540000000  0.5438370000000  0.5268800000000 1.0
END
