TITL C-2848495-5024-366 -0.000318906153223464 125000 -224.516119153414 0 0 44 (C1) n - 1
REM
REM in /home/bkarasulu/work/CARBON/AIRSS/Generating-Clusters/AIREBO/with-SteepDescent/Only-C1/SD-CG-opt/Try1-1.4A-POS3A/HFTN-CG
REM
REM
REM
REM
REM
REM ./C.cell (11c1c37f851c82e70ff6c80c92926a4b)
REM
REM compiler GCC version 9.2.1 20190827 (Red Hat 9.2.1-1)
REM options -cpp -mtune=generic -march=x86-64 -g -O0 -fpre-include=/usr/include/finclude/math-vector-fortran.h
REM seed 1127735284 -670580774 1240959914 22422130 -654635999 -1853042589 -2129650908 -1783520822 -787261537 -1534582210 1512580879 545327708 657634043 -241088523 -465678318 1880007176 -969100505 1437081814 -1009153556 -1023938272 -1798171524 -1641749319 1802413392 1328007976 753804680 477521143 1457983338 1198377053 -1991158226 -1606659446 954243460 870485666 -838984535
REM
CELL 1.54180   50.00000   50.00000   50.00000   90.00000   90.00000   90.00000
LATT -1
SFAC C  
C      1  0.4341770000000  0.5134840000000  0.5420320000000 1.0
C      1  0.4529980000000  0.4746790000000  0.4749290000000 1.0
C      1  0.5144920000000  0.4828810000000  0.4490820000000 1.0
C      1  0.4520250000000  0.5567100000000  0.4995060000000 1.0
C      1  0.4708940000000  0.4496290000000  0.4679670000000 1.0
C      1  0.5424890000000  0.4873230000000  0.5137050000000 1.0
C      1  0.5162370000000  0.4734230000000  0.4223680000000 1.0
C      1  0.5371190000000  0.4708800000000  0.4661700000000 1.0
C      1  0.5092940000000  0.4895910000000  0.5121100000000 1.0
C      1  0.4867070000000  0.4270790000000  0.4732350000000 1.0
C      1  0.5168360000000  0.5209360000000  0.5175940000000 1.0
C      1  0.5332930000000  0.4430500000000  0.4717640000000 1.0
C      1  0.5193760000000  0.5341420000000  0.4622610000000 1.0
C      1  0.4826870000000  0.5167950000000  0.4784960000000 1.0
C      1  0.5425100000000  0.4974170000000  0.5629310000000 1.0
C      1  0.5110720000000  0.4333670000000  0.4871180000000 1.0
C      1  0.5062900000000  0.5243990000000  0.4208410000000 1.0
C      1  0.4858830000000  0.4746230000000  0.4976950000000 1.0
C      1  0.4883170000000  0.4774210000000  0.4651120000000 1.0
C      1  0.4374050000000  0.4864080000000  0.5355290000000 1.0
C      1  0.4606630000000  0.5295420000000  0.5407390000000 1.0
C      1  0.5606790000000  0.5137380000000  0.4900030000000 1.0
C      1  0.4948390000000  0.4804170000000  0.5599680000000 1.0
C      1  0.5522780000000  0.4859980000000  0.4833110000000 1.0
C      1  0.4465730000000  0.5301680000000  0.5117920000000 1.0
C      1  0.4551790000000  0.5044040000000  0.4913070000000 1.0
C      1  0.5244270000000  0.4649150000000  0.5304640000000 1.0
C      1  0.5115960000000  0.5698700000000  0.5140080000000 1.0
C      1  0.5249900000000  0.4707610000000  0.5610380000000 1.0
C      1  0.5367360000000  0.5309030000000  0.4896050000000 1.0
C      1  0.4312200000000  0.5133070000000  0.4724060000000 1.0
C      1  0.5053130000000  0.4502770000000  0.5088900000000 1.0
C      1  0.4640300000000  0.4854890000000  0.5181480000000 1.0
C      1  0.4699140000000  0.5043640000000  0.4375200000000 1.0
C      1  0.4919730000000  0.5279280000000  0.5397220000000 1.0
C      1  0.5069660000000  0.5559270000000  0.5341940000000 1.0
C      1  0.4980120000000  0.5126290000000  0.4488640000000 1.0
C      1  0.5317650000000  0.4501570000000  0.5784850000000 1.0
C      1  0.4829470000000  0.4964970000000  0.5413980000000 1.0
C      1  0.5201710000000  0.5601340000000  0.4843870000000 1.0
C      1  0.5708970000000  0.5153730000000  0.5161120000000 1.0
C      1  0.4972240000000  0.5375600000000  0.4953400000000 1.0
C      1  0.4766620000000  0.5623390000000  0.4960540000000 1.0
C      1  0.5448460000000  0.5130650000000  0.5357980000000 1.0
END
