TITL C-2847958-8115-459 0.00706045851221928 125000 -627.06959025143 0 0 118 (C1) n - 1
REM
REM in /home/bkarasulu/work/CARBON/AIRSS/Generating-Clusters/AIREBO/with-SteepDescent/Only-C1/SD-CG-opt/Try1-1.4A-POS3A/HFTN-CG
REM
REM
REM
REM
REM
REM ./C.cell (11c1c37f851c82e70ff6c80c92926a4b)
REM
REM compiler GCC version 9.2.1 20190827 (Red Hat 9.2.1-1)
REM options -cpp -mtune=generic -march=x86-64 -g -O0 -fpre-include=/usr/include/finclude/math-vector-fortran.h
REM seed -745303859 -2144957140 866400259 1491162123 -938631647 -657251635 -921040413 1178202441 -1715730248 165339165 -757310775 -710857786 -201509626 159129251 654225899 1387398047 710575370 -1211500362 1810181712 -1465282538 -8031376 -1193279741 -1745773995 134450225 1165689338 -59386884 -1566680707 1529214157 -1349669100 874015660 -2029239290 409837303 -945767380
REM
CELL 1.54180   50.00000   50.00000   50.00000   90.00000   90.00000   90.00000
LATT -1
SFAC C  
C      1  0.5807760000000  0.5316010000000  0.4821550000000 1.0
C      1  0.4034500000000  0.4898350000000  0.5567930000000 1.0
C      1  0.4541800000000  0.4774450000000  0.5312470000000 1.0
C      1  0.5481790000000  0.4802730000000  0.5760090000000 1.0
C      1  0.5368840000000  0.4738780000000  0.4808870000000 1.0
C      1  0.4870010000000  0.4998330000000  0.5284510000000 1.0
C      1  0.4493210000000  0.5282950000000  0.4210260000000 1.0
C      1  0.5994010000000  0.4583400000000  0.5011800000000 1.0
C      1  0.3905690000000  0.5313640000000  0.4855600000000 1.0
C      1  0.4264050000000  0.4961840000000  0.4913500000000 1.0
C      1  0.5806100000000  0.4487860000000  0.5459730000000 1.0
C      1  0.4139050000000  0.5233870000000  0.5281780000000 1.0
C      1  0.5784120000000  0.4695760000000  0.4613970000000 1.0
C      1  0.5058100000000  0.5473600000000  0.5464000000000 1.0
C      1  0.5760120000000  0.5534430000000  0.4569460000000 1.0
C      1  0.5765000000000  0.5348590000000  0.5146480000000 1.0
C      1  0.5288540000000  0.5644480000000  0.4321410000000 1.0
C      1  0.4326910000000  0.5008660000000  0.5433980000000 1.0
C      1  0.4673650000000  0.4283690000000  0.5458000000000 1.0
C      1  0.4860660000000  0.5505860000000  0.4078410000000 1.0
C      1  0.5063750000000  0.5579700000000  0.4947870000000 1.0
C      1  0.5406950000000  0.4563170000000  0.5327020000000 1.0
C      1  0.5602580000000  0.5173610000000  0.4509730000000 1.0
C      1  0.4313620000000  0.4492640000000  0.4609470000000 1.0
C      1  0.5739630000000  0.5007670000000  0.4742900000000 1.0
C      1  0.5689310000000  0.4768280000000  0.4315560000000 1.0
C      1  0.5561930000000  0.5031040000000  0.5016390000000 1.0
C      1  0.4507500000000  0.5290940000000  0.5421960000000 1.0
C      1  0.4169760000000  0.4669520000000  0.4767440000000 1.0
C      1  0.5124690000000  0.5771640000000  0.5501100000000 1.0
C      1  0.4089920000000  0.5463490000000  0.4712570000000 1.0
C      1  0.5510330000000  0.5611650000000  0.5255970000000 1.0
C      1  0.5676010000000  0.4659210000000  0.4925800000000 1.0
C      1  0.5035380000000  0.4957840000000  0.5644290000000 1.0
C      1  0.4651320000000  0.4568470000000  0.5560120000000 1.0
C      1  0.5222220000000  0.5100500000000  0.4017440000000 1.0
C      1  0.5139770000000  0.4269240000000  0.5295570000000 1.0
C      1  0.5620500000000  0.4397910000000  0.4633290000000 1.0
C      1  0.5301280000000  0.4067950000000  0.4874350000000 1.0
C      1  0.5760050000000  0.4372840000000  0.5140510000000 1.0
C      1  0.4395180000000  0.5428570000000  0.4858180000000 1.0
C      1  0.4902050000000  0.5352320000000  0.5718060000000 1.0
C      1  0.4344720000000  0.5350430000000  0.4426860000000 1.0
C      1  0.4815340000000  0.4110010000000  0.5616320000000 1.0
C      1  0.4437140000000  0.4236920000000  0.4710610000000 1.0
C      1  0.4750440000000  0.4292810000000  0.5144660000000 1.0
C      1  0.5028690000000  0.4567500000000  0.4351270000000 1.0
C      1  0.5284540000000  0.5035840000000  0.4833600000000 1.0
C      1  0.5292000000000  0.5275460000000  0.4601370000000 1.0
C      1  0.4727940000000  0.5782330000000  0.4175120000000 1.0
C      1  0.4768590000000  0.4424890000000  0.4367630000000 1.0
C      1  0.5387150000000  0.5829800000000  0.5457040000000 1.0
C      1  0.5170960000000  0.5423200000000  0.4137790000000 1.0
C      1  0.5189030000000  0.4642510000000  0.5831540000000 1.0
C      1  0.5589870000000  0.5553240000000  0.4930440000000 1.0
C      1  0.4992800000000  0.5426230000000  0.4659940000000 1.0
C      1  0.4530040000000  0.5033660000000  0.5092550000000 1.0
C      1  0.5179640000000  0.5243890000000  0.5851020000000 1.0
C      1  0.4841290000000  0.5905850000000  0.5092250000000 1.0
C      1  0.5608750000000  0.4500840000000  0.5662430000000 1.0
C      1  0.4294170000000  0.5628520000000  0.4530610000000 1.0
C      1  0.4739130000000  0.5201290000000  0.4614490000000 1.0
C      1  0.5354600000000  0.4319740000000  0.5558610000000 1.0
C      1  0.4350160000000  0.5706270000000  0.5046920000000 1.0
C      1  0.4534140000000  0.5720790000000  0.4753730000000 1.0
C      1  0.5516020000000  0.4822990000000  0.5445130000000 1.0
C      1  0.5279170000000  0.5754420000000  0.5080740000000 1.0
C      1  0.4887860000000  0.4946740000000  0.4710780000000 1.0
C      1  0.5050250000000  0.4877560000000  0.4467960000000 1.0
C      1  0.5081770000000  0.4125810000000  0.5580060000000 1.0
C      1  0.4990520000000  0.4056510000000  0.4735410000000 1.0
C      1  0.4740020000000  0.4223080000000  0.4626200000000 1.0
C      1  0.4208980000000  0.4689130000000  0.5109340000000 1.0
C      1  0.5906790000000  0.4716610000000  0.5278500000000 1.0
C      1  0.5019070000000  0.5046210000000  0.4982690000000 1.0
C      1  0.5141480000000  0.4533140000000  0.4664690000000 1.0
C      1  0.4527740000000  0.4892450000000  0.5756870000000 1.0
C      1  0.5568850000000  0.5321340000000  0.5423790000000 1.0
C      1  0.5020200000000  0.4104050000000  0.5058970000000 1.0
C      1  0.5352290000000  0.5974370000000  0.4941430000000 1.0
C      1  0.5392660000000  0.4450960000000  0.4466460000000 1.0
C      1  0.5323990000000  0.4508790000000  0.5034190000000 1.0
C      1  0.5200040000000  0.5181370000000  0.5475530000000 1.0
C      1  0.5524730000000  0.4289230000000  0.4911960000000 1.0
C      1  0.4279070000000  0.5501180000000  0.5293990000000 1.0
C      1  0.4802290000000  0.5240420000000  0.4282710000000 1.0
C      1  0.5128830000000  0.5154120000000  0.4340020000000 1.0
C      1  0.5691340000000  0.5049770000000  0.4280330000000 1.0
C      1  0.4730300000000  0.5093540000000  0.5579620000000 1.0
C      1  0.4640440000000  0.5639560000000  0.5163510000000 1.0
C      1  0.4150160000000  0.4652830000000  0.5421130000000 1.0
C      1  0.4810480000000  0.5779500000000  0.5402140000000 1.0
C      1  0.4353570000000  0.4672120000000  0.5648300000000 1.0
C      1  0.4582860000000  0.4581460000000  0.4546040000000 1.0
C      1  0.4475930000000  0.4493630000000  0.5132160000000 1.0
C      1  0.5025820000000  0.5340530000000  0.5152790000000 1.0
C      1  0.5452760000000  0.4631090000000  0.4260170000000 1.0
C      1  0.5144450000000  0.4685600000000  0.5500320000000 1.0
C      1  0.4395040000000  0.4216250000000  0.4982360000000 1.0
C      1  0.5033630000000  0.4567920000000  0.5201360000000 1.0
C      1  0.4730130000000  0.4705130000000  0.4790690000000 1.0
C      1  0.4877500000000  0.4619920000000  0.5788580000000 1.0
C      1  0.5095730000000  0.5799950000000  0.4561330000000 1.0
C      1  0.4807440000000  0.4726840000000  0.5105490000000 1.0
C      1  0.5368990000000  0.5916400000000  0.4679110000000 1.0
C      1  0.4406550000000  0.5158650000000  0.4674480000000 1.0
C      1  0.5079760000000  0.4972050000000  0.5981110000000 1.0
C      1  0.4837230000000  0.5772940000000  0.4783690000000 1.0
C      1  0.4036330000000  0.5144030000000  0.5039090000000 1.0
C      1  0.4688820000000  0.5328260000000  0.5152770000000 1.0
C      1  0.5428720000000  0.5585930000000  0.4625660000000 1.0
C      1  0.5206270000000  0.4799100000000  0.4176150000000 1.0
C      1  0.4886560000000  0.4421940000000  0.4859410000000 1.0
C      1  0.5711320000000  0.4924820000000  0.5265120000000 1.0
C      1  0.4783070000000  0.5646180000000  0.5696560000000 1.0
C      1  0.5352970000000  0.5222970000000  0.5180170000000 1.0
C      1  0.4898020000000  0.5609130000000  0.4400210000000 1.0
C      1  0.5456400000000  0.5133990000000  0.5686540000000 1.0
END
