TITL C-2848501-3133-609 -0.000713200421865203 125000 -618.926601936926 0 0 116 (C1) n - 1
REM
REM in /home/bkarasulu/work/CARBON/AIRSS/Generating-Clusters/AIREBO/with-SteepDescent/Only-C1/SD-CG-opt/Try1-1.4A-POS3A/HFTN-CG
REM
REM
REM
REM
REM
REM ./C.cell (11c1c37f851c82e70ff6c80c92926a4b)
REM
REM compiler GCC version 9.2.1 20190827 (Red Hat 9.2.1-1)
REM options -cpp -mtune=generic -march=x86-64 -g -O0 -fpre-include=/usr/include/finclude/math-vector-fortran.h
REM seed -1557204155 1974475959 310808640 -963677439 2003735794 424269237 1599255199 -1178814905 -1377513464 -375826363 -592107523 1183335874 -1847380243 -1005390189 -344383134 734926081 -2071025231 -587152192 979750443 -1862028839 766506831 1812250490 -34244795 -976387853 -478431363 1324603221 655916016 1391710264 -841614797 596282380 205606672 -484521810 -1814666224
REM
CELL 1.54180   50.00000   50.00000   50.00000   90.00000   90.00000   90.00000
LATT -1
SFAC C  
C      1  0.5141450000000  0.4115140000000  0.5545760000000 1.0
C      1  0.5673130000000  0.4945740000000  0.4304830000000 1.0
C      1  0.5454920000000  0.4684220000000  0.5157500000000 1.0
C      1  0.5433350000000  0.5076110000000  0.4959310000000 1.0
C      1  0.5295460000000  0.4832500000000  0.5789100000000 1.0
C      1  0.4733150000000  0.4148510000000  0.4944440000000 1.0
C      1  0.5031710000000  0.5044980000000  0.4683110000000 1.0
C      1  0.4611060000000  0.5071060000000  0.5365710000000 1.0
C      1  0.5423670000000  0.5533720000000  0.4775630000000 1.0
C      1  0.5775160000000  0.4765280000000  0.5551630000000 1.0
C      1  0.5419990000000  0.4413800000000  0.5360650000000 1.0
C      1  0.5041780000000  0.5714460000000  0.5563710000000 1.0
C      1  0.4664460000000  0.4850510000000  0.4598210000000 1.0
C      1  0.4684510000000  0.4975810000000  0.4135230000000 1.0
C      1  0.5704380000000  0.4511090000000  0.5002610000000 1.0
C      1  0.4374530000000  0.5421830000000  0.4959290000000 1.0
C      1  0.4233240000000  0.4896420000000  0.5039480000000 1.0
C      1  0.4578850000000  0.4603550000000  0.4793080000000 1.0
C      1  0.4175900000000  0.5490700000000  0.4440180000000 1.0
C      1  0.5304990000000  0.5367440000000  0.4510910000000 1.0
C      1  0.5324230000000  0.4192500000000  0.4817690000000 1.0
C      1  0.4820820000000  0.5458530000000  0.5527340000000 1.0
C      1  0.4294340000000  0.5166730000000  0.5438470000000 1.0
C      1  0.5183180000000  0.4439130000000  0.5000330000000 1.0
C      1  0.5013750000000  0.5338070000000  0.5274510000000 1.0
C      1  0.5060040000000  0.4061000000000  0.4977460000000 1.0
C      1  0.4884040000000  0.4687010000000  0.5580580000000 1.0
C      1  0.4608990000000  0.5368520000000  0.5200840000000 1.0
C      1  0.4837290000000  0.3827810000000  0.4990470000000 1.0
C      1  0.4837940000000  0.5583060000000  0.5147730000000 1.0
C      1  0.5025140000000  0.5457330000000  0.4445230000000 1.0
C      1  0.5022720000000  0.4674670000000  0.5059930000000 1.0
C      1  0.4955610000000  0.5788030000000  0.4401350000000 1.0
C      1  0.4546280000000  0.4772130000000  0.5086650000000 1.0
C      1  0.4568630000000  0.4783920000000  0.4312330000000 1.0
C      1  0.4523910000000  0.5610640000000  0.4726090000000 1.0
C      1  0.5633690000000  0.4188200000000  0.5226630000000 1.0
C      1  0.5236360000000  0.5200220000000  0.4069120000000 1.0
C      1  0.4845080000000  0.5171450000000  0.4442460000000 1.0
C      1  0.4805800000000  0.4479240000000  0.4571280000000 1.0
C      1  0.5442350000000  0.4518280000000  0.4795270000000 1.0
C      1  0.5492400000000  0.5630060000000  0.5257150000000 1.0
C      1  0.4100100000000  0.5013160000000  0.4614940000000 1.0
C      1  0.5672230000000  0.5491460000000  0.5003800000000 1.0
C      1  0.4589480000000  0.5150440000000  0.5812720000000 1.0
C      1  0.4615790000000  0.4334120000000  0.5164920000000 1.0
C      1  0.5272100000000  0.5791200000000  0.4869370000000 1.0
C      1  0.5423090000000  0.5325700000000  0.4228360000000 1.0
C      1  0.4846940000000  0.5129140000000  0.5603650000000 1.0
C      1  0.5658630000000  0.5268040000000  0.5228370000000 1.0
C      1  0.4652450000000  0.4231980000000  0.4666980000000 1.0
C      1  0.4648290000000  0.4831770000000  0.5778320000000 1.0
C      1  0.4929290000000  0.4786760000000  0.4801860000000 1.0
C      1  0.4086180000000  0.4953910000000  0.5340040000000 1.0
C      1  0.4806850000000  0.5895370000000  0.5193970000000 1.0
C      1  0.4229650000000  0.5452800000000  0.5266020000000 1.0
C      1  0.4329420000000  0.4588510000000  0.5273580000000 1.0
C      1  0.4792440000000  0.4611550000000  0.5257900000000 1.0
C      1  0.4580300000000  0.5923470000000  0.4768580000000 1.0
C      1  0.4763590000000  0.5570550000000  0.4259820000000 1.0
C      1  0.4684940000000  0.5057160000000  0.4962890000000 1.0
C      1  0.5825710000000  0.5132440000000  0.4876630000000 1.0
C      1  0.5347130000000  0.4517230000000  0.5738810000000 1.0
C      1  0.5325710000000  0.5204160000000  0.5254680000000 1.0
C      1  0.5572840000000  0.4970210000000  0.5658410000000 1.0
C      1  0.6014090000000  0.4921850000000  0.5361500000000 1.0
C      1  0.5015790000000  0.4999770000000  0.4196310000000 1.0
C      1  0.4436540000000  0.5372990000000  0.5769150000000 1.0
C      1  0.4585010000000  0.5158580000000  0.4661340000000 1.0
C      1  0.4508190000000  0.4770690000000  0.5488360000000 1.0
C      1  0.4608070000000  0.6009730000000  0.5036950000000 1.0
C      1  0.5697430000000  0.5356970000000  0.4678240000000 1.0
C      1  0.5078570000000  0.5179270000000  0.5922890000000 1.0
C      1  0.4308260000000  0.4383450000000  0.5028420000000 1.0
C      1  0.5162610000000  0.4617090000000  0.3905880000000 1.0
C      1  0.4908410000000  0.5290140000000  0.4854700000000 1.0
C      1  0.4480640000000  0.5521600000000  0.4429500000000 1.0
C      1  0.5604260000000  0.5222290000000  0.5552700000000 1.0
C      1  0.5587550000000  0.4433690000000  0.4225350000000 1.0
C      1  0.4818900000000  0.5581660000000  0.4836250000000 1.0
C      1  0.4286620000000  0.5267620000000  0.4668860000000 1.0
C      1  0.5167440000000  0.4626910000000  0.5471810000000 1.0
C      1  0.5200960000000  0.4887760000000  0.5256150000000 1.0
C      1  0.5494250000000  0.4769680000000  0.4615520000000 1.0
C      1  0.4485880000000  0.5512270000000  0.5483320000000 1.0
C      1  0.4527570000000  0.4429400000000  0.5484090000000 1.0
C      1  0.5209040000000  0.4237140000000  0.5755540000000 1.0
C      1  0.5845190000000  0.4671130000000  0.5236180000000 1.0
C      1  0.5626160000000  0.4191760000000  0.4930690000000 1.0
C      1  0.4417630000000  0.4355390000000  0.4525980000000 1.0
C      1  0.5675960000000  0.4904120000000  0.5064250000000 1.0
C      1  0.5960820000000  0.5154280000000  0.5188280000000 1.0
C      1  0.4967340000000  0.4861410000000  0.5874090000000 1.0
C      1  0.4082840000000  0.5193560000000  0.5108670000000 1.0
C      1  0.4608170000000  0.5280450000000  0.4224130000000 1.0
C      1  0.5295050000000  0.5810220000000  0.5155680000000 1.0
C      1  0.5010980000000  0.5797690000000  0.4729200000000 1.0
C      1  0.4141690000000  0.4794150000000  0.4776170000000 1.0
C      1  0.5150750000000  0.5025160000000  0.5563170000000 1.0
C      1  0.5206810000000  0.5322920000000  0.4911180000000 1.0
C      1  0.5069670000000  0.5860710000000  0.5326780000000 1.0
C      1  0.5334410000000  0.5056250000000  0.4646310000000 1.0
C      1  0.5463870000000  0.5491280000000  0.5496460000000 1.0
C      1  0.5159480000000  0.4709690000000  0.4203430000000 1.0
C      1  0.5235040000000  0.5331660000000  0.5655470000000 1.0
C      1  0.5774400000000  0.4864090000000  0.4681610000000 1.0
C      1  0.4463390000000  0.4520480000000  0.4296400000000 1.0
C      1  0.5454260000000  0.4696640000000  0.4308560000000 1.0
C      1  0.4796390000000  0.6014240000000  0.4585900000000 1.0
C      1  0.4257050000000  0.4510250000000  0.4747720000000 1.0
C      1  0.5646700000000  0.5204320000000  0.4385830000000 1.0
C      1  0.4982850000000  0.4506090000000  0.4372420000000 1.0
C      1  0.4989550000000  0.5491190000000  0.5820800000000 1.0
C      1  0.4904880000000  0.5045870000000  0.5196250000000 1.0
C      1  0.5639210000000  0.4492850000000  0.5608270000000 1.0
C      1  0.5181940000000  0.4201110000000  0.5243410000000 1.0
END
