TITL C-2848509-3138-670 -0.00350075949466993 125000 -898.822398348051 0 0 170 (C1) n - 1
REM
REM in /home/bkarasulu/work/CARBON/AIRSS/Generating-Clusters/AIREBO/with-SteepDescent/Only-C1/SD-CG-opt/Try1-1.4A-POS3A/HFTN-CG
REM
REM
REM
REM
REM
REM ./C.cell (11c1c37f851c82e70ff6c80c92926a4b)
REM
REM compiler GCC version 9.2.1 20190827 (Red Hat 9.2.1-1)
REM options -cpp -mtune=generic -march=x86-64 -g -O0 -fpre-include=/usr/include/finclude/math-vector-fortran.h
REM seed 1023311770 567454826 1561682133 -1666524673 233534558 1049990629 -2142260020 -749771728 1686359877 1463782860 -1649608922 884448107 -983330337 132368555 -1754397114 169238531 -1702088255 -625561983 -1418669735 -2078243699 483160561 -493051161 -1661591516 734535637 1373733599 1208720165 46880418 -210788022 1890097462 -1191440194 -614315217 633520089 1463542825
REM
CELL 1.54180   50.00000   50.00000   50.00000   90.00000   90.00000   90.00000
LATT -1
SFAC C  
C      1  0.4534240000000  0.4703010000000  0.5739280000000 1.0
C      1  0.5683160000000  0.4633820000000  0.5545060000000 1.0
C      1  0.5192750000000  0.5008050000000  0.4523070000000 1.0
C      1  0.5069490000000  0.4556320000000  0.5992310000000 1.0
C      1  0.5304220000000  0.5836910000000  0.5516520000000 1.0
C      1  0.4639830000000  0.4247410000000  0.4688580000000 1.0
C      1  0.5869950000000  0.4893110000000  0.5165860000000 1.0
C      1  0.5529960000000  0.4555770000000  0.4084070000000 1.0
C      1  0.4566800000000  0.5640880000000  0.5833310000000 1.0
C      1  0.5490900000000  0.4318500000000  0.4630710000000 1.0
C      1  0.4979490000000  0.5254650000000  0.4884930000000 1.0
C      1  0.5793560000000  0.4421510000000  0.4514880000000 1.0
C      1  0.5779170000000  0.5473460000000  0.5315780000000 1.0
C      1  0.5354460000000  0.4385410000000  0.4934900000000 1.0
C      1  0.4164560000000  0.4870300000000  0.4883070000000 1.0
C      1  0.5722340000000  0.5821420000000  0.4780440000000 1.0
C      1  0.4447380000000  0.5530110000000  0.5544270000000 1.0
C      1  0.4263420000000  0.5322970000000  0.4300930000000 1.0
C      1  0.4217950000000  0.5646410000000  0.4688630000000 1.0
C      1  0.4741580000000  0.4973090000000  0.4068170000000 1.0
C      1  0.4518600000000  0.4530760000000  0.4944890000000 1.0
C      1  0.5347590000000  0.5559520000000  0.4431690000000 1.0
C      1  0.4233880000000  0.4760120000000  0.5645530000000 1.0
C      1  0.5553420000000  0.4799430000000  0.4901020000000 1.0
C      1  0.5333360000000  0.5863280000000  0.4489810000000 1.0
C      1  0.5293570000000  0.5332780000000  0.5989510000000 1.0
C      1  0.5201660000000  0.6010420000000  0.5179220000000 1.0
C      1  0.5652340000000  0.5040930000000  0.5883960000000 1.0
C      1  0.4381060000000  0.5378730000000  0.4601580000000 1.0
C      1  0.4948160000000  0.4712740000000  0.4003130000000 1.0
C      1  0.5314460000000  0.4869550000000  0.4110130000000 1.0
C      1  0.4047490000000  0.5045580000000  0.5616940000000 1.0
C      1  0.4440360000000  0.4277340000000  0.5158130000000 1.0
C      1  0.4509470000000  0.5406110000000  0.6047580000000 1.0
C      1  0.5163900000000  0.4519290000000  0.4738560000000 1.0
C      1  0.5954300000000  0.4595170000000  0.5068420000000 1.0
C      1  0.4389020000000  0.5754590000000  0.5308970000000 1.0
C      1  0.4786740000000  0.4949450000000  0.5319610000000 1.0
C      1  0.5925640000000  0.4501560000000  0.5346680000000 1.0
C      1  0.4317440000000  0.4313090000000  0.4781140000000 1.0
C      1  0.5007600000000  0.4254680000000  0.6003350000000 1.0
C      1  0.5124070000000  0.4565810000000  0.5656720000000 1.0
C      1  0.5882810000000  0.4958760000000  0.4667690000000 1.0
C      1  0.4056180000000  0.5423200000000  0.4974040000000 1.0
C      1  0.5252480000000  0.5314800000000  0.4771720000000 1.0
C      1  0.5144730000000  0.4848510000000  0.4769370000000 1.0
C      1  0.4007240000000  0.5132500000000  0.5319630000000 1.0
C      1  0.5173030000000  0.5011450000000  0.3862230000000 1.0
C      1  0.5366850000000  0.4617700000000  0.4512800000000 1.0
C      1  0.5909030000000  0.5366890000000  0.5611430000000 1.0
C      1  0.5490080000000  0.4144440000000  0.5363050000000 1.0
C      1  0.4722320000000  0.5371790000000  0.4596000000000 1.0
C      1  0.4841750000000  0.5395210000000  0.5230750000000 1.0
C      1  0.5453110000000  0.5194470000000  0.4571000000000 1.0
C      1  0.4865330000000  0.4788500000000  0.4483650000000 1.0
C      1  0.5819740000000  0.4636840000000  0.4765630000000 1.0
C      1  0.4547230000000  0.4403790000000  0.4292060000000 1.0
C      1  0.4145650000000  0.4817190000000  0.4448640000000 1.0
C      1  0.4956680000000  0.5168150000000  0.3954120000000 1.0
C      1  0.5599190000000  0.4694560000000  0.5221240000000 1.0
C      1  0.4886720000000  0.5703580000000  0.5720080000000 1.0
C      1  0.4721730000000  0.3970910000000  0.5111750000000 1.0
C      1  0.4830250000000  0.5000560000000  0.5852280000000 1.0
C      1  0.5498790000000  0.4197560000000  0.5636910000000 1.0
C      1  0.5049470000000  0.5930880000000  0.4440870000000 1.0
C      1  0.5512190000000  0.5568100000000  0.5505950000000 1.0
C      1  0.6230590000000  0.5198640000000  0.4946950000000 1.0
C      1  0.4597770000000  0.5816700000000  0.4542070000000 1.0
C      1  0.4547940000000  0.4944430000000  0.4655410000000 1.0
C      1  0.4257590000000  0.5696640000000  0.5001800000000 1.0
C      1  0.5090350000000  0.5540580000000  0.5357310000000 1.0
C      1  0.5446460000000  0.5263770000000  0.5382870000000 1.0
C      1  0.4366580000000  0.4692560000000  0.4675220000000 1.0
C      1  0.4345210000000  0.4416070000000  0.4478370000000 1.0
C      1  0.5226070000000  0.3928440000000  0.4791450000000 1.0
C      1  0.4631340000000  0.5880690000000  0.5600990000000 1.0
C      1  0.5078120000000  0.4038110000000  0.5010540000000 1.0
C      1  0.5567420000000  0.4877170000000  0.4570290000000 1.0
C      1  0.4578740000000  0.5082550000000  0.4345960000000 1.0
C      1  0.5365970000000  0.4657560000000  0.5958770000000 1.0
C      1  0.5654760000000  0.5427430000000  0.4508070000000 1.0
C      1  0.5935390000000  0.5112220000000  0.4932820000000 1.0
C      1  0.4342190000000  0.4567330000000  0.5417540000000 1.0
C      1  0.4660950000000  0.4019600000000  0.5370780000000 1.0
C      1  0.5672620000000  0.5092640000000  0.5444660000000 1.0
C      1  0.4824140000000  0.4528780000000  0.5094190000000 1.0
C      1  0.5707220000000  0.4907660000000  0.5645120000000 1.0
C      1  0.5079740000000  0.5430400000000  0.4093740000000 1.0
C      1  0.4689110000000  0.5109310000000  0.5558840000000 1.0
C      1  0.5733030000000  0.5316820000000  0.5832780000000 1.0
C      1  0.4396300000000  0.5049800000000  0.5423460000000 1.0
C      1  0.5309250000000  0.4304660000000  0.4117210000000 1.0
C      1  0.5322830000000  0.5593850000000  0.5154650000000 1.0
C      1  0.4935100000000  0.4387540000000  0.4592600000000 1.0
C      1  0.5395820000000  0.4941130000000  0.5960600000000 1.0
C      1  0.3813020000000  0.5312840000000  0.5145980000000 1.0
C      1  0.4765050000000  0.5428840000000  0.5560390000000 1.0
C      1  0.5483630000000  0.5480790000000  0.4151990000000 1.0
C      1  0.5628560000000  0.4842820000000  0.4237510000000 1.0
C      1  0.5496940000000  0.5519500000000  0.5842140000000 1.0
C      1  0.5504090000000  0.5868880000000  0.5243320000000 1.0
C      1  0.5206250000000  0.5326470000000  0.5594930000000 1.0
C      1  0.4950870000000  0.4141060000000  0.5787710000000 1.0
C      1  0.4987850000000  0.5864410000000  0.5370990000000 1.0
C      1  0.4275390000000  0.5058370000000  0.5134670000000 1.0
C      1  0.5007170000000  0.5102540000000  0.5164870000000 1.0
C      1  0.3972220000000  0.5042220000000  0.4581260000000 1.0
C      1  0.4110490000000  0.4493530000000  0.5221960000000 1.0
C      1  0.4268880000000  0.5031160000000  0.4215570000000 1.0
C      1  0.4742360000000  0.4214320000000  0.4289620000000 1.0
C      1  0.5747280000000  0.5357810000000  0.4995790000000 1.0
C      1  0.5618850000000  0.4277750000000  0.4256180000000 1.0
C      1  0.4661270000000  0.4659390000000  0.5362670000000 1.0
C      1  0.4692080000000  0.6059980000000  0.4992990000000 1.0
C      1  0.5098560000000  0.3963210000000  0.4528200000000 1.0
C      1  0.4833880000000  0.4728580000000  0.5647890000000 1.0
C      1  0.5421600000000  0.5283350000000  0.5057520000000 1.0
C      1  0.4861020000000  0.5338510000000  0.5873860000000 1.0
C      1  0.4428410000000  0.6012960000000  0.4828480000000 1.0
C      1  0.4835580000000  0.5957910000000  0.4707590000000 1.0
C      1  0.4174740000000  0.5419260000000  0.5274250000000 1.0
C      1  0.5260640000000  0.4710190000000  0.5265250000000 1.0
C      1  0.5634390000000  0.4048090000000  0.5037390000000 1.0
C      1  0.5026280000000  0.5727850000000  0.4781440000000 1.0
C      1  0.5460550000000  0.5914890000000  0.4736280000000 1.0
C      1  0.5500510000000  0.4020960000000  0.4795080000000 1.0
C      1  0.4521080000000  0.4304300000000  0.5472120000000 1.0
C      1  0.4676580000000  0.5934510000000  0.5273910000000 1.0
C      1  0.4347950000000  0.5055960000000  0.5759980000000 1.0
C      1  0.4844320000000  0.4248440000000  0.5521490000000 1.0
C      1  0.4828350000000  0.4224950000000  0.4941640000000 1.0
C      1  0.5157480000000  0.5081250000000  0.5805550000000 1.0
C      1  0.5884880000000  0.4627610000000  0.4297460000000 1.0
C      1  0.5190200000000  0.5622430000000  0.5734430000000 1.0
C      1  0.5295630000000  0.4967490000000  0.5045760000000 1.0
C      1  0.4816860000000  0.4018340000000  0.4509400000000 1.0
C      1  0.4151650000000  0.5195150000000  0.4779940000000 1.0
C      1  0.4098590000000  0.5685250000000  0.5471880000000 1.0
C      1  0.5327280000000  0.5562420000000  0.3913580000000 1.0
C      1  0.5953950000000  0.5181930000000  0.5324570000000 1.0
C      1  0.5580910000000  0.5175210000000  0.4183490000000 1.0
C      1  0.5043010000000  0.5480910000000  0.4561560000000 1.0
C      1  0.4514290000000  0.5127420000000  0.4923360000000 1.0
C      1  0.4681930000000  0.5408650000000  0.4930860000000 1.0
C      1  0.5456370000000  0.4497160000000  0.5693010000000 1.0
C      1  0.4960830000000  0.5652630000000  0.4279800000000 1.0
C      1  0.4639200000000  0.4700760000000  0.4244260000000 1.0
C      1  0.4881280000000  0.4777630000000  0.6097160000000 1.0
C      1  0.4661850000000  0.5652650000000  0.4316240000000 1.0
C      1  0.5044970000000  0.4458910000000  0.5343570000000 1.0
C      1  0.5763470000000  0.5554270000000  0.4761240000000 1.0
C      1  0.4900390000000  0.5124990000000  0.4447770000000 1.0
C      1  0.5611410000000  0.4369280000000  0.5138280000000 1.0
C      1  0.4154330000000  0.5368740000000  0.5605450000000 1.0
C      1  0.5114070000000  0.4661470000000  0.4289450000000 1.0
C      1  0.5238590000000  0.4235760000000  0.5193250000000 1.0
C      1  0.5040040000000  0.5428970000000  0.6050610000000 1.0
C      1  0.4318830000000  0.4709910000000  0.4185060000000 1.0
C      1  0.5818910000000  0.5148980000000  0.4419410000000 1.0
C      1  0.5026730000000  0.4340670000000  0.4268450000000 1.0
C      1  0.4567710000000  0.5704590000000  0.4862600000000 1.0
C      1  0.4843180000000  0.4733140000000  0.4822770000000 1.0
C      1  0.5337550000000  0.4126870000000  0.4399010000000 1.0
C      1  0.4535530000000  0.5130390000000  0.5962000000000 1.0
C      1  0.4691780000000  0.4899870000000  0.5025760000000 1.0
C      1  0.4547200000000  0.5417790000000  0.4241160000000 1.0
C      1  0.5242070000000  0.5176620000000  0.4233570000000 1.0
C      1  0.5261860000000  0.5816810000000  0.4931680000000 1.0
C      1  0.4325830000000  0.4044820000000  0.5096500000000 1.0
C      1  0.4122180000000  0.4538180000000  0.4947910000000 1.0
END
