TITL C-2848506-1665-236 -0.00747859677169695 125000 -400.748914111388 0 0 74 (C1) n - 1
REM
REM in /home/bkarasulu/work/CARBON/AIRSS/Generating-Clusters/AIREBO/with-SteepDescent/Only-C1/SD-CG-opt/Try1-1.4A-POS3A/HFTN-CG
REM
REM
REM
REM
REM
REM ./C.cell (11c1c37f851c82e70ff6c80c92926a4b)
REM
REM compiler GCC version 9.2.1 20190827 (Red Hat 9.2.1-1)
REM options -cpp -mtune=generic -march=x86-64 -g -O0 -fpre-include=/usr/include/finclude/math-vector-fortran.h
REM seed 1259704171 -166687386 -1411392715 -1527312674 1791494315 -430406712 -1465674898 -790416728 1480562089 -224064923 -1087040316 -186955233 785294002 -157553714 1923370547 1884956219 -856192043 301534484 1796523869 3462507 -1055287059 232767573 983433928 1350562392 1117335018 -1240728657 -1152225443 606494724 -2052308056 701742605 346319796 -585899932 -1798974329
REM
CELL 1.54180   50.00000   50.00000   50.00000   90.00000   90.00000   90.00000
LATT -1
SFAC C  
C      1  0.5211100000000  0.4797270000000  0.4990300000000 1.0
C      1  0.4507950000000  0.5141330000000  0.5051950000000 1.0
C      1  0.4442640000000  0.5674340000000  0.5060220000000 1.0
C      1  0.5130210000000  0.5407960000000  0.5089820000000 1.0
C      1  0.4575720000000  0.4342030000000  0.5289480000000 1.0
C      1  0.5392240000000  0.4748820000000  0.5478390000000 1.0
C      1  0.5592770000000  0.5239580000000  0.5153260000000 1.0
C      1  0.5057190000000  0.5688810000000  0.4685870000000 1.0
C      1  0.4801880000000  0.5770390000000  0.5593040000000 1.0
C      1  0.5209070000000  0.4921120000000  0.5296580000000 1.0
C      1  0.4925560000000  0.5326060000000  0.4587710000000 1.0
C      1  0.5371380000000  0.5246930000000  0.4681920000000 1.0
C      1  0.4917840000000  0.5031370000000  0.4672790000000 1.0
C      1  0.5404750000000  0.4526370000000  0.4600340000000 1.0
C      1  0.5174350000000  0.4384380000000  0.4737790000000 1.0
C      1  0.5193650000000  0.5377450000000  0.4422920000000 1.0
C      1  0.4336190000000  0.4973410000000  0.4436890000000 1.0
C      1  0.5345910000000  0.5586090000000  0.4684800000000 1.0
C      1  0.4941210000000  0.4202030000000  0.5209870000000 1.0
C      1  0.4540300000000  0.4066260000000  0.5263910000000 1.0
C      1  0.4974220000000  0.4593030000000  0.4856390000000 1.0
C      1  0.5098670000000  0.5684460000000  0.5498190000000 1.0
C      1  0.5407220000000  0.4703230000000  0.4404400000000 1.0
C      1  0.5200390000000  0.4128330000000  0.5160840000000 1.0
C      1  0.4744150000000  0.4702880000000  0.5314000000000 1.0
C      1  0.5508340000000  0.5754640000000  0.4863660000000 1.0
C      1  0.5448440000000  0.5104110000000  0.5779770000000 1.0
C      1  0.4663050000000  0.5396590000000  0.4426120000000 1.0
C      1  0.5204990000000  0.5672890000000  0.5230060000000 1.0
C      1  0.4893350000000  0.5479500000000  0.4868710000000 1.0
C      1  0.5203340000000  0.4916170000000  0.4238330000000 1.0
C      1  0.5146550000000  0.5120970000000  0.4907870000000 1.0
C      1  0.5621040000000  0.4635010000000  0.5367000000000 1.0
C      1  0.4480230000000  0.4973320000000  0.5630400000000 1.0
C      1  0.5328400000000  0.5214120000000  0.5288490000000 1.0
C      1  0.4926830000000  0.4934910000000  0.5409640000000 1.0
C      1  0.4765020000000  0.5168410000000  0.4257950000000 1.0
C      1  0.4324160000000  0.4511250000000  0.5289880000000 1.0
C      1  0.4740830000000  0.5217900000000  0.5376040000000 1.0
C      1  0.5944730000000  0.4652740000000  0.4995790000000 1.0
C      1  0.5660640000000  0.5226290000000  0.4826120000000 1.0
C      1  0.4763450000000  0.4450750000000  0.5530550000000 1.0
C      1  0.4510680000000  0.4803520000000  0.5091090000000 1.0
C      1  0.4218380000000  0.5113000000000  0.4880330000000 1.0
C      1  0.4814550000000  0.4479080000000  0.5089300000000 1.0
C      1  0.4272010000000  0.5186400000000  0.4608950000000 1.0
C      1  0.4784610000000  0.5487880000000  0.5502900000000 1.0
C      1  0.5455540000000  0.4586060000000  0.4932360000000 1.0
C      1  0.5336840000000  0.4267330000000  0.4965080000000 1.0
C      1  0.4203870000000  0.4512540000000  0.5041810000000 1.0
C      1  0.5693170000000  0.4625580000000  0.5099040000000 1.0
C      1  0.4848100000000  0.5126900000000  0.5070750000000 1.0
C      1  0.4538290000000  0.4741300000000  0.4571640000000 1.0
C      1  0.5777290000000  0.5467350000000  0.5037960000000 1.0
C      1  0.4573870000000  0.5443410000000  0.4910150000000 1.0
C      1  0.5044020000000  0.5171450000000  0.4238680000000 1.0
C      1  0.5448280000000  0.5014960000000  0.4449570000000 1.0
C      1  0.5395860000000  0.5820590000000  0.5106690000000 1.0
C      1  0.4234230000000  0.4356170000000  0.4775400000000 1.0
C      1  0.4747990000000  0.4963680000000  0.5684650000000 1.0
C      1  0.4814820000000  0.4404910000000  0.5776320000000 1.0
C      1  0.4413450000000  0.5158710000000  0.5377030000000 1.0
C      1  0.5281800000000  0.5543400000000  0.5676860000000 1.0
C      1  0.4970140000000  0.5916070000000  0.4592050000000 1.0
C      1  0.4410880000000  0.4646930000000  0.4815420000000 1.0
C      1  0.4363620000000  0.4792060000000  0.5397520000000 1.0
C      1  0.5851720000000  0.5079960000000  0.4688420000000 1.0
C      1  0.5012280000000  0.4675560000000  0.4348030000000 1.0
C      1  0.4457180000000  0.5400720000000  0.4613710000000 1.0
C      1  0.6181370000000  0.4704220000000  0.4895600000000 1.0
C      1  0.5353830000000  0.5294340000000  0.5598460000000 1.0
C      1  0.5400690000000  0.4836430000000  0.5743770000000 1.0
C      1  0.4853290000000  0.4749160000000  0.4609140000000 1.0
C      1  0.4617440000000  0.4936810000000  0.4303260000000 1.0
END
