TITL C-2847957-7266-13 0.000475974260542091 125000 -188.755788817122 0 0 34 (C1) n - 1
REM
REM in /home/bkarasulu/work/CARBON/AIRSS/Generating-Clusters/AIREBO/with-SteepDescent/Only-C1/SD-CG-opt/Try1-1.4A-POS3A/HFTN-CG
REM
REM
REM
REM
REM
REM ./C.cell (11c1c37f851c82e70ff6c80c92926a4b)
REM
REM compiler GCC version 9.2.1 20190827 (Red Hat 9.2.1-1)
REM options -cpp -mtune=generic -march=x86-64 -g -O0 -fpre-include=/usr/include/finclude/math-vector-fortran.h
REM seed -1230729833 -1332031630 -943221266 -1973865505 -598856725 1640245905 1181524475 1202468679 680219449 -319400135 646049292 -137997795 -1446373934 -1141856212 1300965156 -620412010 277541326 1428230700 588611885 1139289015 -820406836 115937440 -990957263 -701984228 2033032734 176284648 28293897 -933388465 1849268162 2058939667 -310777308 -1183986012 1516868834
REM
CELL 1.54180   50.00000   50.00000   50.00000   90.00000   90.00000   90.00000
LATT -1
SFAC C  
C      1  0.5259660000000  0.5233790000000  0.5101210000000 1.0
C      1  0.5634150000000  0.5048750000000  0.4845940000000 1.0
C      1  0.5208030000000  0.5121370000000  0.4617270000000 1.0
C      1  0.5305220000000  0.4690420000000  0.5269970000000 1.0
C      1  0.5351730000000  0.5039620000000  0.4880220000000 1.0
C      1  0.4838810000000  0.5847940000000  0.4712000000000 1.0
C      1  0.4774100000000  0.5092640000000  0.4764170000000 1.0
C      1  0.5119400000000  0.5233120000000  0.5700030000000 1.0
C      1  0.4417390000000  0.5046610000000  0.4939160000000 1.0
C      1  0.5123160000000  0.4545900000000  0.4755150000000 1.0
C      1  0.4968810000000  0.5265870000000  0.4657950000000 1.0
C      1  0.5352430000000  0.5378720000000  0.5710700000000 1.0
C      1  0.5166050000000  0.4904810000000  0.4439960000000 1.0
C      1  0.4986030000000  0.4578200000000  0.5056100000000 1.0
C      1  0.4828150000000  0.5494400000000  0.5194870000000 1.0
C      1  0.5261420000000  0.4761360000000  0.4972330000000 1.0
C      1  0.4925470000000  0.5536300000000  0.4688050000000 1.0
C      1  0.4606450000000  0.4306810000000  0.4344450000000 1.0
C      1  0.5240140000000  0.4307860000000  0.4676540000000 1.0
C      1  0.5344440000000  0.4621670000000  0.5577280000000 1.0
C      1  0.5507860000000  0.5433730000000  0.5489850000000 1.0
C      1  0.4870020000000  0.4632740000000  0.5300920000000 1.0
C      1  0.5018650000000  0.5081020000000  0.5501680000000 1.0
C      1  0.5061630000000  0.4788830000000  0.5485790000000 1.0
C      1  0.4980510000000  0.5212660000000  0.5231340000000 1.0
C      1  0.4499270000000  0.4919970000000  0.5215530000000 1.0
C      1  0.4724780000000  0.5120950000000  0.5073500000000 1.0
C      1  0.4648170000000  0.4538100000000  0.4444030000000 1.0
C      1  0.4411360000000  0.4948340000000  0.4687390000000 1.0
C      1  0.4996630000000  0.4715670000000  0.4541340000000 1.0
C      1  0.4596410000000  0.4686060000000  0.5327220000000 1.0
C      1  0.4847620000000  0.5657150000000  0.4974020000000 1.0
C      1  0.5432050000000  0.5397500000000  0.5229050000000 1.0
C      1  0.4694010000000  0.4811120000000  0.4594990000000 1.0
END
