TITL C-2848497-6229-31 -0.000410948991602256 125000 -782.505606124652 0 0 145 (C1) n - 1
REM
REM in /home/bkarasulu/work/CARBON/AIRSS/Generating-Clusters/AIREBO/with-SteepDescent/Only-C1/SD-CG-opt/Try1-1.4A-POS3A/HFTN-CG
REM
REM
REM
REM
REM
REM ./C.cell (11c1c37f851c82e70ff6c80c92926a4b)
REM
REM compiler GCC version 9.2.1 20190827 (Red Hat 9.2.1-1)
REM options -cpp -mtune=generic -march=x86-64 -g -O0 -fpre-include=/usr/include/finclude/math-vector-fortran.h
REM seed -2708238 -1892516482 -1098195484 1737725368 -1193926863 -1572543989 190543235 748712372 1458548643 -197183567 1637533117 1019852315 777068249 1264241885 -1376029641 428657943 323004629 -1824202255 -528646025 -2129181891 1569588146 1031968287 1071019616 -1059542130 326854829 -1537190566 61030778 -749668307 -64789878 770605827 1969623496 -496767408 -1482160275
REM
CELL 1.54180   50.00000   50.00000   50.00000   90.00000   90.00000   90.00000
LATT -1
SFAC C  
C      1  0.4454660000000  0.4795760000000  0.5309050000000 1.0
C      1  0.5712240000000  0.4437090000000  0.4644180000000 1.0
C      1  0.5010560000000  0.5016300000000  0.5266900000000 1.0
C      1  0.4717470000000  0.5965810000000  0.5242290000000 1.0
C      1  0.4683800000000  0.4478050000000  0.5237760000000 1.0
C      1  0.4763700000000  0.4156590000000  0.4471600000000 1.0
C      1  0.5075090000000  0.5749070000000  0.5551200000000 1.0
C      1  0.4410870000000  0.4284990000000  0.5174960000000 1.0
C      1  0.5360350000000  0.5722530000000  0.5463480000000 1.0
C      1  0.4315320000000  0.4356250000000  0.4666600000000 1.0
C      1  0.5435370000000  0.5307170000000  0.5959940000000 1.0
C      1  0.4200620000000  0.5824830000000  0.4818860000000 1.0
C      1  0.3971530000000  0.4969580000000  0.5136850000000 1.0
C      1  0.5195760000000  0.5404670000000  0.5147660000000 1.0
C      1  0.5275310000000  0.5527510000000  0.5908390000000 1.0
C      1  0.5121720000000  0.4536150000000  0.4542500000000 1.0
C      1  0.5685540000000  0.5622610000000  0.5057830000000 1.0
C      1  0.5593620000000  0.5643530000000  0.5581010000000 1.0
C      1  0.5118240000000  0.5852920000000  0.4552310000000 1.0
C      1  0.4952020000000  0.5288680000000  0.4981120000000 1.0
C      1  0.5696410000000  0.5302820000000  0.4391760000000 1.0
C      1  0.5159070000000  0.5677160000000  0.4258890000000 1.0
C      1  0.5504790000000  0.5823040000000  0.5076390000000 1.0
C      1  0.5767500000000  0.5425810000000  0.5629430000000 1.0
C      1  0.4367850000000  0.5028010000000  0.4854180000000 1.0
C      1  0.4449990000000  0.5367350000000  0.5229190000000 1.0
C      1  0.5521820000000  0.4529820000000  0.4982440000000 1.0
C      1  0.4638310000000  0.4348060000000  0.4714240000000 1.0
C      1  0.4583380000000  0.5680160000000  0.5228060000000 1.0
C      1  0.5189310000000  0.4539970000000  0.5514700000000 1.0
C      1  0.4437460000000  0.4697230000000  0.4237340000000 1.0
C      1  0.4043340000000  0.5340130000000  0.4809490000000 1.0
C      1  0.4561580000000  0.4565790000000  0.4936550000000 1.0
C      1  0.4554220000000  0.5464020000000  0.4895680000000 1.0
C      1  0.5267660000000  0.4288510000000  0.5729780000000 1.0
C      1  0.4674370000000  0.5407300000000  0.4074710000000 1.0
C      1  0.4716030000000  0.4352720000000  0.5546490000000 1.0
C      1  0.5281380000000  0.4870880000000  0.5120470000000 1.0
C      1  0.5959700000000  0.5368180000000  0.5432740000000 1.0
C      1  0.4519180000000  0.5308380000000  0.5766930000000 1.0
C      1  0.5244650000000  0.4828020000000  0.4567750000000 1.0
C      1  0.5509110000000  0.4306460000000  0.5491030000000 1.0
C      1  0.5136180000000  0.4290050000000  0.4126680000000 1.0
C      1  0.5415880000000  0.5971940000000  0.4580430000000 1.0
C      1  0.4709800000000  0.5881170000000  0.4737190000000 1.0
C      1  0.4950040000000  0.5189850000000  0.5915500000000 1.0
C      1  0.4730770000000  0.4978250000000  0.4288820000000 1.0
C      1  0.4333860000000  0.4506800000000  0.5423600000000 1.0
C      1  0.5360830000000  0.4184720000000  0.4334300000000 1.0
C      1  0.5199750000000  0.5151000000000  0.4527570000000 1.0
C      1  0.4225800000000  0.4965480000000  0.4294010000000 1.0
C      1  0.4874210000000  0.4972240000000  0.3915710000000 1.0
C      1  0.5519650000000  0.5706720000000  0.4567520000000 1.0
C      1  0.4928980000000  0.5454860000000  0.4498100000000 1.0
C      1  0.4943990000000  0.4532610000000  0.4184230000000 1.0
C      1  0.5422900000000  0.4792640000000  0.5729210000000 1.0
C      1  0.5469730000000  0.4303720000000  0.4582020000000 1.0
C      1  0.4064770000000  0.4607550000000  0.4997480000000 1.0
C      1  0.5421710000000  0.4805740000000  0.4817500000000 1.0
C      1  0.5990000000000  0.4895040000000  0.5008940000000 1.0
C      1  0.5808480000000  0.4721820000000  0.5655240000000 1.0
C      1  0.4738700000000  0.4985000000000  0.5944080000000 1.0
C      1  0.4677040000000  0.5526820000000  0.5721330000000 1.0
C      1  0.5632160000000  0.5333750000000  0.4894340000000 1.0
C      1  0.4971390000000  0.5406330000000  0.4164190000000 1.0
C      1  0.4499450000000  0.4526730000000  0.5720040000000 1.0
C      1  0.4437600000000  0.5470090000000  0.4311140000000 1.0
C      1  0.4525130000000  0.5662890000000  0.4550270000000 1.0
C      1  0.4920000000000  0.4846490000000  0.5616220000000 1.0
C      1  0.5351940000000  0.4908400000000  0.3950560000000 1.0
C      1  0.4732590000000  0.5187190000000  0.5171080000000 1.0
C      1  0.4864820000000  0.5524250000000  0.4818040000000 1.0
C      1  0.5017900000000  0.5089020000000  0.4765920000000 1.0
C      1  0.4600470000000  0.4938430000000  0.5651100000000 1.0
C      1  0.5018850000000  0.5799470000000  0.4874240000000 1.0
C      1  0.4428750000000  0.5150640000000  0.5490480000000 1.0
C      1  0.4979250000000  0.4231080000000  0.5724110000000 1.0
C      1  0.5003440000000  0.5460040000000  0.5715550000000 1.0
C      1  0.4828890000000  0.4594580000000  0.4577950000000 1.0
C      1  0.4966250000000  0.5935760000000  0.5340870000000 1.0
C      1  0.5450500000000  0.4722170000000  0.4087080000000 1.0
C      1  0.4473970000000  0.5783120000000  0.4928020000000 1.0
C      1  0.5602240000000  0.4499740000000  0.5705700000000 1.0
C      1  0.5124570000000  0.5275510000000  0.5456200000000 1.0
C      1  0.4927320000000  0.4077270000000  0.4759040000000 1.0
C      1  0.5039440000000  0.4840390000000  0.4296700000000 1.0
C      1  0.5677680000000  0.5244650000000  0.5830180000000 1.0
C      1  0.4792220000000  0.4767590000000  0.5345350000000 1.0
C      1  0.4207190000000  0.5205290000000  0.5069750000000 1.0
C      1  0.5181750000000  0.4123300000000  0.4981140000000 1.0
C      1  0.5956190000000  0.5544210000000  0.4777280000000 1.0
C      1  0.4752800000000  0.4646340000000  0.5915710000000 1.0
C      1  0.5332240000000  0.4521330000000  0.4275880000000 1.0
C      1  0.4902920000000  0.4104940000000  0.5154560000000 1.0
C      1  0.5920480000000  0.5122490000000  0.5206870000000 1.0
C      1  0.5174720000000  0.5008840000000  0.5633950000000 1.0
C      1  0.5187300000000  0.5744130000000  0.5167600000000 1.0
C      1  0.5765340000000  0.5565170000000  0.4581540000000 1.0
C      1  0.4656400000000  0.4452650000000  0.4329840000000 1.0
C      1  0.4413850000000  0.4804370000000  0.5896910000000 1.0
C      1  0.4059280000000  0.4890520000000  0.4581060000000 1.0
C      1  0.5770550000000  0.4426920000000  0.5051150000000 1.0
C      1  0.5050260000000  0.4613240000000  0.5813440000000 1.0
C      1  0.5400950000000  0.5188840000000  0.4282350000000 1.0
C      1  0.5409060000000  0.4103790000000  0.5236820000000 1.0
C      1  0.4470360000000  0.5255410000000  0.4672010000000 1.0
C      1  0.5255960000000  0.4744860000000  0.6021530000000 1.0
C      1  0.4727720000000  0.4744140000000  0.4065430000000 1.0
C      1  0.4726640000000  0.5196250000000  0.4517320000000 1.0
C      1  0.5704420000000  0.4972520000000  0.5792540000000 1.0
C      1  0.5338000000000  0.5449820000000  0.4842140000000 1.0
C      1  0.5079200000000  0.4639060000000  0.4991900000000 1.0
C      1  0.5877650000000  0.4927040000000  0.4750350000000 1.0
C      1  0.5249280000000  0.5070880000000  0.5957780000000 1.0
C      1  0.4071680000000  0.4683240000000  0.5298080000000 1.0
C      1  0.4267530000000  0.4636050000000  0.4513440000000 1.0
C      1  0.5123400000000  0.5107430000000  0.4103530000000 1.0
C      1  0.5627440000000  0.4987960000000  0.5281690000000 1.0
C      1  0.4318150000000  0.4719690000000  0.4833040000000 1.0
C      1  0.4184220000000  0.4978700000000  0.5401970000000 1.0
C      1  0.4538590000000  0.5696430000000  0.5552780000000 1.0
C      1  0.4658760000000  0.4150860000000  0.4987970000000 1.0
C      1  0.5135160000000  0.4249370000000  0.5356580000000 1.0
C      1  0.5951120000000  0.4629340000000  0.5149880000000 1.0
C      1  0.5702770000000  0.4717710000000  0.4680740000000 1.0
C      1  0.5251020000000  0.4397730000000  0.4824880000000 1.0
C      1  0.5442520000000  0.5169930000000  0.5105750000000 1.0
C      1  0.4816220000000  0.5770490000000  0.4440370000000 1.0
C      1  0.4204300000000  0.4350350000000  0.4935270000000 1.0
C      1  0.4489450000000  0.5153540000000  0.4198210000000 1.0
C      1  0.5412870000000  0.4747280000000  0.5392380000000 1.0
C      1  0.5729390000000  0.4175930000000  0.5184570000000 1.0
C      1  0.5267520000000  0.5484020000000  0.4516960000000 1.0
C      1  0.4580170000000  0.4944130000000  0.5060610000000 1.0
C      1  0.5955000000000  0.5440440000000  0.5101120000000 1.0
C      1  0.4815480000000  0.4748740000000  0.4946520000000 1.0
C      1  0.5773710000000  0.5179240000000  0.4679550000000 1.0
C      1  0.5845450000000  0.4771200000000  0.5382730000000 1.0
C      1  0.4213580000000  0.5262000000000  0.4460280000000 1.0
C      1  0.4269220000000  0.5572690000000  0.5442050000000 1.0
C      1  0.4869730000000  0.4058320000000  0.5469820000000 1.0
C      1  0.3971440000000  0.5032470000000  0.4801750000000 1.0
C      1  0.4786630000000  0.4899020000000  0.4671460000000 1.0
C      1  0.4212100000000  0.5556660000000  0.4629960000000 1.0
C      1  0.5454090000000  0.5503180000000  0.4232650000000 1.0
END
