TITL C-2848499-1157-101 0.00177061278572264 125000 -491.162852949805 0 0 88 (C1) n - 1
REM
REM in /home/bkarasulu/work/CARBON/AIRSS/Generating-Clusters/AIREBO/with-SteepDescent/Only-C1/SD-CG-opt/Try1-1.4A-POS3A/HFTN-CG
REM
REM
REM
REM
REM
REM ./C.cell (11c1c37f851c82e70ff6c80c92926a4b)
REM
REM compiler GCC version 9.2.1 20190827 (Red Hat 9.2.1-1)
REM options -cpp -mtune=generic -march=x86-64 -g -O0 -fpre-include=/usr/include/finclude/math-vector-fortran.h
REM seed 1280935654 -937513476 -1919524631 101908477 864852061 1725762519 1443076078 -107548928 -1386536168 -1265328021 -261322200 254065735 422879926 1095546915 -1360800335 -697061467 1426586563 -1507488748 -1874349168 1323644467 -361557090 -1145942118 1099354399 1452391982 364767332 -1498758248 -1702328499 318402462 156759653 -846145551 811728705 923643892 -2079756534
REM
CELL 1.54180   50.00000   50.00000   50.00000   90.00000   90.00000   90.00000
LATT -1
SFAC C  
C      1  0.5097860000000  0.4510280000000  0.5625020000000 1.0
C      1  0.5621140000000  0.5752920000000  0.5282830000000 1.0
C      1  0.4757330000000  0.4201810000000  0.4547460000000 1.0
C      1  0.4735190000000  0.4750550000000  0.5389720000000 1.0
C      1  0.5067650000000  0.4806340000000  0.5359630000000 1.0
C      1  0.5135830000000  0.4375240000000  0.5081220000000 1.0
C      1  0.5480530000000  0.4738270000000  0.5216020000000 1.0
C      1  0.5610820000000  0.5490060000000  0.4597230000000 1.0
C      1  0.4493150000000  0.5170220000000  0.4169710000000 1.0
C      1  0.5246380000000  0.4545180000000  0.5328210000000 1.0
C      1  0.5795130000000  0.4808470000000  0.5620610000000 1.0
C      1  0.4747260000000  0.5776950000000  0.4943950000000 1.0
C      1  0.5081320000000  0.5608960000000  0.5681890000000 1.0
C      1  0.5837850000000  0.4601240000000  0.5108750000000 1.0
C      1  0.4605180000000  0.5386720000000  0.4404830000000 1.0
C      1  0.4399900000000  0.5049350000000  0.5642190000000 1.0
C      1  0.4830350000000  0.5579890000000  0.4292000000000 1.0
C      1  0.4471910000000  0.4908440000000  0.5348710000000 1.0
C      1  0.4864080000000  0.5281500000000  0.5356700000000 1.0
C      1  0.5110180000000  0.5516340000000  0.5358870000000 1.0
C      1  0.4755820000000  0.4885460000000  0.4930040000000 1.0
C      1  0.4701010000000  0.4615520000000  0.4738620000000 1.0
C      1  0.4324960000000  0.5212540000000  0.4435220000000 1.0
C      1  0.4384930000000  0.4615820000000  0.4681600000000 1.0
C      1  0.4180520000000  0.5090720000000  0.4617030000000 1.0
C      1  0.4727300000000  0.5554670000000  0.4677420000000 1.0
C      1  0.5299800000000  0.5349850000000  0.5671330000000 1.0
C      1  0.4543050000000  0.5240710000000  0.5326130000000 1.0
C      1  0.5212210000000  0.4341670000000  0.5808220000000 1.0
C      1  0.5058320000000  0.4950690000000  0.4559820000000 1.0
C      1  0.4769990000000  0.5954620000000  0.4721060000000 1.0
C      1  0.5435710000000  0.4985480000000  0.4399030000000 1.0
C      1  0.4965670000000  0.4549730000000  0.4250250000000 1.0
C      1  0.4800590000000  0.5681920000000  0.5544310000000 1.0
C      1  0.4789360000000  0.4029010000000  0.5281400000000 1.0
C      1  0.5510560000000  0.5242410000000  0.5271690000000 1.0
C      1  0.4861260000000  0.4657960000000  0.5664350000000 1.0
C      1  0.5427790000000  0.5038700000000  0.5062450000000 1.0
C      1  0.4941560000000  0.5077520000000  0.5893840000000 1.0
C      1  0.5046810000000  0.5471020000000  0.4173640000000 1.0
C      1  0.5661300000000  0.5540290000000  0.5052720000000 1.0
C      1  0.4280430000000  0.4872380000000  0.4826690000000 1.0
C      1  0.4901970000000  0.5143660000000  0.5068790000000 1.0
C      1  0.4448970000000  0.5349170000000  0.5614480000000 1.0
C      1  0.5027740000000  0.5148820000000  0.6139990000000 1.0
C      1  0.5001020000000  0.5246790000000  0.5666110000000 1.0
C      1  0.5083390000000  0.4734300000000  0.4076940000000 1.0
C      1  0.4953430000000  0.5441360000000  0.4999570000000 1.0
C      1  0.4583420000000  0.4355380000000  0.4923300000000 1.0
C      1  0.4830290000000  0.4274000000000  0.5114290000000 1.0
C      1  0.5561770000000  0.4706020000000  0.4436470000000 1.0
C      1  0.5226180000000  0.4951280000000  0.4145040000000 1.0
C      1  0.5643970000000  0.4745270000000  0.4898760000000 1.0
C      1  0.5208940000000  0.5242770000000  0.4275100000000 1.0
C      1  0.4815280000000  0.4609950000000  0.5121160000000 1.0
C      1  0.5180220000000  0.5225180000000  0.4586520000000 1.0
C      1  0.5345570000000  0.5587660000000  0.4612890000000 1.0
C      1  0.4973420000000  0.4278330000000  0.4309520000000 1.0
C      1  0.5139390000000  0.4959400000000  0.5105390000000 1.0
C      1  0.5173810000000  0.4683760000000  0.4703980000000 1.0
C      1  0.4412730000000  0.5395060000000  0.5102800000000 1.0
C      1  0.4853070000000  0.5681460000000  0.5215690000000 1.0
C      1  0.5376530000000  0.5521640000000  0.5241760000000 1.0
C      1  0.4190430000000  0.5547710000000  0.5147280000000 1.0
C      1  0.5096090000000  0.4683080000000  0.4981430000000 1.0
C      1  0.4533440000000  0.5069280000000  0.4803650000000 1.0
C      1  0.4498960000000  0.4903190000000  0.5862130000000 1.0
C      1  0.5700710000000  0.5367440000000  0.4841680000000 1.0
C      1  0.5056710000000  0.5477270000000  0.4711160000000 1.0
C      1  0.4351410000000  0.4484100000000  0.5103560000000 1.0
C      1  0.4313600000000  0.4763600000000  0.5121100000000 1.0
C      1  0.4457600000000  0.4364830000000  0.4543940000000 1.0
C      1  0.4531040000000  0.5342900000000  0.4857530000000 1.0
C      1  0.4778720000000  0.4847340000000  0.5859090000000 1.0
C      1  0.5764590000000  0.4685490000000  0.5377220000000 1.0
C      1  0.5306270000000  0.4314980000000  0.4799620000000 1.0
C      1  0.5772380000000  0.5523610000000  0.4384330000000 1.0
C      1  0.4760370000000  0.5816040000000  0.4462350000000 1.0
C      1  0.5516690000000  0.4095230000000  0.4851880000000 1.0
C      1  0.5443460000000  0.5084040000000  0.4725550000000 1.0
C      1  0.5753600000000  0.5061020000000  0.4836340000000 1.0
C      1  0.4904420000000  0.4671270000000  0.4515500000000 1.0
C      1  0.4499020000000  0.4097310000000  0.4733100000000 1.0
C      1  0.5717210000000  0.5065310000000  0.5672890000000 1.0
C      1  0.4562810000000  0.5601490000000  0.5657550000000 1.0
C      1  0.5469580000000  0.4593630000000  0.4690020000000 1.0
C      1  0.5519000000000  0.5224520000000  0.5558290000000 1.0
C      1  0.5092790000000  0.4216630000000  0.4601810000000 1.0
END
