TITL C-2848498-1409-393 0.000456951845807925 125000 -990.694800695713 0 0 179 (C1) n - 1
REM
REM in /home/bkarasulu/work/CARBON/AIRSS/Generating-Clusters/AIREBO/with-SteepDescent/Only-C1/SD-CG-opt/Try1-1.4A-POS3A/HFTN-CG
REM
REM
REM
REM
REM
REM ./C.cell (11c1c37f851c82e70ff6c80c92926a4b)
REM
REM compiler GCC version 9.2.1 20190827 (Red Hat 9.2.1-1)
REM options -cpp -mtune=generic -march=x86-64 -g -O0 -fpre-include=/usr/include/finclude/math-vector-fortran.h
REM seed 1608628111 1917989048 -185899225 1539277334 1479372097 -1320099925 -919267114 53663071 1083286953 -639398068 -1271029121 649281914 -1426192167 -644882776 -220635084 1129840985 -1168883009 1545442839 -769951464 -371129096 -975932044 1549829224 -60414357 1458428921 -1797426699 1023703180 -703317939 1915906002 587094735 499605541 -994055154 -10434049 1282017051
REM
CELL 1.54180   50.00000   50.00000   50.00000   90.00000   90.00000   90.00000
LATT -1
SFAC C  
C      1  0.4187850000000  0.5707640000000  0.4922550000000 1.0
C      1  0.6057060000000  0.4845240000000  0.4784650000000 1.0
C      1  0.4683810000000  0.4892610000000  0.6103400000000 1.0
C      1  0.4312630000000  0.5156180000000  0.4189610000000 1.0
C      1  0.4810510000000  0.6223390000000  0.5425000000000 1.0
C      1  0.4261260000000  0.4355550000000  0.5273680000000 1.0
C      1  0.5475100000000  0.4695600000000  0.5587980000000 1.0
C      1  0.4544310000000  0.5430550000000  0.4945190000000 1.0
C      1  0.4979490000000  0.4521140000000  0.4806070000000 1.0
C      1  0.4508990000000  0.4951580000000  0.4844970000000 1.0
C      1  0.5656840000000  0.4185160000000  0.5326500000000 1.0
C      1  0.4789520000000  0.5158240000000  0.3765030000000 1.0
C      1  0.4801790000000  0.4464900000000  0.4375870000000 1.0
C      1  0.4468360000000  0.5498900000000  0.5620860000000 1.0
C      1  0.4419440000000  0.4844660000000  0.5362290000000 1.0
C      1  0.4363270000000  0.4766950000000  0.5646860000000 1.0
C      1  0.5243110000000  0.3893620000000  0.5177030000000 1.0
C      1  0.5278310000000  0.5446800000000  0.4870700000000 1.0
C      1  0.4917670000000  0.4798450000000  0.5894160000000 1.0
C      1  0.4070380000000  0.5377940000000  0.5249080000000 1.0
C      1  0.5238680000000  0.5631740000000  0.5843380000000 1.0
C      1  0.6059220000000  0.5278300000000  0.5114990000000 1.0
C      1  0.5125870000000  0.4362090000000  0.4383020000000 1.0
C      1  0.6045830000000  0.4983220000000  0.5283900000000 1.0
C      1  0.4988650000000  0.5188700000000  0.4347270000000 1.0
C      1  0.5434450000000  0.4759480000000  0.4669140000000 1.0
C      1  0.4972120000000  0.5296930000000  0.5761760000000 1.0
C      1  0.5945780000000  0.5773990000000  0.5132260000000 1.0
C      1  0.4485700000000  0.5625160000000  0.5331430000000 1.0
C      1  0.4593960000000  0.4179230000000  0.5704480000000 1.0
C      1  0.5199760000000  0.4796320000000  0.6063230000000 1.0
C      1  0.4667210000000  0.4086210000000  0.4678010000000 1.0
C      1  0.4310480000000  0.5429800000000  0.4211470000000 1.0
C      1  0.5118520000000  0.5570290000000  0.4232720000000 1.0
C      1  0.3779560000000  0.5141410000000  0.5110990000000 1.0
C      1  0.5312220000000  0.5397710000000  0.4452670000000 1.0
C      1  0.4347980000000  0.4754550000000  0.4670710000000 1.0
C      1  0.5442790000000  0.4945990000000  0.5121850000000 1.0
C      1  0.3959190000000  0.4756520000000  0.4587080000000 1.0
C      1  0.4893920000000  0.4791280000000  0.4350880000000 1.0
C      1  0.4602090000000  0.6125240000000  0.5227870000000 1.0
C      1  0.4719120000000  0.4906510000000  0.5316780000000 1.0
C      1  0.5029470000000  0.6236180000000  0.5017630000000 1.0
C      1  0.5657930000000  0.4766730000000  0.4035140000000 1.0
C      1  0.5725670000000  0.4575760000000  0.4419940000000 1.0
C      1  0.4864200000000  0.4217670000000  0.4869660000000 1.0
C      1  0.4775430000000  0.4505060000000  0.4034310000000 1.0
C      1  0.3932100000000  0.4948470000000  0.5612680000000 1.0
C      1  0.3914680000000  0.5019950000000  0.5329930000000 1.0
C      1  0.4011230000000  0.4452280000000  0.4587420000000 1.0
C      1  0.5349200000000  0.5065780000000  0.5971030000000 1.0
C      1  0.4360380000000  0.5018890000000  0.4479820000000 1.0
C      1  0.4673560000000  0.5387390000000  0.5232890000000 1.0
C      1  0.5154730000000  0.4094190000000  0.5737600000000 1.0
C      1  0.4171970000000  0.5504350000000  0.4435070000000 1.0
C      1  0.5598370000000  0.5199390000000  0.5201910000000 1.0
C      1  0.4682730000000  0.5723930000000  0.4842950000000 1.0
C      1  0.3962610000000  0.5017350000000  0.4518920000000 1.0
C      1  0.4654980000000  0.5411840000000  0.3868090000000 1.0
C      1  0.4254180000000  0.4659880000000  0.5168110000000 1.0
C      1  0.5266370000000  0.5716430000000  0.5022510000000 1.0
C      1  0.4860550000000  0.5002520000000  0.5677330000000 1.0
C      1  0.5308620000000  0.5917580000000  0.4786320000000 1.0
C      1  0.5908610000000  0.4849030000000  0.4149390000000 1.0
C      1  0.5717060000000  0.4830860000000  0.5726310000000 1.0
C      1  0.5586270000000  0.5721270000000  0.4783860000000 1.0
C      1  0.4997620000000  0.5139120000000  0.4913710000000 1.0
C      1  0.5314890000000  0.4945620000000  0.5436060000000 1.0
C      1  0.5789660000000  0.5215990000000  0.4934050000000 1.0
C      1  0.4483200000000  0.4515270000000  0.4484930000000 1.0
C      1  0.4368110000000  0.5166980000000  0.5007610000000 1.0
C      1  0.4304960000000  0.5611120000000  0.4685090000000 1.0
C      1  0.5453430000000  0.4953640000000  0.4012140000000 1.0
C      1  0.5345950000000  0.4198190000000  0.5189740000000 1.0
C      1  0.5639410000000  0.4494270000000  0.4727260000000 1.0
C      1  0.5917180000000  0.4853270000000  0.4478920000000 1.0
C      1  0.5638750000000  0.4157800000000  0.4776610000000 1.0
C      1  0.3941080000000  0.4532970000000  0.5119550000000 1.0
C      1  0.5457920000000  0.5163060000000  0.4254210000000 1.0
C      1  0.4382830000000  0.4349760000000  0.5755100000000 1.0
C      1  0.5077750000000  0.6073770000000  0.4786990000000 1.0
C      1  0.4448780000000  0.5305450000000  0.4643670000000 1.0
C      1  0.5861600000000  0.5642980000000  0.4638160000000 1.0
C      1  0.4179040000000  0.4420160000000  0.5573450000000 1.0
C      1  0.4956720000000  0.5752290000000  0.5131980000000 1.0
C      1  0.5467470000000  0.5789100000000  0.5281150000000 1.0
C      1  0.4780640000000  0.4407820000000  0.5298580000000 1.0
C      1  0.5058160000000  0.4679090000000  0.4075120000000 1.0
C      1  0.5037190000000  0.5344590000000  0.4645620000000 1.0
C      1  0.4926380000000  0.5439900000000  0.5055440000000 1.0
C      1  0.5698100000000  0.5264590000000  0.4035900000000 1.0
C      1  0.4370050000000  0.5236260000000  0.5813510000000 1.0
C      1  0.5621030000000  0.4195960000000  0.5840070000000 1.0
C      1  0.5527200000000  0.4433940000000  0.5042530000000 1.0
C      1  0.5213760000000  0.4656040000000  0.5289360000000 1.0
C      1  0.4331100000000  0.4257080000000  0.4951010000000 1.0
C      1  0.6020700000000  0.5538980000000  0.5268640000000 1.0
C      1  0.5685710000000  0.5813850000000  0.5060850000000 1.0
C      1  0.4092580000000  0.4708630000000  0.4881290000000 1.0
C      1  0.4345020000000  0.4477390000000  0.4187730000000 1.0
C      1  0.5110680000000  0.5302110000000  0.4064250000000 1.0
C      1  0.5245940000000  0.4490710000000  0.4657580000000 1.0
C      1  0.5646570000000  0.4961100000000  0.5957750000000 1.0
C      1  0.5858540000000  0.5431320000000  0.4469670000000 1.0
C      1  0.5856200000000  0.5483200000000  0.5487700000000 1.0
C      1  0.5891140000000  0.4964680000000  0.5547430000000 1.0
C      1  0.5282700000000  0.5179750000000  0.5657650000000 1.0
C      1  0.4648910000000  0.5834630000000  0.5162710000000 1.0
C      1  0.5414450000000  0.5371790000000  0.5430510000000 1.0
C      1  0.5661020000000  0.4720300000000  0.5125720000000 1.0
C      1  0.5092430000000  0.4955960000000  0.4572410000000 1.0
C      1  0.5713960000000  0.4076240000000  0.5022640000000 1.0
C      1  0.5514830000000  0.5077530000000  0.4578360000000 1.0
C      1  0.5059290000000  0.5125030000000  0.3858620000000 1.0
C      1  0.5088670000000  0.5672280000000  0.5604720000000 1.0
C      1  0.5085250000000  0.4316650000000  0.5929160000000 1.0
C      1  0.4557100000000  0.4000580000000  0.4988200000000 1.0
C      1  0.5004500000000  0.4497790000000  0.5105180000000 1.0
C      1  0.4563080000000  0.4261460000000  0.5197250000000 1.0
C      1  0.5057950000000  0.4033420000000  0.5411860000000 1.0
C      1  0.4729780000000  0.5209930000000  0.4127100000000 1.0
C      1  0.5455880000000  0.5639140000000  0.4261020000000 1.0
C      1  0.4556860000000  0.5578090000000  0.4113570000000 1.0
C      1  0.5438060000000  0.4205360000000  0.5586010000000 1.0
C      1  0.5592540000000  0.5637300000000  0.5523920000000 1.0
C      1  0.4052570000000  0.5201140000000  0.5726000000000 1.0
C      1  0.5779080000000  0.5217460000000  0.5464210000000 1.0
C      1  0.4744860000000  0.6315790000000  0.5041430000000 1.0
C      1  0.5562550000000  0.4546620000000  0.4190540000000 1.0
C      1  0.5200220000000  0.4892020000000  0.3910960000000 1.0
C      1  0.4061560000000  0.4698780000000  0.5648660000000 1.0
C      1  0.5017090000000  0.5412450000000  0.5442300000000 1.0
C      1  0.5226960000000  0.4041350000000  0.4433130000000 1.0
C      1  0.5838670000000  0.5148630000000  0.4614830000000 1.0
C      1  0.4865860000000  0.4008960000000  0.5132180000000 1.0
C      1  0.3971080000000  0.5404410000000  0.5549650000000 1.0
C      1  0.5147240000000  0.4674300000000  0.5676110000000 1.0
C      1  0.4842900000000  0.5950350000000  0.4680170000000 1.0
C      1  0.5262300000000  0.4953730000000  0.4868010000000 1.0
C      1  0.5169780000000  0.4353500000000  0.5438340000000 1.0
C      1  0.5071990000000  0.6164410000000  0.5307890000000 1.0
C      1  0.4649240000000  0.4984710000000  0.4320960000000 1.0
C      1  0.4514620000000  0.4484300000000  0.3969760000000 1.0
C      1  0.4807580000000  0.4479930000000  0.5875310000000 1.0
C      1  0.4225250000000  0.5620910000000  0.5176690000000 1.0
C      1  0.5241420000000  0.4513560000000  0.6090320000000 1.0
C      1  0.4776530000000  0.5930720000000  0.4412190000000 1.0
C      1  0.5394090000000  0.4196090000000  0.4623780000000 1.0
C      1  0.5205290000000  0.5372760000000  0.5997360000000 1.0
C      1  0.4513290000000  0.4603060000000  0.5889530000000 1.0
C      1  0.6122890000000  0.4504880000000  0.5162350000000 1.0
C      1  0.5707700000000  0.5481250000000  0.4237450000000 1.0
C      1  0.4772900000000  0.4947320000000  0.5026450000000 1.0
C      1  0.4224650000000  0.5074980000000  0.5257670000000 1.0
C      1  0.5778530000000  0.4210940000000  0.6040360000000 1.0
C      1  0.6216280000000  0.5096550000000  0.4888970000000 1.0
C      1  0.5963140000000  0.4761090000000  0.5094000000000 1.0
C      1  0.3955520000000  0.5303350000000  0.4937440000000 1.0
C      1  0.4733010000000  0.5489950000000  0.4601410000000 1.0
C      1  0.5044420000000  0.3737170000000  0.5021040000000 1.0
C      1  0.4706530000000  0.4141180000000  0.4417440000000 1.0
C      1  0.5218370000000  0.5352730000000  0.5180660000000 1.0
C      1  0.5538740000000  0.5392230000000  0.4706200000000 1.0
C      1  0.4440800000000  0.4943020000000  0.5915700000000 1.0
C      1  0.5504980000000  0.5723450000000  0.5804780000000 1.0
C      1  0.4825810000000  0.5619170000000  0.4318840000000 1.0
C      1  0.4758970000000  0.5196470000000  0.5440960000000 1.0
C      1  0.4261620000000  0.4365170000000  0.4676360000000 1.0
C      1  0.4671380000000  0.5401340000000  0.5850870000000 1.0
C      1  0.5577610000000  0.4512630000000  0.5372390000000 1.0
C      1  0.4868340000000  0.4332030000000  0.5594520000000 1.0
C      1  0.4713400000000  0.5091590000000  0.4637320000000 1.0
C      1  0.5970240000000  0.4527890000000  0.4771840000000 1.0
C      1  0.4112190000000  0.5263540000000  0.4672280000000 1.0
C      1  0.5292590000000  0.4487740000000  0.4160100000000 1.0
C      1  0.4908360000000  0.4693760000000  0.5434020000000 1.0
C      1  0.4865730000000  0.4799070000000  0.4749670000000 1.0
C      1  0.5162320000000  0.5875140000000  0.5371740000000 1.0
C      1  0.4586940000000  0.5904590000000  0.4183630000000 1.0
END
