TITL C-2848504-8560-150 0.00464467739499113 125000 -425.999582612211 0 0 78 (C1) n - 1
REM
REM in /home/bkarasulu/work/CARBON/AIRSS/Generating-Clusters/AIREBO/with-SteepDescent/Only-C1/SD-CG-opt/Try1-1.4A-POS3A/HFTN-CG
REM
REM
REM
REM
REM
REM ./C.cell (11c1c37f851c82e70ff6c80c92926a4b)
REM
REM compiler GCC version 9.2.1 20190827 (Red Hat 9.2.1-1)
REM options -cpp -mtune=generic -march=x86-64 -g -O0 -fpre-include=/usr/include/finclude/math-vector-fortran.h
REM seed -1643455084 -2124329930 406457381 -1240037258 814876246 402568704 -1072113452 -1260933512 379160639 -951191474 -638400054 -1713822639 -1438811316 -281428702 -426841284 1767978285 -2019646101 -2128088430 521289421 -1803549190 -855606346 1824382787 742640104 -134447650 2090899848 1602776970 -111296190 -1270816616 1241248039 -467542570 907718293 -1450852811 -682894235
REM
CELL 1.54180   50.00000   50.00000   50.00000   90.00000   90.00000   90.00000
LATT -1
SFAC C  
C      1  0.4638270000000  0.5733480000000  0.5431270000000 1.0
C      1  0.5199060000000  0.5247420000000  0.4599030000000 1.0
C      1  0.5035270000000  0.5141950000000  0.5352630000000 1.0
C      1  0.5527740000000  0.5030550000000  0.5071730000000 1.0
C      1  0.5469650000000  0.5526210000000  0.4515450000000 1.0
C      1  0.5192740000000  0.4700650000000  0.5209130000000 1.0
C      1  0.5304350000000  0.4934740000000  0.4600610000000 1.0
C      1  0.5492820000000  0.4449200000000  0.4844690000000 1.0
C      1  0.4731620000000  0.5082480000000  0.5304870000000 1.0
C      1  0.5516680000000  0.4730810000000  0.4563990000000 1.0
C      1  0.5333740000000  0.4198180000000  0.4856790000000 1.0
C      1  0.4789750000000  0.5690210000000  0.4870030000000 1.0
C      1  0.5377750000000  0.5628880000000  0.5239080000000 1.0
C      1  0.5487580000000  0.5271320000000  0.4323790000000 1.0
C      1  0.5084580000000  0.4535120000000  0.4597790000000 1.0
C      1  0.5202480000000  0.5135890000000  0.4277740000000 1.0
C      1  0.5149260000000  0.5031340000000  0.5614790000000 1.0
C      1  0.4816030000000  0.4985280000000  0.4559810000000 1.0
C      1  0.5706520000000  0.4703190000000  0.4817940000000 1.0
C      1  0.4918640000000  0.4725510000000  0.4365920000000 1.0
C      1  0.5212070000000  0.4574790000000  0.4904910000000 1.0
C      1  0.5141640000000  0.5164510000000  0.6095420000000 1.0
C      1  0.4709790000000  0.4794390000000  0.5202540000000 1.0
C      1  0.4923160000000  0.4632350000000  0.5331640000000 1.0
C      1  0.5063500000000  0.4151230000000  0.4911210000000 1.0
C      1  0.4727070000000  0.5799410000000  0.5117360000000 1.0
C      1  0.4796090000000  0.5536100000000  0.4573990000000 1.0
C      1  0.5659910000000  0.5037740000000  0.4775530000000 1.0
C      1  0.4673610000000  0.5008330000000  0.4831170000000 1.0
C      1  0.4927500000000  0.5459460000000  0.5770190000000 1.0
C      1  0.5204870000000  0.4825490000000  0.4212050000000 1.0
C      1  0.4130400000000  0.4838780000000  0.4804050000000 1.0
C      1  0.5150860000000  0.5742970000000  0.5427000000000 1.0
C      1  0.4617640000000  0.4322980000000  0.4233400000000 1.0
C      1  0.4401120000000  0.4345010000000  0.5414860000000 1.0
C      1  0.4253480000000  0.5715270000000  0.5533920000000 1.0
C      1  0.4650180000000  0.4361290000000  0.5537970000000 1.0
C      1  0.5653220000000  0.4776870000000  0.5220410000000 1.0
C      1  0.4903310000000  0.4700860000000  0.4938970000000 1.0
C      1  0.4342380000000  0.4439660000000  0.5155900000000 1.0
C      1  0.4942370000000  0.5935530000000  0.5269080000000 1.0
C      1  0.4823080000000  0.5152280000000  0.5011350000000 1.0
C      1  0.5447380000000  0.4957130000000  0.5534540000000 1.0
C      1  0.4443870000000  0.5042930000000  0.4423910000000 1.0
C      1  0.5064500000000  0.5419870000000  0.5365270000000 1.0
C      1  0.5907420000000  0.5109290000000  0.5413240000000 1.0
C      1  0.5632880000000  0.5150870000000  0.5360620000000 1.0
C      1  0.5131320000000  0.5559920000000  0.4515890000000 1.0
C      1  0.5562740000000  0.5459160000000  0.5338610000000 1.0
C      1  0.4422000000000  0.5480400000000  0.5458590000000 1.0
C      1  0.5206310000000  0.4424620000000  0.5511500000000 1.0
C      1  0.5192310000000  0.5017060000000  0.5084630000000 1.0
C      1  0.4845850000000  0.4215010000000  0.5065870000000 1.0
C      1  0.5892820000000  0.4673240000000  0.5084160000000 1.0
C      1  0.4481370000000  0.4929370000000  0.4159070000000 1.0
C      1  0.4194680000000  0.4692420000000  0.5060080000000 1.0
C      1  0.4591820000000  0.4400700000000  0.4949520000000 1.0
C      1  0.4508810000000  0.4736390000000  0.4947500000000 1.0
C      1  0.4510460000000  0.5234890000000  0.5437320000000 1.0
C      1  0.5082740000000  0.5685790000000  0.4801760000000 1.0
C      1  0.4667850000000  0.4513740000000  0.4403320000000 1.0
C      1  0.5060550000000  0.4923550000000  0.4785310000000 1.0
C      1  0.5128820000000  0.4719420000000  0.5662130000000 1.0
C      1  0.4760210000000  0.4890760000000  0.4114440000000 1.0
C      1  0.5301010000000  0.4599530000000  0.4388170000000 1.0
C      1  0.4520790000000  0.4584630000000  0.4643350000000 1.0
C      1  0.4925310000000  0.4301740000000  0.5359220000000 1.0
C      1  0.4884260000000  0.5674780000000  0.5608400000000 1.0
C      1  0.5666310000000  0.5262910000000  0.4602960000000 1.0
C      1  0.5435160000000  0.4656650000000  0.5413580000000 1.0
C      1  0.4695470000000  0.5270850000000  0.4449060000000 1.0
C      1  0.4337770000000  0.4855690000000  0.4607770000000 1.0
C      1  0.5260780000000  0.5567330000000  0.4999790000000 1.0
C      1  0.4859580000000  0.4557510000000  0.5657280000000 1.0
C      1  0.5114240000000  0.5298880000000  0.4911010000000 1.0
C      1  0.4897380000000  0.5148600000000  0.4204310000000 1.0
C      1  0.4415990000000  0.5963940000000  0.5550190000000 1.0
C      1  0.5067500000000  0.5222750000000  0.5837650000000 1.0
END
