TITL C-2847946-5639-401 0.00150138726602255 125000 -265.331732819972 0 0 49 (C1) n - 1
REM
REM in /home/bkarasulu/work/CARBON/AIRSS/Generating-Clusters/AIREBO/with-SteepDescent/Only-C1/SD-CG-opt/Try1-1.4A-POS3A/HFTN-CG
REM
REM
REM
REM
REM
REM ./C.cell (11c1c37f851c82e70ff6c80c92926a4b)
REM
REM compiler GCC version 9.2.1 20190827 (Red Hat 9.2.1-1)
REM options -cpp -mtune=generic -march=x86-64 -g -O0 -fpre-include=/usr/include/finclude/math-vector-fortran.h
REM seed 630601375 -772676988 1650535552 -2033164086 1332063637 1601782092 -814356123 299667820 -1777405155 377917508 -792509657 -1522109635 523570599 1456914215 1442873912 1295762935 490907145 777723652 2032254152 -1831220404 8495072 -1102983970 -418938921 -1904214013 1227813924 -169622978 -1712507945 -1746567651 -232384545 -2121895825 632715152 -442319044 -384352197
REM
CELL 1.54180   50.00000   50.00000   50.00000   90.00000   90.00000   90.00000
LATT -1
SFAC C  
C      1  0.5359950000000  0.4756680000000  0.4457460000000 1.0
C      1  0.4538190000000  0.4748260000000  0.5313240000000 1.0
C      1  0.4502030000000  0.4695270000000  0.5013030000000 1.0
C      1  0.5045500000000  0.5514900000000  0.4878870000000 1.0
C      1  0.5424930000000  0.5436400000000  0.5374070000000 1.0
C      1  0.4642980000000  0.5586750000000  0.5357000000000 1.0
C      1  0.4927730000000  0.4994800000000  0.5043080000000 1.0
C      1  0.4970900000000  0.5579960000000  0.5266030000000 1.0
C      1  0.5046300000000  0.5348720000000  0.5497850000000 1.0
C      1  0.4853130000000  0.4986230000000  0.5361560000000 1.0
C      1  0.5226020000000  0.4605220000000  0.5250850000000 1.0
C      1  0.4382470000000  0.5271400000000  0.4979680000000 1.0
C      1  0.5699520000000  0.4897540000000  0.4785350000000 1.0
C      1  0.5042870000000  0.5214320000000  0.4810360000000 1.0
C      1  0.4326400000000  0.5220730000000  0.5299940000000 1.0
C      1  0.4922330000000  0.4398050000000  0.5005680000000 1.0
C      1  0.5328820000000  0.4507530000000  0.4593820000000 1.0
C      1  0.4557160000000  0.5065620000000  0.5434280000000 1.0
C      1  0.5494290000000  0.5472890000000  0.4691930000000 1.0
C      1  0.5566060000000  0.4382720000000  0.4970030000000 1.0
C      1  0.5282260000000  0.5594810000000  0.5200710000000 1.0
C      1  0.4634120000000  0.4989130000000  0.4621640000000 1.0
C      1  0.4838110000000  0.4741190000000  0.4598190000000 1.0
C      1  0.5155910000000  0.5148350000000  0.4570290000000 1.0
C      1  0.4185190000000  0.5293650000000  0.4786470000000 1.0
C      1  0.5501750000000  0.4529070000000  0.5393740000000 1.0
C      1  0.4744140000000  0.5343980000000  0.5495960000000 1.0
C      1  0.5283470000000  0.4548660000000  0.4926890000000 1.0
C      1  0.5343010000000  0.5579510000000  0.4909500000000 1.0
C      1  0.4811590000000  0.4693290000000  0.5004620000000 1.0
C      1  0.4545890000000  0.4615040000000  0.4718300000000 1.0
C      1  0.4711940000000  0.4551930000000  0.5432360000000 1.0
C      1  0.4373660000000  0.4471940000000  0.4562160000000 1.0
C      1  0.5566300000000  0.4957530000000  0.4542230000000 1.0
C      1  0.4799490000000  0.5706270000000  0.5011410000000 1.0
C      1  0.5302050000000  0.5145580000000  0.5428380000000 1.0
C      1  0.5771440000000  0.4790720000000  0.5088140000000 1.0
C      1  0.5020320000000  0.4511020000000  0.4718040000000 1.0
C      1  0.5706020000000  0.4527920000000  0.5182100000000 1.0
C      1  0.5237000000000  0.4933230000000  0.5170930000000 1.0
C      1  0.5508120000000  0.4961710000000  0.5032600000000 1.0
C      1  0.4473390000000  0.5059130000000  0.4428240000000 1.0
C      1  0.4948250000000  0.4464520000000  0.5302440000000 1.0
C      1  0.5101100000000  0.4891380000000  0.4465020000000 1.0
C      1  0.4715910000000  0.5440860000000  0.4839890000000 1.0
C      1  0.4418890000000  0.5514260000000  0.5212940000000 1.0
C      1  0.5066130000000  0.4952460000000  0.5531790000000 1.0
C      1  0.5437260000000  0.5224640000000  0.4554370000000 1.0
C      1  0.4659720000000  0.5134220000000  0.4886530000000 1.0
END
