TITL C-2847957-7266-558 0.000424466790554269 125000 -131.264658428876 0 0 25 (C1) n - 1
REM
REM in /home/bkarasulu/work/CARBON/AIRSS/Generating-Clusters/AIREBO/with-SteepDescent/Only-C1/SD-CG-opt/Try1-1.4A-POS3A/HFTN-CG
REM
REM
REM
REM
REM
REM ./C.cell (11c1c37f851c82e70ff6c80c92926a4b)
REM
REM compiler GCC version 9.2.1 20190827 (Red Hat 9.2.1-1)
REM options -cpp -mtune=generic -march=x86-64 -g -O0 -fpre-include=/usr/include/finclude/math-vector-fortran.h
REM seed -709658083 -384992858 -1827731247 -1938790391 -1473053836 1145123052 -1959865232 -1451781442 1848544745 116880249 -1502986809 267253804 794052606 568481215 -454286710 209594971 1285155664 1618181204 -71687160 -1779448716 -684040834 -1215844811 -1177872884 1005985090 -529109951 1578109735 753575688 -2001216891 587320404 1273596441 520463881 -241660735 -549993423
REM
CELL 1.54180   50.00000   50.00000   50.00000   90.00000   90.00000   90.00000
LATT -1
SFAC C  
C      1  0.5005220000000  0.4729910000000  0.5295350000000 1.0
C      1  0.5462200000000  0.5118340000000  0.5184150000000 1.0
C      1  0.5366750000000  0.4974870000000  0.4681950000000 1.0
C      1  0.5415340000000  0.4699860000000  0.4635420000000 1.0
C      1  0.4635760000000  0.4762060000000  0.5076790000000 1.0
C      1  0.4825800000000  0.5472160000000  0.4624830000000 1.0
C      1  0.5220320000000  0.4508720000000  0.4683860000000 1.0
C      1  0.4965910000000  0.4569420000000  0.4785360000000 1.0
C      1  0.4548200000000  0.4461160000000  0.5140170000000 1.0
C      1  0.4717400000000  0.4986140000000  0.4886270000000 1.0
C      1  0.5245420000000  0.5286500000000  0.5646210000000 1.0
C      1  0.5266490000000  0.5523920000000  0.4784700000000 1.0
C      1  0.4813020000000  0.5182720000000  0.5498830000000 1.0
C      1  0.5287860000000  0.5150170000000  0.5402150000000 1.0
C      1  0.5158730000000  0.5105480000000  0.4533900000000 1.0
C      1  0.4991450000000  0.5131820000000  0.4979520000000 1.0
C      1  0.5006380000000  0.5045880000000  0.5295870000000 1.0
C      1  0.4834500000000  0.4789490000000  0.4669270000000 1.0
C      1  0.4541610000000  0.5166010000000  0.5483950000000 1.0
C      1  0.4953190000000  0.4928410000000  0.4454040000000 1.0
C      1  0.5322810000000  0.5062670000000  0.4947160000000 1.0
C      1  0.5057730000000  0.5343240000000  0.4721610000000 1.0
C      1  0.4971210000000  0.5311710000000  0.5699450000000 1.0
C      1  0.4876400000000  0.4530290000000  0.5076890000000 1.0
C      1  0.4510310000000  0.5159040000000  0.4812300000000 1.0
END
