TITL C-2848506-1665-234 -0.00178510390924223 125000 -893.331000440991 0 0 173 (C1) n - 1
REM
REM in /home/bkarasulu/work/CARBON/AIRSS/Generating-Clusters/AIREBO/with-SteepDescent/Only-C1/SD-CG-opt/Try1-1.4A-POS3A/HFTN-CG
REM
REM
REM
REM
REM
REM ./C.cell (11c1c37f851c82e70ff6c80c92926a4b)
REM
REM compiler GCC version 9.2.1 20190827 (Red Hat 9.2.1-1)
REM options -cpp -mtune=generic -march=x86-64 -g -O0 -fpre-include=/usr/include/finclude/math-vector-fortran.h
REM seed -409091750 1660780253 939023130 1164496915 751354899 2118626140 -1094086212 1042288792 1843063257 442196252 -1742451506 1523184191 1020991093 1720430234 255246715 1450779239 -47291535 706488693 -1168210834 -1042432617 -69786566 312109525 -947967852 45598427 65563582 -905040501 1509742684 808709062 -1574795628 826319871 -1970879559 700599522 -916935666
REM
CELL 1.54180   50.00000   50.00000   50.00000   90.00000   90.00000   90.00000
LATT -1
SFAC C  
C      1  0.5353460000000  0.4743070000000  0.4812780000000 1.0
C      1  0.4751660000000  0.4507110000000  0.5973040000000 1.0
C      1  0.5451740000000  0.5546670000000  0.5475230000000 1.0
C      1  0.4990420000000  0.5383220000000  0.4421550000000 1.0
C      1  0.4795780000000  0.6082430000000  0.5106300000000 1.0
C      1  0.4783490000000  0.5674590000000  0.4676350000000 1.0
C      1  0.5222650000000  0.5300040000000  0.5573900000000 1.0
C      1  0.4551200000000  0.5001310000000  0.5210740000000 1.0
C      1  0.5922530000000  0.5776450000000  0.5142110000000 1.0
C      1  0.4338280000000  0.4734760000000  0.5856110000000 1.0
C      1  0.4026880000000  0.4814450000000  0.5184980000000 1.0
C      1  0.5425100000000  0.5093090000000  0.4444390000000 1.0
C      1  0.4431000000000  0.4769670000000  0.5044820000000 1.0
C      1  0.5078700000000  0.5661870000000  0.4247790000000 1.0
C      1  0.4904830000000  0.5635530000000  0.5465260000000 1.0
C      1  0.4763430000000  0.5757900000000  0.4180860000000 1.0
C      1  0.4176380000000  0.5533890000000  0.5672510000000 1.0
C      1  0.5279080000000  0.5293260000000  0.4290600000000 1.0
C      1  0.4084810000000  0.4719790000000  0.5616030000000 1.0
C      1  0.5634660000000  0.4289360000000  0.4905850000000 1.0
C      1  0.5563850000000  0.4518610000000  0.5147170000000 1.0
C      1  0.5289450000000  0.3990660000000  0.5467040000000 1.0
C      1  0.5221190000000  0.4232860000000  0.4325290000000 1.0
C      1  0.4147600000000  0.5221520000000  0.4400800000000 1.0
C      1  0.5190110000000  0.4616030000000  0.3977920000000 1.0
C      1  0.5859250000000  0.4516530000000  0.4879900000000 1.0
C      1  0.4460270000000  0.5502330000000  0.5678470000000 1.0
C      1  0.4196190000000  0.5494150000000  0.4724630000000 1.0
C      1  0.5354270000000  0.5923580000000  0.4669250000000 1.0
C      1  0.3944480000000  0.5168350000000  0.4592150000000 1.0
C      1  0.4579620000000  0.5745950000000  0.4453050000000 1.0
C      1  0.4285120000000  0.5826010000000  0.4541120000000 1.0
C      1  0.5726140000000  0.5751490000000  0.5378310000000 1.0
C      1  0.5010320000000  0.4646520000000  0.5990680000000 1.0
C      1  0.4312270000000  0.5132680000000  0.5842630000000 1.0
C      1  0.5676240000000  0.5931480000000  0.5024660000000 1.0
C      1  0.5919370000000  0.4859710000000  0.5741540000000 1.0
C      1  0.4826460000000  0.5188280000000  0.4013810000000 1.0
C      1  0.4635040000000  0.4139000000000  0.5617080000000 1.0
C      1  0.5057470000000  0.6084880000000  0.5029920000000 1.0
C      1  0.6027170000000  0.4525730000000  0.5126270000000 1.0
C      1  0.4387040000000  0.4873050000000  0.5549230000000 1.0
C      1  0.5748660000000  0.4811520000000  0.5126160000000 1.0
C      1  0.4138620000000  0.4524040000000  0.4829850000000 1.0
C      1  0.5150200000000  0.5919510000000  0.4458180000000 1.0
C      1  0.4759020000000  0.4375680000000  0.4938450000000 1.0
C      1  0.4508070000000  0.4195140000000  0.4796750000000 1.0
C      1  0.5417080000000  0.4807710000000  0.4054060000000 1.0
C      1  0.5358280000000  0.3980190000000  0.5187610000000 1.0
C      1  0.5549120000000  0.5030230000000  0.5440030000000 1.0
C      1  0.5015090000000  0.4580460000000  0.5599090000000 1.0
C      1  0.5450740000000  0.5043520000000  0.3903000000000 1.0
C      1  0.5357340000000  0.4573830000000  0.4528270000000 1.0
C      1  0.5501150000000  0.4194190000000  0.5635980000000 1.0
C      1  0.5239990000000  0.5834700000000  0.5431060000000 1.0
C      1  0.5053750000000  0.5436180000000  0.3994400000000 1.0
C      1  0.5209310000000  0.5802640000000  0.4952220000000 1.0
C      1  0.4765840000000  0.4078440000000  0.4608230000000 1.0
C      1  0.4509580000000  0.5068220000000  0.4043500000000 1.0
C      1  0.5442090000000  0.5217720000000  0.5820350000000 1.0
C      1  0.5612700000000  0.4371410000000  0.4602320000000 1.0
C      1  0.4368040000000  0.4449450000000  0.4388400000000 1.0
C      1  0.4932550000000  0.5947040000000  0.5525410000000 1.0
C      1  0.4898410000000  0.5953780000000  0.4572680000000 1.0
C      1  0.3963850000000  0.5283450000000  0.5103290000000 1.0
C      1  0.5632780000000  0.5886560000000  0.4743480000000 1.0
C      1  0.4591850000000  0.4960490000000  0.5879830000000 1.0
C      1  0.5790270000000  0.4835810000000  0.5453450000000 1.0
C      1  0.4593970000000  0.5203990000000  0.4641090000000 1.0
C      1  0.5459130000000  0.5556830000000  0.5815050000000 1.0
C      1  0.4284530000000  0.5791670000000  0.4864440000000 1.0
C      1  0.4510610000000  0.4708780000000  0.4216740000000 1.0
C      1  0.4781660000000  0.4898190000000  0.4280820000000 1.0
C      1  0.4534420000000  0.5400310000000  0.4908520000000 1.0
C      1  0.5481410000000  0.5449780000000  0.4987350000000 1.0
C      1  0.4635280000000  0.4276750000000  0.4392990000000 1.0
C      1  0.5000770000000  0.5418410000000  0.4729520000000 1.0
C      1  0.4723020000000  0.4756080000000  0.4944950000000 1.0
C      1  0.3936030000000  0.5346640000000  0.4833300000000 1.0
C      1  0.3946520000000  0.4893910000000  0.4663970000000 1.0
C      1  0.5855720000000  0.5058450000000  0.4668250000000 1.0
C      1  0.5958310000000  0.4787920000000  0.4498040000000 1.0
C      1  0.4578320000000  0.4450440000000  0.5709790000000 1.0
C      1  0.4253430000000  0.4841250000000  0.4787360000000 1.0
C      1  0.5693790000000  0.5501880000000  0.4429870000000 1.0
C      1  0.4999600000000  0.5208690000000  0.5907680000000 1.0
C      1  0.5422060000000  0.5168670000000  0.5164310000000 1.0
C      1  0.4766350000000  0.5305880000000  0.5295660000000 1.0
C      1  0.5716830000000  0.4195450000000  0.5400600000000 1.0
C      1  0.5382060000000  0.4406580000000  0.4166550000000 1.0
C      1  0.4387920000000  0.4994880000000  0.4352750000000 1.0
C      1  0.4221770000000  0.5085070000000  0.5222340000000 1.0
C      1  0.5018570000000  0.4676060000000  0.4796980000000 1.0
C      1  0.4631380000000  0.3917240000000  0.4943000000000 1.0
C      1  0.5306270000000  0.4663220000000  0.5947290000000 1.0
C      1  0.4082460000000  0.5419840000000  0.5385400000000 1.0
C      1  0.4994430000000  0.4394530000000  0.4520480000000 1.0
C      1  0.5329120000000  0.4914700000000  0.5585640000000 1.0
C      1  0.4636490000000  0.4061380000000  0.5314220000000 1.0
C      1  0.4854010000000  0.3978100000000  0.5123530000000 1.0
C      1  0.5104670000000  0.5051530000000  0.5130390000000 1.0
C      1  0.5998650000000  0.5575250000000  0.4954460000000 1.0
C      1  0.5252650000000  0.4767230000000  0.5133670000000 1.0
C      1  0.4364030000000  0.5392880000000  0.5196660000000 1.0
C      1  0.5227390000000  0.4990750000000  0.5901090000000 1.0
C      1  0.5012020000000  0.4558090000000  0.4229050000000 1.0
C      1  0.5700570000000  0.5323620000000  0.5412080000000 1.0
C      1  0.4694470000000  0.5595230000000  0.5948610000000 1.0
C      1  0.5010060000000  0.5492300000000  0.5730370000000 1.0
C      1  0.5447540000000  0.5724350000000  0.5185110000000 1.0
C      1  0.4858660000000  0.4831820000000  0.5767010000000 1.0
C      1  0.5648250000000  0.4435280000000  0.4294880000000 1.0
C      1  0.4604650000000  0.5132750000000  0.5519790000000 1.0
C      1  0.4857000000000  0.4905070000000  0.5312240000000 1.0
C      1  0.4141560000000  0.4490150000000  0.5385720000000 1.0
C      1  0.5754500000000  0.5151540000000  0.5123070000000 1.0
C      1  0.3998830000000  0.4538190000000  0.5080740000000 1.0
C      1  0.5207970000000  0.3987630000000  0.4484900000000 1.0
C      1  0.4884230000000  0.4314590000000  0.5494030000000 1.0
C      1  0.4378330000000  0.4526990000000  0.5196330000000 1.0
C      1  0.5691060000000  0.5209660000000  0.4467440000000 1.0
C      1  0.4999290000000  0.5610520000000  0.5138910000000 1.0
C      1  0.5280590000000  0.5541000000000  0.4746950000000 1.0
C      1  0.4694210000000  0.4510620000000  0.4632640000000 1.0
C      1  0.5793890000000  0.5622250000000  0.4682010000000 1.0
C      1  0.4259870000000  0.5516720000000  0.4392270000000 1.0
C      1  0.4680650000000  0.5282460000000  0.5815580000000 1.0
C      1  0.5073560000000  0.5329580000000  0.5276430000000 1.0
C      1  0.5128030000000  0.4134910000000  0.4994110000000 1.0
C      1  0.5310240000000  0.5269990000000  0.3982470000000 1.0
C      1  0.4894360000000  0.5796330000000  0.5829340000000 1.0
C      1  0.4550340000000  0.5497180000000  0.4239770000000 1.0
C      1  0.4639780000000  0.5911850000000  0.5355680000000 1.0
C      1  0.6156690000000  0.5102100000000  0.5690400000000 1.0
C      1  0.4723440000000  0.5233400000000  0.4334760000000 1.0
C      1  0.5791610000000  0.4548630000000  0.5722950000000 1.0
C      1  0.5026310000000  0.4790540000000  0.4476780000000 1.0
C      1  0.4657000000000  0.4402900000000  0.5261790000000 1.0
C      1  0.5173830000000  0.4277710000000  0.5603530000000 1.0
C      1  0.4271370000000  0.4538690000000  0.4074880000000 1.0
C      1  0.5027530000000  0.5130610000000  0.4828980000000 1.0
C      1  0.5029420000000  0.5020580000000  0.5557030000000 1.0
C      1  0.5221480000000  0.4987130000000  0.4643720000000 1.0
C      1  0.5236260000000  0.4352390000000  0.4756140000000 1.0
C      1  0.5000770000000  0.4896350000000  0.4020780000000 1.0
C      1  0.4746650000000  0.5603550000000  0.4983160000000 1.0
C      1  0.4651630000000  0.4677990000000  0.5461790000000 1.0
C      1  0.6087780000000  0.4816590000000  0.5098540000000 1.0
C      1  0.5778880000000  0.5333190000000  0.4860690000000 1.0
C      1  0.4254470000000  0.4442150000000  0.5704470000000 1.0
C      1  0.4297220000000  0.5179520000000  0.4805550000000 1.0
C      1  0.4345990000000  0.5910190000000  0.5179880000000 1.0
C      1  0.4534140000000  0.4809510000000  0.4598150000000 1.0
C      1  0.5578590000000  0.5725640000000  0.4196480000000 1.0
C      1  0.4997420000000  0.4547350000000  0.5109660000000 1.0
C      1  0.4810630000000  0.4348840000000  0.4157540000000 1.0
C      1  0.5716010000000  0.5111630000000  0.5845540000000 1.0
C      1  0.5899680000000  0.5245810000000  0.5645000000000 1.0
C      1  0.5364100000000  0.5584580000000  0.4419530000000 1.0
C      1  0.4191260000000  0.5150870000000  0.5562780000000 1.0
C      1  0.4579600000000  0.5575130000000  0.5386430000000 1.0
C      1  0.5690840000000  0.4792190000000  0.4799660000000 1.0
C      1  0.5020680000000  0.4007970000000  0.4697390000000 1.0
C      1  0.5889930000000  0.4602880000000  0.4303190000000 1.0
C      1  0.4288190000000  0.4349500000000  0.4668410000000 1.0
C      1  0.5302690000000  0.4615310000000  0.5433760000000 1.0
C      1  0.5815820000000  0.4505870000000  0.5375150000000 1.0
C      1  0.4779020000000  0.4990210000000  0.4750080000000 1.0
C      1  0.5409580000000  0.4809800000000  0.4333690000000 1.0
C      1  0.4594000000000  0.5877740000000  0.4962690000000 1.0
C      1  0.5612710000000  0.4093400000000  0.5150780000000 1.0
C      1  0.5262770000000  0.4369380000000  0.5200740000000 1.0
C      1  0.5466480000000  0.4522520000000  0.5717060000000 1.0
END
