TITL C-2847958-8115-154 -0.00121675295658821 125000 -1020.52038322107 0 0 190 (C1) n - 1
REM
REM in /home/bkarasulu/work/CARBON/AIRSS/Generating-Clusters/AIREBO/with-SteepDescent/Only-C1/SD-CG-opt/Try1-1.4A-POS3A/HFTN-CG
REM
REM
REM
REM
REM
REM ./C.cell (11c1c37f851c82e70ff6c80c92926a4b)
REM
REM compiler GCC version 9.2.1 20190827 (Red Hat 9.2.1-1)
REM options -cpp -mtune=generic -march=x86-64 -g -O0 -fpre-include=/usr/include/finclude/math-vector-fortran.h
REM seed 1847684291 238188671 -1092068564 -308610771 1571292078 855648328 -339520565 -1588684015 211442967 1318239955 -349740709 441647833 1258502738 1472250794 -356052296 -1577612704 -1986887820 -770869616 -450606721 -1950506305 1231446403 -721801129 -2080301806 959020100 2128650386 -539441453 -1915248381 -528273328 -176405438 39300169 -1651007576 -553169146 -984075326
REM
CELL 1.54180   50.00000   50.00000   50.00000   90.00000   90.00000   90.00000
LATT -1
SFAC C  
C      1  0.5886870000000  0.4360860000000  0.5048690000000 1.0
C      1  0.5731950000000  0.5158370000000  0.4176700000000 1.0
C      1  0.5281340000000  0.4572130000000  0.4430850000000 1.0
C      1  0.4001480000000  0.4615100000000  0.4954880000000 1.0
C      1  0.4753050000000  0.5101520000000  0.5048920000000 1.0
C      1  0.5173860000000  0.4209840000000  0.5737780000000 1.0
C      1  0.4253470000000  0.4828750000000  0.4584310000000 1.0
C      1  0.4562900000000  0.6062920000000  0.4715110000000 1.0
C      1  0.4939980000000  0.5500480000000  0.5158760000000 1.0
C      1  0.5443490000000  0.5409490000000  0.3878230000000 1.0
C      1  0.5201940000000  0.4116610000000  0.4745710000000 1.0
C      1  0.5040570000000  0.3923850000000  0.5129110000000 1.0
C      1  0.5104520000000  0.4603860000000  0.3908400000000 1.0
C      1  0.4401940000000  0.5849240000000  0.5231340000000 1.0
C      1  0.4516800000000  0.5041870000000  0.4542760000000 1.0
C      1  0.4840090000000  0.5492420000000  0.4512620000000 1.0
C      1  0.5044320000000  0.5297280000000  0.4701960000000 1.0
C      1  0.4456170000000  0.4715010000000  0.4908900000000 1.0
C      1  0.5036270000000  0.5569280000000  0.5896500000000 1.0
C      1  0.4811910000000  0.4500450000000  0.4934840000000 1.0
C      1  0.5709760000000  0.5110660000000  0.4925520000000 1.0
C      1  0.4739660000000  0.3899290000000  0.4971910000000 1.0
C      1  0.4519240000000  0.5379990000000  0.4505870000000 1.0
C      1  0.5642480000000  0.4315700000000  0.5493810000000 1.0
C      1  0.4415200000000  0.4310650000000  0.5679830000000 1.0
C      1  0.5280680000000  0.5501570000000  0.4785360000000 1.0
C      1  0.5616180000000  0.5865180000000  0.5590370000000 1.0
C      1  0.3918750000000  0.5158110000000  0.4933730000000 1.0
C      1  0.5147960000000  0.5705950000000  0.5641920000000 1.0
C      1  0.4518640000000  0.4278620000000  0.5391760000000 1.0
C      1  0.4197830000000  0.4697930000000  0.5408610000000 1.0
C      1  0.4906310000000  0.5833510000000  0.4303520000000 1.0
C      1  0.4980300000000  0.4787540000000  0.4862020000000 1.0
C      1  0.4993610000000  0.4693180000000  0.6121940000000 1.0
C      1  0.4644700000000  0.5355330000000  0.5244650000000 1.0
C      1  0.5058120000000  0.5280260000000  0.5470130000000 1.0
C      1  0.4986470000000  0.4456090000000  0.4358140000000 1.0
C      1  0.4493040000000  0.4414140000000  0.5016930000000 1.0
C      1  0.4804920000000  0.5056720000000  0.4722850000000 1.0
C      1  0.5532970000000  0.4925840000000  0.5986780000000 1.0
C      1  0.4667690000000  0.4583040000000  0.5364950000000 1.0
C      1  0.4866000000000  0.4585470000000  0.4093960000000 1.0
C      1  0.3733320000000  0.4600550000000  0.5032930000000 1.0
C      1  0.4633370000000  0.4369970000000  0.4198290000000 1.0
C      1  0.5708360000000  0.4567920000000  0.4890870000000 1.0
C      1  0.4105980000000  0.5159390000000  0.5533820000000 1.0
C      1  0.4462880000000  0.5531280000000  0.5949110000000 1.0
C      1  0.4101830000000  0.4888700000000  0.4852340000000 1.0
C      1  0.4836440000000  0.4230660000000  0.5281070000000 1.0
C      1  0.4643370000000  0.4319730000000  0.5853850000000 1.0
C      1  0.5353970000000  0.5991730000000  0.4565500000000 1.0
C      1  0.4802090000000  0.5641290000000  0.4881590000000 1.0
C      1  0.5879650000000  0.4411750000000  0.5319020000000 1.0
C      1  0.4961500000000  0.4963010000000  0.5492760000000 1.0
C      1  0.4840290000000  0.5273830000000  0.4252060000000 1.0
C      1  0.5658480000000  0.5974310000000  0.4943540000000 1.0
C      1  0.5530410000000  0.5338010000000  0.5694300000000 1.0
C      1  0.5450970000000  0.4674710000000  0.5921170000000 1.0
C      1  0.4379900000000  0.5014590000000  0.4232600000000 1.0
C      1  0.4595940000000  0.5166970000000  0.5854640000000 1.0
C      1  0.5361790000000  0.5167930000000  0.5901650000000 1.0
C      1  0.4329280000000  0.5624430000000  0.5664010000000 1.0
C      1  0.5329590000000  0.5925230000000  0.5685900000000 1.0
C      1  0.5564920000000  0.5872270000000  0.4712740000000 1.0
C      1  0.5981710000000  0.5006300000000  0.5575900000000 1.0
C      1  0.4400500000000  0.4926780000000  0.5111550000000 1.0
C      1  0.4388850000000  0.5696280000000  0.4981640000000 1.0
C      1  0.4572000000000  0.4715560000000  0.4621400000000 1.0
C      1  0.5246700000000  0.5390720000000  0.6074540000000 1.0
C      1  0.5725360000000  0.5136820000000  0.5536100000000 1.0
C      1  0.5245280000000  0.5810990000000  0.4322430000000 1.0
C      1  0.4981440000000  0.4518170000000  0.5239250000000 1.0
C      1  0.5516820000000  0.4925560000000  0.5417410000000 1.0
C      1  0.3853240000000  0.5408930000000  0.5120260000000 1.0
C      1  0.4352130000000  0.4684100000000  0.4141170000000 1.0
C      1  0.5329900000000  0.4238570000000  0.5513120000000 1.0
C      1  0.6094920000000  0.5162890000000  0.4831690000000 1.0
C      1  0.5470740000000  0.4182210000000  0.5144810000000 1.0
C      1  0.5303150000000  0.5451540000000  0.5507200000000 1.0
C      1  0.4698410000000  0.3787300000000  0.5290370000000 1.0
C      1  0.5256030000000  0.5588730000000  0.5069530000000 1.0
C      1  0.4870860000000  0.4232550000000  0.5679210000000 1.0
C      1  0.5813300000000  0.4211120000000  0.4603420000000 1.0
C      1  0.5494490000000  0.4123900000000  0.4330360000000 1.0
C      1  0.6028360000000  0.5289660000000  0.4571040000000 1.0
C      1  0.4985420000000  0.4210950000000  0.4976010000000 1.0
C      1  0.5590870000000  0.4912050000000  0.4083490000000 1.0
C      1  0.5194790000000  0.4992420000000  0.4695810000000 1.0
C      1  0.4682520000000  0.5669730000000  0.4119040000000 1.0
C      1  0.5875270000000  0.4721490000000  0.4673930000000 1.0
C      1  0.5594780000000  0.5407610000000  0.4136660000000 1.0
C      1  0.4884520000000  0.4992870000000  0.4398380000000 1.0
C      1  0.4253620000000  0.5671430000000  0.4563370000000 1.0
C      1  0.5762410000000  0.4694820000000  0.5462750000000 1.0
C      1  0.4655680000000  0.4815800000000  0.4219770000000 1.0
C      1  0.5517210000000  0.4404700000000  0.4304040000000 1.0
C      1  0.5079030000000  0.5985000000000  0.4724330000000 1.0
C      1  0.5588100000000  0.5539820000000  0.4645080000000 1.0
C      1  0.4332260000000  0.5279670000000  0.6037580000000 1.0
C      1  0.5234380000000  0.4589640000000  0.6078090000000 1.0
C      1  0.4196500000000  0.5059460000000  0.5846420000000 1.0
C      1  0.5266450000000  0.3948500000000  0.5250850000000 1.0
C      1  0.5611290000000  0.5912780000000  0.5253750000000 1.0
C      1  0.4723850000000  0.4098480000000  0.4695940000000 1.0
C      1  0.5295000000000  0.4430680000000  0.5232270000000 1.0
C      1  0.5461680000000  0.5438920000000  0.5243060000000 1.0
C      1  0.4068070000000  0.4595050000000  0.4469860000000 1.0
C      1  0.4498620000000  0.5475120000000  0.4202040000000 1.0
C      1  0.4705130000000  0.4672290000000  0.5676060000000 1.0
C      1  0.5533170000000  0.4292270000000  0.4876330000000 1.0
C      1  0.6005440000000  0.5341040000000  0.5097750000000 1.0
C      1  0.5054760000000  0.5142950000000  0.3880050000000 1.0
C      1  0.5053640000000  0.5578270000000  0.6238000000000 1.0
C      1  0.5513770000000  0.4055500000000  0.4638730000000 1.0
C      1  0.4098560000000  0.5159290000000  0.4359940000000 1.0
C      1  0.4384130000000  0.4965480000000  0.5507740000000 1.0
C      1  0.4240920000000  0.5361250000000  0.4672060000000 1.0
C      1  0.5867480000000  0.5639860000000  0.5060370000000 1.0
C      1  0.5226290000000  0.4752830000000  0.5455240000000 1.0
C      1  0.4817000000000  0.6038560000000  0.4905130000000 1.0
C      1  0.4498350000000  0.5239630000000  0.4047790000000 1.0
C      1  0.4864240000000  0.5343020000000  0.5742310000000 1.0
C      1  0.5562440000000  0.4913040000000  0.5114860000000 1.0
C      1  0.4076500000000  0.4443580000000  0.4710210000000 1.0
C      1  0.5805560000000  0.4505210000000  0.4443600000000 1.0
C      1  0.3922520000000  0.5619550000000  0.5229550000000 1.0
C      1  0.5167150000000  0.4857980000000  0.5137160000000 1.0
C      1  0.4768570000000  0.5191890000000  0.3929940000000 1.0
C      1  0.6236470000000  0.4745230000000  0.5047240000000 1.0
C      1  0.5825470000000  0.5697140000000  0.5390130000000 1.0
C      1  0.5959650000000  0.5020810000000  0.5129110000000 1.0
C      1  0.5972250000000  0.4196530000000  0.4828810000000 1.0
C      1  0.5762040000000  0.5374490000000  0.5334440000000 1.0
C      1  0.4999090000000  0.4531820000000  0.5578660000000 1.0
C      1  0.5229160000000  0.4905720000000  0.3913200000000 1.0
C      1  0.4998130000000  0.5554130000000  0.4145970000000 1.0
C      1  0.4105500000000  0.5067510000000  0.5206410000000 1.0
C      1  0.4660110000000  0.5568090000000  0.5609350000000 1.0
C      1  0.4362240000000  0.5842810000000  0.4739370000000 1.0
C      1  0.5319370000000  0.5881830000000  0.5134140000000 1.0
C      1  0.4818580000000  0.5930210000000  0.5655030000000 1.0
C      1  0.5264100000000  0.4451110000000  0.4742270000000 1.0
C      1  0.3925960000000  0.5127400000000  0.4594350000000 1.0
C      1  0.4042690000000  0.4803350000000  0.5696670000000 1.0
C      1  0.4311570000000  0.5154620000000  0.4885070000000 1.0
C      1  0.4207770000000  0.4528570000000  0.5162730000000 1.0
C      1  0.4447880000000  0.4153260000000  0.4574860000000 1.0
C      1  0.4624230000000  0.5811650000000  0.5844400000000 1.0
C      1  0.5050920000000  0.5066350000000  0.5807550000000 1.0
C      1  0.4503730000000  0.4089430000000  0.5117220000000 1.0
C      1  0.5638780000000  0.5410960000000  0.4955720000000 1.0
C      1  0.4779630000000  0.3986350000000  0.5471150000000 1.0
C      1  0.5110330000000  0.5678670000000  0.4605190000000 1.0
C      1  0.5011360000000  0.4143980000000  0.4309060000000 1.0
C      1  0.4253550000000  0.4544590000000  0.5696120000000 1.0
C      1  0.4448460000000  0.4198780000000  0.4295230000000 1.0
C      1  0.4666440000000  0.4920530000000  0.5323550000000 1.0
C      1  0.6058530000000  0.4789730000000  0.5325220000000 1.0
C      1  0.4702300000000  0.4596230000000  0.6003010000000 1.0
C      1  0.4180240000000  0.5738350000000  0.5399090000000 1.0
C      1  0.5713630000000  0.4598390000000  0.4126960000000 1.0
C      1  0.5872440000000  0.5121430000000  0.4411910000000 1.0
C      1  0.5487900000000  0.5588590000000  0.4323810000000 1.0
C      1  0.4789480000000  0.4923560000000  0.5973480000000 1.0
C      1  0.5561980000000  0.3995110000000  0.5413650000000 1.0
C      1  0.4731950000000  0.5805040000000  0.4591970000000 1.0
C      1  0.4134120000000  0.5465230000000  0.4365520000000 1.0
C      1  0.5132140000000  0.6065780000000  0.5034110000000 1.0
C      1  0.4436180000000  0.5422840000000  0.5017090000000 1.0
C      1  0.4935100000000  0.5756960000000  0.5386600000000 1.0
C      1  0.4309120000000  0.4306500000000  0.4751910000000 1.0
C      1  0.5686210000000  0.5583910000000  0.5753920000000 1.0
C      1  0.5051240000000  0.5177300000000  0.5154810000000 1.0
C      1  0.5444770000000  0.4643010000000  0.3923300000000 1.0
C      1  0.4756620000000  0.4427800000000  0.4607220000000 1.0
C      1  0.5482510000000  0.5238780000000  0.4527090000000 1.0
C      1  0.6125490000000  0.4848310000000  0.4810520000000 1.0
C      1  0.5300990000000  0.4848180000000  0.4233300000000 1.0
C      1  0.4530460000000  0.5269720000000  0.5536500000000 1.0
C      1  0.4987350000000  0.4018410000000  0.4554150000000 1.0
C      1  0.5390270000000  0.4648270000000  0.4988950000000 1.0
C      1  0.4079200000000  0.5452420000000  0.5554720000000 1.0
C      1  0.5206380000000  0.5320330000000  0.4103180000000 1.0
C      1  0.5417580000000  0.4811540000000  0.4614580000000 1.0
C      1  0.5920570000000  0.5539950000000  0.4583150000000 1.0
C      1  0.5677620000000  0.4978440000000  0.4626050000000 1.0
C      1  0.4723110000000  0.5835730000000  0.5149200000000 1.0
C      1  0.5483910000000  0.4587370000000  0.5625580000000 1.0
C      1  0.5199640000000  0.5119630000000  0.4380240000000 1.0
C      1  0.4425670000000  0.4809670000000  0.5803750000000 1.0
END
