TITL C-2847948-6138-296 -0.00355846952658385 125000 -514.439040898392 0 0 96 (C1) n - 1
REM
REM in /home/bkarasulu/work/CARBON/AIRSS/Generating-Clusters/AIREBO/with-SteepDescent/Only-C1/SD-CG-opt/Try1-1.4A-POS3A/HFTN-CG
REM
REM
REM
REM
REM
REM ./C.cell (11c1c37f851c82e70ff6c80c92926a4b)
REM
REM compiler GCC version 9.2.1 20190827 (Red Hat 9.2.1-1)
REM options -cpp -mtune=generic -march=x86-64 -g -O0 -fpre-include=/usr/include/finclude/math-vector-fortran.h
REM seed -1731212500 2072509436 799268125 -1371868823 2123018228 -1891777504 64766473 1273798096 956905634 763463291 -1499105486 -226734288 -1639648262 -322611624 322436107 1039971350 1755241005 -1407411939 -1524243330 -1048346271 780557932 290696038 669054316 1830675352 -94177544 330645218 -460655227 -1943030954 -1741057625 23598126 -248726478 805510967 -1288360039
REM
CELL 1.54180   50.00000   50.00000   50.00000   90.00000   90.00000   90.00000
LATT -1
SFAC C  
C      1  0.5543650000000  0.4632910000000  0.4994900000000 1.0
C      1  0.4837570000000  0.4902030000000  0.5067110000000 1.0
C      1  0.4748920000000  0.5260660000000  0.4917110000000 1.0
C      1  0.5436170000000  0.4956700000000  0.4665010000000 1.0
C      1  0.5194320000000  0.5303670000000  0.5780540000000 1.0
C      1  0.5546550000000  0.4538910000000  0.5480360000000 1.0
C      1  0.4305600000000  0.4724880000000  0.5478450000000 1.0
C      1  0.4278750000000  0.4643090000000  0.4847800000000 1.0
C      1  0.4907320000000  0.5254280000000  0.5605040000000 1.0
C      1  0.4448110000000  0.4826010000000  0.5077700000000 1.0
C      1  0.4315730000000  0.5469520000000  0.5207590000000 1.0
C      1  0.5455970000000  0.4617130000000  0.5742570000000 1.0
C      1  0.4904810000000  0.5570010000000  0.5545650000000 1.0
C      1  0.4268090000000  0.5203290000000  0.4483370000000 1.0
C      1  0.4657130000000  0.5734050000000  0.5393210000000 1.0
C      1  0.5562900000000  0.4487590000000  0.4351330000000 1.0
C      1  0.4506230000000  0.5376130000000  0.4387480000000 1.0
C      1  0.4866260000000  0.4215040000000  0.5291470000000 1.0
C      1  0.4244390000000  0.5437700000000  0.4681920000000 1.0
C      1  0.4477980000000  0.4383510000000  0.4696580000000 1.0
C      1  0.5127180000000  0.5027020000000  0.4053880000000 1.0
C      1  0.5339300000000  0.4732690000000  0.4427930000000 1.0
C      1  0.4952500000000  0.4452010000000  0.5742140000000 1.0
C      1  0.5587180000000  0.5439520000000  0.4545340000000 1.0
C      1  0.5452280000000  0.4251160000000  0.5437250000000 1.0
C      1  0.4148350000000  0.4814760000000  0.5227180000000 1.0
C      1  0.5232590000000  0.5063850000000  0.5472520000000 1.0
C      1  0.4760880000000  0.4592820000000  0.5131110000000 1.0
C      1  0.5504960000000  0.5546330000000  0.5394710000000 1.0
C      1  0.4787710000000  0.4436520000000  0.4752140000000 1.0
C      1  0.5589750000000  0.5426610000000  0.5106850000000 1.0
C      1  0.4115180000000  0.4974090000000  0.4927060000000 1.0
C      1  0.4232380000000  0.5291820000000  0.4961060000000 1.0
C      1  0.4738160000000  0.4315490000000  0.5522250000000 1.0
C      1  0.5939540000000  0.4960600000000  0.4879560000000 1.0
C      1  0.4696100000000  0.5698900000000  0.4677470000000 1.0
C      1  0.4495040000000  0.4447400000000  0.5489520000000 1.0
C      1  0.5117760000000  0.4778650000000  0.4229520000000 1.0
C      1  0.4849750000000  0.5125880000000  0.4651720000000 1.0
C      1  0.4526810000000  0.5652070000000  0.5155370000000 1.0
C      1  0.5390870000000  0.5527580000000  0.4341400000000 1.0
C      1  0.5799470000000  0.4666300000000  0.4910770000000 1.0
C      1  0.4252590000000  0.4968410000000  0.4634100000000 1.0
C      1  0.5223940000000  0.5466860000000  0.5485780000000 1.0
C      1  0.4772250000000  0.4751670000000  0.4768630000000 1.0
C      1  0.4838420000000  0.5133850000000  0.4112280000000 1.0
C      1  0.5192340000000  0.5544760000000  0.4685570000000 1.0
C      1  0.5059640000000  0.5151110000000  0.5001830000000 1.0
C      1  0.4966910000000  0.5644250000000  0.5106990000000 1.0
C      1  0.4808450000000  0.4791010000000  0.5489620000000 1.0
C      1  0.5102900000000  0.4330400000000  0.4667310000000 1.0
C      1  0.4334020000000  0.5404710000000  0.5490530000000 1.0
C      1  0.4319240000000  0.4302470000000  0.5048590000000 1.0
C      1  0.5072350000000  0.5407230000000  0.5221610000000 1.0
C      1  0.5660310000000  0.5709120000000  0.5527450000000 1.0
C      1  0.5215790000000  0.4341460000000  0.5580400000000 1.0
C      1  0.4992820000000  0.4301820000000  0.4987810000000 1.0
C      1  0.4932500000000  0.5626930000000  0.4504630000000 1.0
C      1  0.5141030000000  0.5855420000000  0.5047220000000 1.0
C      1  0.5025520000000  0.4575410000000  0.5430190000000 1.0
C      1  0.4570700000000  0.5527260000000  0.5615000000000 1.0
C      1  0.5852430000000  0.5204370000000  0.5100700000000 1.0
C      1  0.4842510000000  0.5322010000000  0.4383910000000 1.0
C      1  0.4453680000000  0.4503020000000  0.5184070000000 1.0
C      1  0.5484690000000  0.5129000000000  0.5233430000000 1.0
C      1  0.5349350000000  0.5194870000000  0.4125350000000 1.0
C      1  0.5099330000000  0.4604870000000  0.5099570000000 1.0
C      1  0.5195250000000  0.5732110000000  0.4333880000000 1.0
C      1  0.5953100000000  0.5060130000000  0.4583470000000 1.0
C      1  0.5273800000000  0.4704190000000  0.4824960000000 1.0
C      1  0.5195860000000  0.4681580000000  0.5803880000000 1.0
C      1  0.5616650000000  0.5020800000000  0.4938360000000 1.0
C      1  0.5179240000000  0.5275320000000  0.4392780000000 1.0
C      1  0.4723810000000  0.5572860000000  0.4942820000000 1.0
C      1  0.4453490000000  0.5630700000000  0.4556030000000 1.0
C      1  0.5522120000000  0.5536370000000  0.4837480000000 1.0
C      1  0.5229870000000  0.5220050000000  0.4725790000000 1.0
C      1  0.4496950000000  0.4794840000000  0.4661720000000 1.0
C      1  0.5232250000000  0.4910230000000  0.5169110000000 1.0
C      1  0.5772860000000  0.5094730000000  0.5407110000000 1.0
C      1  0.4806380000000  0.4815780000000  0.4155100000000 1.0
C      1  0.4558490000000  0.4816120000000  0.5628670000000 1.0
C      1  0.5665200000000  0.5136730000000  0.4488810000000 1.0
C      1  0.5134690000000  0.4968900000000  0.5766700000000 1.0
C      1  0.4497990000000  0.5120660000000  0.5019960000000 1.0
C      1  0.4390030000000  0.4247800000000  0.4488150000000 1.0
C      1  0.4600900000000  0.4955580000000  0.5871520000000 1.0
C      1  0.5607090000000  0.5137700000000  0.4181170000000 1.0
C      1  0.5394110000000  0.4045660000000  0.5256590000000 1.0
C      1  0.5310530000000  0.4406950000000  0.4521050000000 1.0
C      1  0.5131450000000  0.4043390000000  0.5159980000000 1.0
C      1  0.5317530000000  0.5787710000000  0.4853310000000 1.0
C      1  0.4913500000000  0.5056510000000  0.5360760000000 1.0
C      1  0.4838070000000  0.5089670000000  0.5879000000000 1.0
C      1  0.5489660000000  0.4711400000000  0.5268650000000 1.0
C      1  0.5045290000000  0.4874120000000  0.4658700000000 1.0
END
