TITL C-2847955-7945-210 0.000204506215968855 125000 -294.01465188215 0 0 53 (C1) n - 1
REM
REM in /home/bkarasulu/work/CARBON/AIRSS/Generating-Clusters/AIREBO/with-SteepDescent/Only-C1/SD-CG-opt/Try1-1.4A-POS3A/HFTN-CG
REM
REM
REM
REM
REM
REM ./C.cell (11c1c37f851c82e70ff6c80c92926a4b)
REM
REM compiler GCC version 9.2.1 20190827 (Red Hat 9.2.1-1)
REM options -cpp -mtune=generic -march=x86-64 -g -O0 -fpre-include=/usr/include/finclude/math-vector-fortran.h
REM seed 1029216250 483118472 1812045045 733118894 1694931159 122651972 -402230692 724475272 851114117 476417563 -1182127019 1398481890 2014789494 -1534845558 -1369425754 1813785366 -1095497426 730545501 -1753135970 1561780776 -1259613797 778297438 -1094128079 -1718121164 -140539972 900536116 -1260640266 1947629775 -934271705 964117965 1800688245 879714313 96026328
REM
CELL 1.54180   50.00000   50.00000   50.00000   90.00000   90.00000   90.00000
LATT -1
SFAC C  
C      1  0.4790300000000  0.5679220000000  0.5002850000000 1.0
C      1  0.5467780000000  0.5012750000000  0.4813270000000 1.0
C      1  0.4503750000000  0.5512320000000  0.5400890000000 1.0
C      1  0.4496110000000  0.4762800000000  0.5663970000000 1.0
C      1  0.4309830000000  0.5316150000000  0.5356890000000 1.0
C      1  0.4949370000000  0.5286660000000  0.5313550000000 1.0
C      1  0.4680270000000  0.5497800000000  0.4557550000000 1.0
C      1  0.4527530000000  0.4874630000000  0.5369520000000 1.0
C      1  0.5054340000000  0.5056380000000  0.4779380000000 1.0
C      1  0.5575920000000  0.5630650000000  0.5658000000000 1.0
C      1  0.4850220000000  0.4962180000000  0.5336060000000 1.0
C      1  0.5112840000000  0.5373100000000  0.4708700000000 1.0
C      1  0.5486010000000  0.5481990000000  0.5455790000000 1.0
C      1  0.5612320000000  0.5212040000000  0.4949320000000 1.0
C      1  0.5439340000000  0.4419750000000  0.4771960000000 1.0
C      1  0.5427930000000  0.4638760000000  0.4948030000000 1.0
C      1  0.5180940000000  0.4962730000000  0.5292550000000 1.0
C      1  0.5614330000000  0.5026000000000  0.4349200000000 1.0
C      1  0.4751080000000  0.4669840000000  0.4964360000000 1.0
C      1  0.5299770000000  0.4362100000000  0.5780550000000 1.0
C      1  0.5764960000000  0.5125250000000  0.4159060000000 1.0
C      1  0.5548730000000  0.5339340000000  0.5184980000000 1.0
C      1  0.5343090000000  0.5483360000000  0.4599270000000 1.0
C      1  0.4764490000000  0.5226390000000  0.5052420000000 1.0
C      1  0.4654070000000  0.4944360000000  0.4490350000000 1.0
C      1  0.5653100000000  0.5797040000000  0.5845230000000 1.0
C      1  0.4513770000000  0.4595750000000  0.5183880000000 1.0
C      1  0.4415600000000  0.5338080000000  0.4699130000000 1.0
C      1  0.5438270000000  0.4942050000000  0.4545320000000 1.0
C      1  0.5289300000000  0.4767900000000  0.5513050000000 1.0
C      1  0.5050130000000  0.4329110000000  0.4766660000000 1.0
C      1  0.5235350000000  0.4750500000000  0.4487270000000 1.0
C      1  0.4895410000000  0.4519360000000  0.5562660000000 1.0
C      1  0.4360230000000  0.5085630000000  0.5215380000000 1.0
C      1  0.5239440000000  0.4895840000000  0.5006040000000 1.0
C      1  0.5324000000000  0.4483630000000  0.4520000000000 1.0
C      1  0.5260550000000  0.5270160000000  0.5342840000000 1.0
C      1  0.5550170000000  0.5582500000000  0.4472630000000 1.0
C      1  0.5168580000000  0.4537810000000  0.5625100000000 1.0
C      1  0.4932300000000  0.4818140000000  0.4569350000000 1.0
C      1  0.4429660000000  0.5067620000000  0.4905860000000 1.0
C      1  0.4595810000000  0.5428700000000  0.4947410000000 1.0
C      1  0.4591360000000  0.4346240000000  0.4543950000000 1.0
C      1  0.4833980000000  0.4630750000000  0.5292700000000 1.0
C      1  0.4763250000000  0.5548110000000  0.5288400000000 1.0
C      1  0.4751940000000  0.4959270000000  0.4896730000000 1.0
C      1  0.4676790000000  0.4564370000000  0.5737380000000 1.0
C      1  0.4898000000000  0.5559170000000  0.4725240000000 1.0
C      1  0.4449690000000  0.4844770000000  0.4663030000000 1.0
C      1  0.4609900000000  0.5213150000000  0.4444770000000 1.0
C      1  0.4468720000000  0.4572520000000  0.4699240000000 1.0
C      1  0.4837660000000  0.4507830000000  0.4713730000000 1.0
C      1  0.5561730000000  0.4187440000000  0.4828540000000 1.0
END
