TITL C-2848496-4490-351 -0.000290097897195681 125000 -949.295145724412 0 0 173 (C1) n - 1
REM
REM in /home/bkarasulu/work/CARBON/AIRSS/Generating-Clusters/AIREBO/with-SteepDescent/Only-C1/SD-CG-opt/Try1-1.4A-POS3A/HFTN-CG
REM
REM
REM
REM
REM
REM ./C.cell (11c1c37f851c82e70ff6c80c92926a4b)
REM
REM compiler GCC version 9.2.1 20190827 (Red Hat 9.2.1-1)
REM options -cpp -mtune=generic -march=x86-64 -g -O0 -fpre-include=/usr/include/finclude/math-vector-fortran.h
REM seed 1733656590 -1965817456 -1157079015 1289050449 1139517764 1641024350 1365089538 -1404286017 360960891 -1140334459 908962969 -1126164664 725820535 -133332687 1552676668 570275912 644709148 856002028 -17409219 1181275710 -1269926133 1909503704 -1552482542 1315862261 884411719 -417220876 -1468054086 55152715 -1698854034 2105690091 608192878 -857790875 2139806812
REM
CELL 1.54180   50.00000   50.00000   50.00000   90.00000   90.00000   90.00000
LATT -1
SFAC C  
C      1  0.4872860000000  0.4084490000000  0.4306850000000 1.0
C      1  0.4311130000000  0.4755960000000  0.4843840000000 1.0
C      1  0.5629930000000  0.4499470000000  0.5000690000000 1.0
C      1  0.4631490000000  0.4833960000000  0.4050650000000 1.0
C      1  0.4653890000000  0.4437150000000  0.4092350000000 1.0
C      1  0.5334560000000  0.4401550000000  0.4601140000000 1.0
C      1  0.4964350000000  0.4542460000000  0.4171680000000 1.0
C      1  0.6028390000000  0.4381940000000  0.4495830000000 1.0
C      1  0.5882130000000  0.4936690000000  0.4544310000000 1.0
C      1  0.5737260000000  0.4181140000000  0.4946490000000 1.0
C      1  0.5615990000000  0.5382520000000  0.5877420000000 1.0
C      1  0.4330070000000  0.4283820000000  0.4575320000000 1.0
C      1  0.4363550000000  0.4864400000000  0.5105970000000 1.0
C      1  0.5173830000000  0.4112030000000  0.5459680000000 1.0
C      1  0.4293300000000  0.5432860000000  0.5807570000000 1.0
C      1  0.5063870000000  0.5788390000000  0.4023480000000 1.0
C      1  0.5263820000000  0.4782270000000  0.4989030000000 1.0
C      1  0.5612420000000  0.4589010000000  0.5329900000000 1.0
C      1  0.5136480000000  0.5163720000000  0.5144670000000 1.0
C      1  0.5375020000000  0.4911930000000  0.5919380000000 1.0
C      1  0.4949500000000  0.5018730000000  0.5590120000000 1.0
C      1  0.4495140000000  0.4752410000000  0.5592170000000 1.0
C      1  0.5022940000000  0.4258080000000  0.5230810000000 1.0
C      1  0.4714160000000  0.6016860000000  0.5053360000000 1.0
C      1  0.5065980000000  0.4254760000000  0.4214660000000 1.0
C      1  0.4027510000000  0.5088430000000  0.4719970000000 1.0
C      1  0.4022870000000  0.4386730000000  0.4960060000000 1.0
C      1  0.4130610000000  0.5688320000000  0.4126460000000 1.0
C      1  0.4755260000000  0.4711920000000  0.4761760000000 1.0
C      1  0.4961340000000  0.4890460000000  0.4912920000000 1.0
C      1  0.3994740000000  0.4812770000000  0.5479130000000 1.0
C      1  0.4793760000000  0.5388810000000  0.4784670000000 1.0
C      1  0.4301640000000  0.4300770000000  0.5496450000000 1.0
C      1  0.4558890000000  0.5153070000000  0.4807040000000 1.0
C      1  0.4910000000000  0.4480120000000  0.4598000000000 1.0
C      1  0.4106320000000  0.5607460000000  0.5629080000000 1.0
C      1  0.5257170000000  0.5998810000000  0.4609110000000 1.0
C      1  0.6129110000000  0.4629570000000  0.5239710000000 1.0
C      1  0.5878780000000  0.5738600000000  0.4915870000000 1.0
C      1  0.3832720000000  0.5227430000000  0.4867610000000 1.0
C      1  0.4781740000000  0.5022570000000  0.4290350000000 1.0
C      1  0.5522000000000  0.5896170000000  0.5115250000000 1.0
C      1  0.4643790000000  0.4621820000000  0.5939600000000 1.0
C      1  0.4371150000000  0.5677970000000  0.5107750000000 1.0
C      1  0.4247810000000  0.5068680000000  0.4389290000000 1.0
C      1  0.4609110000000  0.4712430000000  0.4470460000000 1.0
C      1  0.4101020000000  0.5270230000000  0.5286250000000 1.0
C      1  0.4247340000000  0.5531890000000  0.4642950000000 1.0
C      1  0.5595370000000  0.5153990000000  0.4999540000000 1.0
C      1  0.4623980000000  0.4337820000000  0.4714640000000 1.0
C      1  0.4441720000000  0.4915210000000  0.4622760000000 1.0
C      1  0.5093170000000  0.5951070000000  0.5648180000000 1.0
C      1  0.4958960000000  0.5544430000000  0.4085430000000 1.0
C      1  0.4429160000000  0.4971340000000  0.5354730000000 1.0
C      1  0.4352720000000  0.5526730000000  0.4139210000000 1.0
C      1  0.5209150000000  0.5697830000000  0.5488380000000 1.0
C      1  0.4154360000000  0.5580600000000  0.5351730000000 1.0
C      1  0.5740760000000  0.4721800000000  0.4766840000000 1.0
C      1  0.6134620000000  0.5257660000000  0.4855350000000 1.0
C      1  0.4709020000000  0.5305180000000  0.4465650000000 1.0
C      1  0.5510290000000  0.5402510000000  0.5182720000000 1.0
C      1  0.4695340000000  0.5585470000000  0.5045610000000 1.0
C      1  0.5616040000000  0.4276880000000  0.4670530000000 1.0
C      1  0.4574800000000  0.5837390000000  0.5488740000000 1.0
C      1  0.5334610000000  0.4161060000000  0.4283040000000 1.0
C      1  0.4756640000000  0.5371640000000  0.6056780000000 1.0
C      1  0.4431290000000  0.5294210000000  0.5363550000000 1.0
C      1  0.5834710000000  0.5501740000000  0.5156270000000 1.0
C      1  0.5060500000000  0.4196710000000  0.5711610000000 1.0
C      1  0.4787340000000  0.6286650000000  0.5046180000000 1.0
C      1  0.5127130000000  0.5472000000000  0.5729050000000 1.0
C      1  0.5092400000000  0.4525630000000  0.5631340000000 1.0
C      1  0.6076290000000  0.4701730000000  0.4980720000000 1.0
C      1  0.4759380000000  0.4550050000000  0.5566770000000 1.0
C      1  0.4832870000000  0.5334530000000  0.5627910000000 1.0
C      1  0.5047780000000  0.5033590000000  0.4622040000000 1.0
C      1  0.4676920000000  0.3924910000000  0.5064740000000 1.0
C      1  0.5610970000000  0.4147430000000  0.4238990000000 1.0
C      1  0.4517600000000  0.5477370000000  0.3920870000000 1.0
C      1  0.4757240000000  0.5365250000000  0.5297400000000 1.0
C      1  0.4746540000000  0.4968460000000  0.5370860000000 1.0
C      1  0.5300390000000  0.4456720000000  0.4928440000000 1.0
C      1  0.5116980000000  0.5293160000000  0.4830820000000 1.0
C      1  0.4749490000000  0.5114630000000  0.5067660000000 1.0
C      1  0.5023380000000  0.4956090000000  0.6100810000000 1.0
C      1  0.5124750000000  0.5048250000000  0.4036530000000 1.0
C      1  0.5289360000000  0.5527990000000  0.5006540000000 1.0
C      1  0.5195300000000  0.5514520000000  0.4584830000000 1.0
C      1  0.4728290000000  0.4484450000000  0.5088310000000 1.0
C      1  0.6031300000000  0.4547320000000  0.4723330000000 1.0
C      1  0.5287800000000  0.4680030000000  0.4475530000000 1.0
C      1  0.5286570000000  0.4646240000000  0.6018170000000 1.0
C      1  0.4095140000000  0.5221450000000  0.4159190000000 1.0
C      1  0.4085570000000  0.4552450000000  0.4740110000000 1.0
C      1  0.5666490000000  0.5250390000000  0.5572860000000 1.0
C      1  0.5103080000000  0.5790330000000  0.4689060000000 1.0
C      1  0.4062700000000  0.4825420000000  0.4538710000000 1.0
C      1  0.5361600000000  0.5266870000000  0.5456820000000 1.0
C      1  0.5781070000000  0.4251380000000  0.4443110000000 1.0
C      1  0.4262850000000  0.5246650000000  0.4746460000000 1.0
C      1  0.5973730000000  0.5221910000000  0.4626230000000 1.0
C      1  0.5660850000000  0.5668100000000  0.5768890000000 1.0
C      1  0.4447770000000  0.4615170000000  0.4224020000000 1.0
C      1  0.5260880000000  0.5131100000000  0.6074420000000 1.0
C      1  0.5000260000000  0.5411900000000  0.4352970000000 1.0
C      1  0.4998050000000  0.4807970000000  0.5795820000000 1.0
C      1  0.5300370000000  0.4962210000000  0.3860850000000 1.0
C      1  0.5982860000000  0.4998790000000  0.5282670000000 1.0
C      1  0.5896270000000  0.4714690000000  0.5451420000000 1.0
C      1  0.5660070000000  0.5922480000000  0.4873860000000 1.0
C      1  0.3934120000000  0.5861730000000  0.4122180000000 1.0
C      1  0.5396910000000  0.4959930000000  0.5605060000000 1.0
C      1  0.5678430000000  0.5069050000000  0.5318820000000 1.0
C      1  0.4404240000000  0.5369990000000  0.4395250000000 1.0
C      1  0.6048630000000  0.5278980000000  0.5114260000000 1.0
C      1  0.4209000000000  0.4542130000000  0.4420460000000 1.0
C      1  0.5167820000000  0.4106390000000  0.4575030000000 1.0
C      1  0.5902200000000  0.4845860000000  0.4215230000000 1.0
C      1  0.5639810000000  0.4977700000000  0.4331250000000 1.0
C      1  0.5670830000000  0.5749740000000  0.5298690000000 1.0
C      1  0.4534740000000  0.5903620000000  0.5227220000000 1.0
C      1  0.4868670000000  0.4697850000000  0.3884800000000 1.0
C      1  0.5178150000000  0.6141950000000  0.5255550000000 1.0
C      1  0.4233200000000  0.5085330000000  0.5954130000000 1.0
C      1  0.5853180000000  0.4958290000000  0.4979040000000 1.0
C      1  0.5325070000000  0.5371650000000  0.5958470000000 1.0
C      1  0.5794910000000  0.5435190000000  0.4546570000000 1.0
C      1  0.5410900000000  0.5136630000000  0.4761580000000 1.0
C      1  0.5752630000000  0.5073980000000  0.5842400000000 1.0
C      1  0.4825610000000  0.5100930000000  0.3967220000000 1.0
C      1  0.4574300000000  0.5242300000000  0.5830560000000 1.0
C      1  0.5448450000000  0.4179590000000  0.5448890000000 1.0
C      1  0.4971580000000  0.4370970000000  0.4914120000000 1.0
C      1  0.5475560000000  0.4847320000000  0.5225020000000 1.0
C      1  0.5521830000000  0.5444740000000  0.4517710000000 1.0
C      1  0.4952060000000  0.4623750000000  0.6077880000000 1.0
C      1  0.4556480000000  0.4369610000000  0.5755440000000 1.0
C      1  0.4489050000000  0.5525890000000  0.5563430000000 1.0
C      1  0.3968920000000  0.5410240000000  0.5038640000000 1.0
C      1  0.5203230000000  0.5814160000000  0.5168710000000 1.0
C      1  0.4445230000000  0.4481220000000  0.4965850000000 1.0
C      1  0.4218010000000  0.4411680000000  0.5192270000000 1.0
C      1  0.4963290000000  0.4768660000000  0.4425800000000 1.0
C      1  0.5314040000000  0.4119960000000  0.4883500000000 1.0
C      1  0.5170780000000  0.4909830000000  0.5356030000000 1.0
C      1  0.5468690000000  0.4852450000000  0.3692580000000 1.0
C      1  0.4844980000000  0.4748300000000  0.5189720000000 1.0
C      1  0.5580720000000  0.4173980000000  0.5221690000000 1.0
C      1  0.4358510000000  0.4016580000000  0.4681870000000 1.0
C      1  0.4934340000000  0.5812250000000  0.4960630000000 1.0
C      1  0.4499820000000  0.4912730000000  0.5868860000000 1.0
C      1  0.5422150000000  0.4469440000000  0.5569170000000 1.0
C      1  0.5939860000000  0.3994110000000  0.4928950000000 1.0
C      1  0.4774570000000  0.5667420000000  0.5666280000000 1.0
C      1  0.4592710000000  0.4201020000000  0.5462400000000 1.0
C      1  0.5433770000000  0.5152170000000  0.4435180000000 1.0
C      1  0.5680000000000  0.4791820000000  0.5690650000000 1.0
C      1  0.5536620000000  0.5718200000000  0.5535280000000 1.0
C      1  0.4612870000000  0.3946030000000  0.4790950000000 1.0
C      1  0.5430000000000  0.4820420000000  0.4710090000000 1.0
C      1  0.4149600000000  0.5589890000000  0.4916860000000 1.0
C      1  0.3954680000000  0.5051750000000  0.5433570000000 1.0
C      1  0.5522300000000  0.4547350000000  0.5855460000000 1.0
C      1  0.4226650000000  0.4618660000000  0.5463030000000 1.0
C      1  0.5161900000000  0.5136680000000  0.4318670000000 1.0
C      1  0.4781610000000  0.5392510000000  0.3930020000000 1.0
C      1  0.4750570000000  0.4102060000000  0.5271530000000 1.0
C      1  0.5521250000000  0.6050260000000  0.4667540000000 1.0
C      1  0.5091050000000  0.5418460000000  0.5334590000000 1.0
C      1  0.5028760000000  0.6349580000000  0.5162520000000 1.0
C      1  0.4837530000000  0.4089190000000  0.4623450000000 1.0
C      1  0.5086390000000  0.4585080000000  0.5299870000000 1.0
C      1  0.4946630000000  0.5525640000000  0.5997800000000 1.0
END
