TITL C-2847956-8218-297 0.00140023286033042 125000 -857.533763346557 0 0 159 (C1) n - 1
REM
REM in /home/bkarasulu/work/CARBON/AIRSS/Generating-Clusters/AIREBO/with-SteepDescent/Only-C1/SD-CG-opt/Try1-1.4A-POS3A/HFTN-CG
REM
REM
REM
REM
REM
REM ./C.cell (11c1c37f851c82e70ff6c80c92926a4b)
REM
REM compiler GCC version 9.2.1 20190827 (Red Hat 9.2.1-1)
REM options -cpp -mtune=generic -march=x86-64 -g -O0 -fpre-include=/usr/include/finclude/math-vector-fortran.h
REM seed -250205424 2114363344 -259883935 -1399574743 1842215809 -1892980186 201463977 2040374698 -613086370 272442792 -1033586760 -18050732 1335067885 -1965829001 -1972284639 104958870 -154938697 1627922702 1430393164 -1307098370 610880865 -1163994669 600945329 -518559578 1185487765 -923241 2060630586 1495591527 2050755993 315408112 231553427 -1014348972 -1602208958
REM
CELL 1.54180   50.00000   50.00000   50.00000   90.00000   90.00000   90.00000
LATT -1
SFAC C  
C      1  0.5470040000000  0.5204220000000  0.5634680000000 1.0
C      1  0.4475220000000  0.4649670000000  0.4952210000000 1.0
C      1  0.5641780000000  0.4466950000000  0.5106960000000 1.0
C      1  0.5105720000000  0.5976540000000  0.5395180000000 1.0
C      1  0.4985660000000  0.5366220000000  0.5209810000000 1.0
C      1  0.4112250000000  0.4572900000000  0.4712680000000 1.0
C      1  0.5033020000000  0.5212840000000  0.4727420000000 1.0
C      1  0.5129240000000  0.4531860000000  0.4358730000000 1.0
C      1  0.4796450000000  0.5945590000000  0.4698050000000 1.0
C      1  0.4758310000000  0.5467560000000  0.4994610000000 1.0
C      1  0.5704160000000  0.5126310000000  0.3995870000000 1.0
C      1  0.4449840000000  0.5232500000000  0.4371500000000 1.0
C      1  0.4257780000000  0.4334470000000  0.4762060000000 1.0
C      1  0.5536760000000  0.5509210000000  0.4776400000000 1.0
C      1  0.5109530000000  0.4279470000000  0.4147370000000 1.0
C      1  0.5213850000000  0.4945880000000  0.5083510000000 1.0
C      1  0.5574220000000  0.4747810000000  0.4246290000000 1.0
C      1  0.4247760000000  0.5370730000000  0.4575870000000 1.0
C      1  0.3907050000000  0.4947740000000  0.4918030000000 1.0
C      1  0.4795580000000  0.4724000000000  0.4136310000000 1.0
C      1  0.4618600000000  0.4038780000000  0.4801060000000 1.0
C      1  0.4570750000000  0.4031290000000  0.5413110000000 1.0
C      1  0.5299730000000  0.4800280000000  0.4788450000000 1.0
C      1  0.5351730000000  0.5219080000000  0.4978950000000 1.0
C      1  0.4065180000000  0.4898390000000  0.4419320000000 1.0
C      1  0.5287940000000  0.5908210000000  0.4888490000000 1.0
C      1  0.5109540000000  0.5284580000000  0.5458280000000 1.0
C      1  0.4824320000000  0.4551360000000  0.5247450000000 1.0
C      1  0.5184610000000  0.5618750000000  0.4389090000000 1.0
C      1  0.4818070000000  0.5067670000000  0.4337770000000 1.0
C      1  0.5653610000000  0.4402200000000  0.5380660000000 1.0
C      1  0.5382810000000  0.5942700000000  0.5367410000000 1.0
C      1  0.4313720000000  0.5678820000000  0.5752380000000 1.0
C      1  0.5012530000000  0.5480110000000  0.4167020000000 1.0
C      1  0.4580020000000  0.4986380000000  0.4523960000000 1.0
C      1  0.5808740000000  0.5171730000000  0.5611880000000 1.0
C      1  0.5388500000000  0.5074990000000  0.4608570000000 1.0
C      1  0.4558510000000  0.4241960000000  0.5637990000000 1.0
C      1  0.5059320000000  0.4665820000000  0.5965520000000 1.0
C      1  0.4810160000000  0.4596470000000  0.5854650000000 1.0
C      1  0.4514560000000  0.4099740000000  0.5117110000000 1.0
C      1  0.4571260000000  0.5811350000000  0.4914570000000 1.0
C      1  0.5934730000000  0.4578290000000  0.4816490000000 1.0
C      1  0.4980460000000  0.5180260000000  0.5744600000000 1.0
C      1  0.4675850000000  0.4957060000000  0.4848880000000 1.0
C      1  0.5891850000000  0.5371850000000  0.4925600000000 1.0
C      1  0.4183980000000  0.4582400000000  0.5481640000000 1.0
C      1  0.4344650000000  0.4804130000000  0.4688480000000 1.0
C      1  0.6007630000000  0.5085270000000  0.5389980000000 1.0
C      1  0.4722460000000  0.5220580000000  0.5526640000000 1.0
C      1  0.4324790000000  0.5234130000000  0.5139100000000 1.0
C      1  0.5483970000000  0.5437570000000  0.5164800000000 1.0
C      1  0.4768100000000  0.6024990000000  0.5420040000000 1.0
C      1  0.6040460000000  0.4731830000000  0.5432280000000 1.0
C      1  0.6057420000000  0.4877420000000  0.5125460000000 1.0
C      1  0.4566430000000  0.5275190000000  0.4799760000000 1.0
C      1  0.5552710000000  0.5548160000000  0.4255970000000 1.0
C      1  0.3900980000000  0.5016820000000  0.5225700000000 1.0
C      1  0.4564620000000  0.5274090000000  0.5795530000000 1.0
C      1  0.5201980000000  0.5488510000000  0.4832630000000 1.0
C      1  0.5235070000000  0.5664800000000  0.5119970000000 1.0
C      1  0.5789400000000  0.4392810000000  0.4633620000000 1.0
C      1  0.4572890000000  0.5291190000000  0.4118940000000 1.0
C      1  0.3881090000000  0.4687410000000  0.4827970000000 1.0
C      1  0.5614280000000  0.4967240000000  0.5273150000000 1.0
C      1  0.5408440000000  0.5391050000000  0.4506290000000 1.0
C      1  0.5363680000000  0.4597370000000  0.4550350000000 1.0
C      1  0.5549480000000  0.5395970000000  0.4033060000000 1.0
C      1  0.4808470000000  0.5927390000000  0.5096810000000 1.0
C      1  0.4576810000000  0.5556570000000  0.5810150000000 1.0
C      1  0.4947140000000  0.5691580000000  0.5298810000000 1.0
C      1  0.5749620000000  0.4777760000000  0.5020640000000 1.0
C      1  0.6095250000000  0.5129230000000  0.4900090000000 1.0
C      1  0.5720440000000  0.4982980000000  0.5847710000000 1.0
C      1  0.5207220000000  0.4043440000000  0.4611750000000 1.0
C      1  0.4822980000000  0.4393640000000  0.4142600000000 1.0
C      1  0.5433720000000  0.4313460000000  0.4949080000000 1.0
C      1  0.5338900000000  0.4744990000000  0.5693710000000 1.0
C      1  0.5216240000000  0.4257540000000  0.5655690000000 1.0
C      1  0.5791530000000  0.5356120000000  0.4611240000000 1.0
C      1  0.4880690000000  0.4050940000000  0.5279550000000 1.0
C      1  0.4538690000000  0.4712280000000  0.5337670000000 1.0
C      1  0.5068000000000  0.5508320000000  0.5701220000000 1.0
C      1  0.4517120000000  0.4701150000000  0.5829630000000 1.0
C      1  0.4298980000000  0.4538010000000  0.5204950000000 1.0
C      1  0.5745070000000  0.5680330000000  0.4983700000000 1.0
C      1  0.5788880000000  0.5087040000000  0.4507600000000 1.0
C      1  0.4507690000000  0.4246510000000  0.4637480000000 1.0
C      1  0.5798010000000  0.4604030000000  0.5515750000000 1.0
C      1  0.4384630000000  0.5011890000000  0.5855450000000 1.0
C      1  0.3892910000000  0.5355040000000  0.5266010000000 1.0
C      1  0.4378690000000  0.5660220000000  0.4454800000000 1.0
C      1  0.5046270000000  0.6097820000000  0.4965490000000 1.0
C      1  0.4276880000000  0.4285570000000  0.5039610000000 1.0
C      1  0.4438230000000  0.5581440000000  0.4772710000000 1.0
C      1  0.6095110000000  0.4865020000000  0.4728790000000 1.0
C      1  0.4735920000000  0.5525510000000  0.4110980000000 1.0
C      1  0.5324610000000  0.4115400000000  0.5176970000000 1.0
C      1  0.4886220000000  0.4750180000000  0.4680520000000 1.0
C      1  0.4035870000000  0.5131800000000  0.4664830000000 1.0
C      1  0.4927970000000  0.5106840000000  0.5013090000000 1.0
C      1  0.4705810000000  0.4911760000000  0.5640760000000 1.0
C      1  0.5085380000000  0.4967490000000  0.4497850000000 1.0
C      1  0.5029020000000  0.4879470000000  0.3973380000000 1.0
C      1  0.4608540000000  0.5247500000000  0.5208280000000 1.0
C      1  0.5139840000000  0.4630000000000  0.5477150000000 1.0
C      1  0.5071310000000  0.5174270000000  0.4137450000000 1.0
C      1  0.5369230000000  0.3843830000000  0.5142900000000 1.0
C      1  0.4945350000000  0.4331390000000  0.4833800000000 1.0
C      1  0.5078620000000  0.4327440000000  0.5278090000000 1.0
C      1  0.5534200000000  0.5923390000000  0.5093970000000 1.0
C      1  0.5492550000000  0.4226790000000  0.4635820000000 1.0
C      1  0.6242710000000  0.4650720000000  0.4945900000000 1.0
C      1  0.5153660000000  0.4967560000000  0.5873660000000 1.0
C      1  0.4551280000000  0.4565340000000  0.4271170000000 1.0
C      1  0.5626630000000  0.4546650000000  0.4441550000000 1.0
C      1  0.5663170000000  0.4959650000000  0.4762010000000 1.0
C      1  0.4881730000000  0.4045010000000  0.4973220000000 1.0
C      1  0.4975780000000  0.4276070000000  0.4522440000000 1.0
C      1  0.5377720000000  0.5124950000000  0.4094160000000 1.0
C      1  0.5243420000000  0.4826050000000  0.4231900000000 1.0
C      1  0.4174430000000  0.5220130000000  0.5689690000000 1.0
C      1  0.5383310000000  0.5501120000000  0.5649270000000 1.0
C      1  0.4385480000000  0.4924640000000  0.5526770000000 1.0
C      1  0.4986480000000  0.4904830000000  0.5448960000000 1.0
C      1  0.5606880000000  0.4828900000000  0.5584200000000 1.0
C      1  0.4147340000000  0.5475180000000  0.5246080000000 1.0
C      1  0.3972080000000  0.4764040000000  0.5442440000000 1.0
C      1  0.5318910000000  0.4180540000000  0.4342880000000 1.0
C      1  0.4117750000000  0.5474920000000  0.5772250000000 1.0
C      1  0.5203960000000  0.4493730000000  0.4900090000000 1.0
C      1  0.5058270000000  0.5897400000000  0.4521140000000 1.0
C      1  0.5377810000000  0.5822960000000  0.4587390000000 1.0
C      1  0.5805170000000  0.5609530000000  0.5310870000000 1.0
C      1  0.4867890000000  0.4486320000000  0.5578470000000 1.0
C      1  0.4740760000000  0.4942340000000  0.5244390000000 1.0
C      1  0.4715130000000  0.5682100000000  0.4502940000000 1.0
C      1  0.4806360000000  0.5661790000000  0.5607110000000 1.0
C      1  0.4664520000000  0.4378050000000  0.5006800000000 1.0
C      1  0.5445160000000  0.5075670000000  0.5948520000000 1.0
C      1  0.4290300000000  0.5688920000000  0.5338040000000 1.0
C      1  0.5738110000000  0.4974890000000  0.4250030000000 1.0
C      1  0.4727770000000  0.4485600000000  0.4536590000000 1.0
C      1  0.5257620000000  0.4462420000000  0.5844350000000 1.0
C      1  0.4891230000000  0.4174550000000  0.5596120000000 1.0
C      1  0.4719760000000  0.5032090000000  0.4014130000000 1.0
C      1  0.4316410000000  0.4736850000000  0.4356300000000 1.0
C      1  0.4584450000000  0.5759370000000  0.4208490000000 1.0
C      1  0.4295600000000  0.5093580000000  0.4860080000000 1.0
C      1  0.4898710000000  0.5628960000000  0.4769930000000 1.0
C      1  0.5696200000000  0.5862140000000  0.4700330000000 1.0
C      1  0.4979870000000  0.4710550000000  0.5006150000000 1.0
C      1  0.4378550000000  0.4475290000000  0.5671960000000 1.0
C      1  0.5422340000000  0.4233800000000  0.5459320000000 1.0
C      1  0.4176340000000  0.5101670000000  0.5385360000000 1.0
C      1  0.5770910000000  0.5265360000000  0.5225120000000 1.0
C      1  0.5304230000000  0.5017500000000  0.5403550000000 1.0
C      1  0.5495610000000  0.5657860000000  0.5422520000000 1.0
C      1  0.4521770000000  0.5839530000000  0.5536640000000 1.0
END
