TITL C-2847947-6848-291 -8.0014435619712e-05 125000 -178.901695366651 0 0 35 (C1) n - 1
REM
REM in /home/bkarasulu/work/CARBON/AIRSS/Generating-Clusters/AIREBO/with-SteepDescent/Only-C1/SD-CG-opt/Try1-1.4A-POS3A/HFTN-CG
REM
REM
REM
REM
REM
REM ./C.cell (11c1c37f851c82e70ff6c80c92926a4b)
REM
REM compiler GCC version 9.2.1 20190827 (Red Hat 9.2.1-1)
REM options -cpp -mtune=generic -march=x86-64 -g -O0 -fpre-include=/usr/include/finclude/math-vector-fortran.h
REM seed -1739541689 -1320416567 1771128819 85406971 -662531856 -626962570 1062710223 -992382986 1306464234 -977266484 1194752922 2070100538 677409708 -390062023 1542553755 1316237643 223002123 -1252067407 -2109804231 1568182675 1838467270 914263701 -1403470497 1537974575 1646032544 725355166 -2056389718 1682785737 1537399062 -1464292754 1005197945 1395103009 -631182171
REM
CELL 1.54180   50.00000   50.00000   50.00000   90.00000   90.00000   90.00000
LATT -1
SFAC C  
C      1  0.4426920000000  0.4656220000000  0.4525070000000 1.0
C      1  0.5236640000000  0.4367730000000  0.5278520000000 1.0
C      1  0.4721100000000  0.4986270000000  0.5164710000000 1.0
C      1  0.5386370000000  0.5129370000000  0.5168710000000 1.0
C      1  0.5598830000000  0.5209300000000  0.5002800000000 1.0
C      1  0.5140690000000  0.4583880000000  0.4641990000000 1.0
C      1  0.5301340000000  0.4600450000000  0.5149640000000 1.0
C      1  0.5036960000000  0.5135540000000  0.4276420000000 1.0
C      1  0.5647510000000  0.5487080000000  0.5002180000000 1.0
C      1  0.5050950000000  0.5065250000000  0.5375320000000 1.0
C      1  0.5180720000000  0.5538050000000  0.5076070000000 1.0
C      1  0.5283860000000  0.4848510000000  0.5255380000000 1.0
C      1  0.4418640000000  0.5062570000000  0.5300040000000 1.0
C      1  0.5220870000000  0.5218670000000  0.5572290000000 1.0
C      1  0.4757190000000  0.4957320000000  0.4863390000000 1.0
C      1  0.4635590000000  0.4679660000000  0.4707830000000 1.0
C      1  0.4509560000000  0.5321180000000  0.5117800000000 1.0
C      1  0.4767100000000  0.5223060000000  0.5404830000000 1.0
C      1  0.5372570000000  0.4888100000000  0.4757040000000 1.0
C      1  0.5112570000000  0.5024160000000  0.4794900000000 1.0
C      1  0.5422250000000  0.5648110000000  0.5009150000000 1.0
C      1  0.4571800000000  0.4542630000000  0.4990220000000 1.0
C      1  0.4662640000000  0.5423190000000  0.5525440000000 1.0
C      1  0.4552870000000  0.5381980000000  0.4517300000000 1.0
C      1  0.4758440000000  0.5337090000000  0.4981490000000 1.0
C      1  0.4856080000000  0.4859020000000  0.5562840000000 1.0
C      1  0.4728000000000  0.5237780000000  0.4673400000000 1.0
C      1  0.5597290000000  0.5043100000000  0.4775000000000 1.0
C      1  0.5065600000000  0.5218120000000  0.5071700000000 1.0
C      1  0.5603220000000  0.4434470000000  0.4796550000000 1.0
C      1  0.4922400000000  0.4732070000000  0.4581370000000 1.0
C      1  0.5379940000000  0.4590300000000  0.4858460000000 1.0
C      1  0.4556230000000  0.4699800000000  0.5205920000000 1.0
C      1  0.4943220000000  0.5045050000000  0.4520460000000 1.0
C      1  0.4574060000000  0.4824910000000  0.5495770000000 1.0
END
