TITL C-2847946-5639-52 -0.000347509794147329 125000 -272.14385952226 0 0 52 (C1) n - 1
REM
REM in /home/bkarasulu/work/CARBON/AIRSS/Generating-Clusters/AIREBO/with-SteepDescent/Only-C1/SD-CG-opt/Try1-1.4A-POS3A/HFTN-CG
REM
REM
REM
REM
REM
REM ./C.cell (11c1c37f851c82e70ff6c80c92926a4b)
REM
REM compiler GCC version 9.2.1 20190827 (Red Hat 9.2.1-1)
REM options -cpp -mtune=generic -march=x86-64 -g -O0 -fpre-include=/usr/include/finclude/math-vector-fortran.h
REM seed 963592756 -1574225696 -195112074 -195534224 914912954 -2011628107 1981314291 -1557769736 -1437148941 722314215 691989365 -617403441 -1217948130 409979200 -983840482 -1352937174 1458627843 364539388 -581194183 -1519000264 1227484660 435326294 81878940 830661469 2095464498 1076505189 -270016656 -631984477 -1757245128 -1921685223 -298958608 543646335 -1313807768
REM
CELL 1.54180   50.00000   50.00000   50.00000   90.00000   90.00000   90.00000
LATT -1
SFAC C  
C      1  0.5666100000000  0.5299680000000  0.5335120000000 1.0
C      1  0.5489740000000  0.5128900000000  0.4811000000000 1.0
C      1  0.4640410000000  0.4740120000000  0.5100370000000 1.0
C      1  0.5206470000000  0.4800500000000  0.5076290000000 1.0
C      1  0.4991100000000  0.4903920000000  0.4338100000000 1.0
C      1  0.5082530000000  0.5450880000000  0.5556500000000 1.0
C      1  0.4732800000000  0.5424940000000  0.4843760000000 1.0
C      1  0.5330810000000  0.5401730000000  0.4568000000000 1.0
C      1  0.5057860000000  0.5361080000000  0.4767060000000 1.0
C      1  0.4900430000000  0.4899320000000  0.5021490000000 1.0
C      1  0.5247110000000  0.5071380000000  0.5267850000000 1.0
C      1  0.5119790000000  0.5189500000000  0.4412760000000 1.0
C      1  0.4927040000000  0.4518130000000  0.4684030000000 1.0
C      1  0.4364700000000  0.5178710000000  0.5499850000000 1.0
C      1  0.4322910000000  0.5072590000000  0.4743270000000 1.0
C      1  0.5114000000000  0.4497290000000  0.4417230000000 1.0
C      1  0.5526680000000  0.5063380000000  0.5387740000000 1.0
C      1  0.4993630000000  0.5131930000000  0.5478050000000 1.0
C      1  0.5351060000000  0.4630350000000  0.4468470000000 1.0
C      1  0.5151940000000  0.5544370000000  0.5037070000000 1.0
C      1  0.4600130000000  0.4923120000000  0.4643170000000 1.0
C      1  0.4632950000000  0.5308190000000  0.5074010000000 1.0
C      1  0.5221940000000  0.4403200000000  0.5382900000000 1.0
C      1  0.5447470000000  0.4559210000000  0.4751260000000 1.0
C      1  0.4442250000000  0.4704700000000  0.4838120000000 1.0
C      1  0.5579910000000  0.4834910000000  0.4721650000000 1.0
C      1  0.4898310000000  0.4387170000000  0.5460970000000 1.0
C      1  0.4748490000000  0.5417050000000  0.5342720000000 1.0
C      1  0.4759790000000  0.4945510000000  0.5421840000000 1.0
C      1  0.4885720000000  0.5067810000000  0.4757810000000 1.0
C      1  0.4803360000000  0.5556110000000  0.5647460000000 1.0
C      1  0.5362400000000  0.4960100000000  0.4473190000000 1.0
C      1  0.5570920000000  0.4788480000000  0.5436910000000 1.0
C      1  0.5257970000000  0.5570050000000  0.5366050000000 1.0
C      1  0.4752820000000  0.5513750000000  0.4558520000000 1.0
C      1  0.4803860000000  0.4220100000000  0.5657990000000 1.0
C      1  0.5508580000000  0.5495410000000  0.5205130000000 1.0
C      1  0.5208230000000  0.4965380000000  0.4776250000000 1.0
C      1  0.5367480000000  0.4629670000000  0.5322290000000 1.0
C      1  0.5513920000000  0.5551570000000  0.4383330000000 1.0
C      1  0.5430890000000  0.5424340000000  0.4892310000000 1.0
C      1  0.4753770000000  0.4646170000000  0.5406910000000 1.0
C      1  0.5175710000000  0.4503810000000  0.4915620000000 1.0
C      1  0.5003820000000  0.4321110000000  0.5147580000000 1.0
C      1  0.4828740000000  0.4762000000000  0.4507320000000 1.0
C      1  0.5015230000000  0.5307690000000  0.5190230000000 1.0
C      1  0.4525680000000  0.5390420000000  0.5569910000000 1.0
C      1  0.4782940000000  0.4461510000000  0.4967240000000 1.0
C      1  0.4914760000000  0.5426210000000  0.4353940000000 1.0
C      1  0.4258620000000  0.5047090000000  0.4988660000000 1.0
C      1  0.4498350000000  0.5033460000000  0.5222970000000 1.0
C      1  0.4227870000000  0.4565990000000  0.4801750000000 1.0
END
