TITL C-2848495-5024-411 -163.964112310495 125000 -482.468883277062 0 0 86 (C1) n - 1
REM
REM in /home/bkarasulu/work/CARBON/AIRSS/Generating-Clusters/AIREBO/with-SteepDescent/Only-C1/SD-CG-opt/Try1-1.4A-POS3A/HFTN-CG
REM
REM
REM
REM
REM
REM ./C.cell (11c1c37f851c82e70ff6c80c92926a4b)
REM
REM compiler GCC version 9.2.1 20190827 (Red Hat 9.2.1-1)
REM options -cpp -mtune=generic -march=x86-64 -g -O0 -fpre-include=/usr/include/finclude/math-vector-fortran.h
REM seed -31824041 1981438802 79123337 978444277 481158760 1356155377 1183390069 -1392670657 -655527218 1669367527 -1051619471 -669424230 -1944725957 -1285756800 -2118576097 1452588015 -236300633 1166603803 1611058590 381711432 -1366337282 1968102790 1991285780 130107360 644616162 2052107175 497584918 624240777 -339009698 -1670505342 -1940661805 337483426 1277897239
REM
CELL 1.54180   50.00000   50.00000   50.00000   90.00000   90.00000   90.00000
LATT -1
SFAC C  
C      1  0.5330200000000  0.5095720000000  0.4982400000000 1.0
C      1  0.5278880000000  0.4671860000000  0.5579270000000 1.0
C      1  0.5163660000000  0.5339410000000  0.4866580000000 1.0
C      1  0.5087280000000  0.5024810000000  0.4573760000000 1.0
C      1  0.5358720000000  0.4930640000000  0.5732670000000 1.0
C      1  0.4911060000000  0.5328590000000  0.4382320000000 1.0
C      1  0.4546110000000  0.4449080000000  0.4481800000000 1.0
C      1  0.4744870000000  0.4679810000000  0.5080460000000 1.0
C      1  0.4338110000000  0.5437830000000  0.4749060000000 1.0
C      1  0.4771960000000  0.4262310000000  0.5074150000000 1.0
C      1  0.5075820000000  0.4999210000000  0.5186380000000 1.0
C      1  0.4336840000000  0.4398810000000  0.5366240000000 1.0
C      1  0.5159070000000  0.4453570000000  0.4417500000000 1.0
C      1  0.4590680000000  0.4943360000000  0.4303750000000 1.0
C      1  0.4582610000000  0.5487660000000  0.4546010000000 1.0
C      1  0.5373280000000  0.5626670000000  0.5300050000000 1.0
C      1  0.4868360000000  0.4697560000000  0.4764070000000 1.0
C      1  0.5263510000000  0.4588590000000  0.4979150000000 1.0
C      1  0.5003920000000  0.5820040000000  0.4416560000000 1.0
C      1  0.5162140000000  0.4700700000000  0.5268240000000 1.0
C      1  0.4488990000000  0.5052020000000  0.5552670000000 1.0
C      1  0.4887570000000  0.5002550000000  0.5574190000000 1.0
C      1  0.5671960000000  0.4859020000000  0.5380450000000 1.0
C      1  0.4751990000000  0.4965910000000  0.5264030000000 1.0
C      1  0.4309970000000  0.4817050000000  0.5150430000000 1.0
C      1  0.4792280000000  0.4593740000000  0.5406200000000 1.0
C      1  0.5561750000000  0.5487800000000  0.4721310000000 1.0
C      1  0.4950430000000  0.5310510000000  0.5241830000000 1.0
C      1  0.5712170000000  0.4933810000000  0.4692570000000 1.0
C      1  0.4844500000000  0.4224610000000  0.4805550000000 1.0
C      1  0.5181790000000  0.5801820000000  0.5155800000000 1.0
C      1  0.4850310000000  0.4755110000000  0.5781930000000 1.0
C      1  0.5262690000000  0.5334220000000  0.5295910000000 1.0
C      1  0.4419090000000  0.4624900000000  0.4682690000000 1.0
C      1  0.4205240000000  0.5059550000000  0.5448500000000 1.0
C      1  0.5542280000000  0.4619110000000  0.5424420000000 1.0
C      1  0.4859280000000  0.5529410000000  0.5028880000000 1.0
C      1  0.4554060000000  0.5562800000000  0.5407390000000 1.0
C      1  0.4892870000000  0.5466300000000  0.5732870000000 1.0
C      1  0.4614920000000  0.4847850000000  0.4608000000000 1.0
C      1  0.5205950000000  0.5733540000000  0.4588220000000 1.0
C      1  0.4346360000000  0.5338450000000  0.5314470000000 1.0
C      1  0.5004230000000  0.4403260000000  0.5220710000000 1.0
C      1  0.5165780000000  0.4859100000000  0.4187120000000 1.0
C      1  0.4986070000000  0.5011130000000  0.4030090000000 1.0
C      1  0.5100320000000  0.5065230000000  0.5790340000000 1.0
C      1  0.5758860000000  0.5453570000000  0.4958350000000 1.0
C      1  0.4871400000000  0.5413540000000  0.4709450000000 1.0
C      1  0.4339220000000  0.5116930000000  0.4272910000000 1.0
C      1  0.5126370000000  0.5354780000000  0.5819400000000 1.0
C      1  0.4970770000000  0.4736000000000  0.4437060000000 1.0
C      1  0.4686430000000  0.4617040000000  0.4293490000000 1.0
C      1  0.4475560000000  0.5068050000000  0.5153780000000 1.0
C      1  0.5599870000000  0.5452500000000  0.5485180000000 1.0
C      1  0.4286620000000  0.4722710000000  0.5456370000000 1.0
C      1  0.5382540000000  0.5004490000000  0.4306540000000 1.0
C      1  0.4810360000000  0.5640520000000  0.4372940000000 1.0
C      1  0.5074940000000  0.4428110000000  0.4745970000000 1.0
C      1  0.5123220000000  0.5677160000000  0.4873460000000 1.0
C      1  0.5516400000000  0.4419950000000  0.5238950000000 1.0
C      1  0.5541440000000  0.4858660000000  0.4482180000000 1.0
C      1  0.5707160000000  0.5141260000000  0.5544620000000 1.0
C      1  0.4718370000000  0.5720100000000  0.5237690000000 1.0
C      1  0.5434590000000  0.5263190000000  0.5708580000000 1.0
C      1  0.4949400000000  0.5896280000000  0.5271670000000 1.0
C      1  0.5245300000000  0.5279540000000  0.4420790000000 1.0
C      1  0.4344950000000  0.5325680000000  0.4987540000000 1.0
C      1  0.5395560000000  0.4609130000000  0.4591950000000 1.0
C      1  0.5588150000000  0.4498400000000  0.4947740000000 1.0
C      1  0.5384850000000  0.5524410000000  0.4522480000000 1.0
C      1  0.5787740000000  0.4717090000000  0.4846940000000 1.0
C      1  0.4657230000000  0.4209450000000  0.4591660000000 1.0
C      1  0.4435550000000  0.4600710000000  0.4973350000000 1.0
C      1  0.5039450000000  0.4552900000000  0.5728010000000 1.0
C      1  0.5486390000000  0.5117330000000  0.5283640000000 1.0
C      1  0.4901130000000  0.4333220000000  0.5595900000000 1.0
C      1  0.4724610000000  0.5290390000000  0.5495360000000 1.0
C      1  0.5618000000000  0.5176480000000  0.4836100000000 1.0
C      1  0.4802800000000  0.5127620000000  0.4193550000000 1.0
C      1  0.5408110000000  0.4306200000000  0.4737670000000 1.0
C      1  0.5264660000000  0.4851240000000  0.4771880000000 1.0
C      1  0.5291640000000  0.4266240000000  0.5263030000000 1.0
C      1  0.4515960000000  0.4354560000000  0.5148280000000 1.0
C      1  0.5693650000000  0.5579940000000  0.5196200000000 1.0
C      1  0.4581670000000  0.4748590000000  0.5598280000000 1.0
C      1  0.4349130000000  0.5351050000000  0.4364040000000 1.0
END
