TITL C-2847958-8115-392 -0.00165340866467307 125000 -515.577845663505 0 0 93 (C1) n - 1
REM
REM in /home/bkarasulu/work/CARBON/AIRSS/Generating-Clusters/AIREBO/with-SteepDescent/Only-C1/SD-CG-opt/Try1-1.4A-POS3A/HFTN-CG
REM
REM
REM
REM
REM
REM ./C.cell (11c1c37f851c82e70ff6c80c92926a4b)
REM
REM compiler GCC version 9.2.1 20190827 (Red Hat 9.2.1-1)
REM options -cpp -mtune=generic -march=x86-64 -g -O0 -fpre-include=/usr/include/finclude/math-vector-fortran.h
REM seed 131543530 -320854192 -1307045747 -1184802895 -388104882 2099992577 1615430456 1862383744 2057212585 1477582042 2033662015 -256668850 -1571500057 -443599895 -732679767 1959468008 -1367314295 -1414505472 627158286 1867717708 -1755745013 -1851387424 1072811768 1586449796 569677666 1523524578 -981917781 584626223 -1749300377 1245969515 796975331 570111891 -992517864
REM
CELL 1.54180   50.00000   50.00000   50.00000   90.00000   90.00000   90.00000
LATT -1
SFAC C  
C      1  0.4171790000000  0.5017940000000  0.4519030000000 1.0
C      1  0.4614330000000  0.4275810000000  0.4979430000000 1.0
C      1  0.4659730000000  0.5630260000000  0.4716130000000 1.0
C      1  0.4840350000000  0.4733370000000  0.4870410000000 1.0
C      1  0.4206800000000  0.5144780000000  0.5287020000000 1.0
C      1  0.4955120000000  0.5734300000000  0.4765820000000 1.0
C      1  0.5395130000000  0.5048180000000  0.5585650000000 1.0
C      1  0.5178160000000  0.5139160000000  0.5263190000000 1.0
C      1  0.5419520000000  0.4460710000000  0.4640180000000 1.0
C      1  0.5756060000000  0.5200620000000  0.4622800000000 1.0
C      1  0.4792570000000  0.4546090000000  0.5761450000000 1.0
C      1  0.5162050000000  0.4672410000000  0.4972980000000 1.0
C      1  0.5484730000000  0.4776650000000  0.4669370000000 1.0
C      1  0.5148880000000  0.5703450000000  0.5495770000000 1.0
C      1  0.4310840000000  0.5208010000000  0.5531180000000 1.0
C      1  0.4602020000000  0.4028950000000  0.5213720000000 1.0
C      1  0.4719970000000  0.5369370000000  0.4281450000000 1.0
C      1  0.5212600000000  0.4197830000000  0.5095880000000 1.0
C      1  0.5066940000000  0.4679420000000  0.5508580000000 1.0
C      1  0.4627750000000  0.5126590000000  0.5572260000000 1.0
C      1  0.5662460000000  0.4969880000000  0.4483670000000 1.0
C      1  0.5637230000000  0.5850910000000  0.5246400000000 1.0
C      1  0.5110030000000  0.4205950000000  0.5327590000000 1.0
C      1  0.4996550000000  0.5416850000000  0.4322440000000 1.0
C      1  0.3969490000000  0.4550580000000  0.5172090000000 1.0
C      1  0.5053320000000  0.5056630000000  0.4970130000000 1.0
C      1  0.5542680000000  0.4326810000000  0.4961140000000 1.0
C      1  0.4324460000000  0.5311740000000  0.4592250000000 1.0
C      1  0.5145450000000  0.4369380000000  0.4819520000000 1.0
C      1  0.5470680000000  0.5455420000000  0.4317780000000 1.0
C      1  0.5516030000000  0.4743270000000  0.5290060000000 1.0
C      1  0.5480210000000  0.4529210000000  0.4354850000000 1.0
C      1  0.4822250000000  0.5348270000000  0.5680010000000 1.0
C      1  0.4339330000000  0.4327940000000  0.4851440000000 1.0
C      1  0.4154910000000  0.5213630000000  0.5003730000000 1.0
C      1  0.4769830000000  0.4874220000000  0.5847560000000 1.0
C      1  0.5430490000000  0.5568210000000  0.5472760000000 1.0
C      1  0.4233820000000  0.5461590000000  0.4869700000000 1.0
C      1  0.5595350000000  0.5432390000000  0.4571960000000 1.0
C      1  0.4879710000000  0.4869620000000  0.4575300000000 1.0
C      1  0.5785190000000  0.5665000000000  0.5155600000000 1.0
C      1  0.4600020000000  0.5168160000000  0.4730490000000 1.0
C      1  0.5305780000000  0.4658090000000  0.5968780000000 1.0
C      1  0.5061880000000  0.5114110000000  0.4574490000000 1.0
C      1  0.5430010000000  0.5500430000000  0.4834620000000 1.0
C      1  0.5636000000000  0.5404360000000  0.5066290000000 1.0
C      1  0.4603760000000  0.5137000000000  0.5249800000000 1.0
C      1  0.4814870000000  0.4867850000000  0.5453090000000 1.0
C      1  0.5251730000000  0.5726330000000  0.4936470000000 1.0
C      1  0.4644640000000  0.4351560000000  0.5307860000000 1.0
C      1  0.5235950000000  0.5331570000000  0.4210570000000 1.0
C      1  0.4285420000000  0.4600320000000  0.4767360000000 1.0
C      1  0.4232200000000  0.4620030000000  0.5102770000000 1.0
C      1  0.4932260000000  0.5110060000000  0.5829950000000 1.0
C      1  0.4622920000000  0.5120060000000  0.4408600000000 1.0
C      1  0.4329120000000  0.4750960000000  0.4534650000000 1.0
C      1  0.5476520000000  0.5220850000000  0.5304270000000 1.0
C      1  0.5326400000000  0.5786870000000  0.5226060000000 1.0
C      1  0.5005820000000  0.5443740000000  0.4636780000000 1.0
C      1  0.4808610000000  0.4415480000000  0.4813330000000 1.0
C      1  0.4944020000000  0.5507800000000  0.5482910000000 1.0
C      1  0.4851940000000  0.5285040000000  0.4868200000000 1.0
C      1  0.5336210000000  0.5207270000000  0.4903320000000 1.0
C      1  0.5106690000000  0.4151150000000  0.4555690000000 1.0
C      1  0.4824690000000  0.4927430000000  0.5149170000000 1.0
C      1  0.4221410000000  0.5003050000000  0.4823330000000 1.0
C      1  0.5210630000000  0.4814230000000  0.5261690000000 1.0
C      1  0.4552020000000  0.5506040000000  0.4485190000000 1.0
C      1  0.5215660000000  0.5105000000000  0.5811060000000 1.0
C      1  0.4549610000000  0.4734960000000  0.5619170000000 1.0
C      1  0.4449060000000  0.4574690000000  0.5360880000000 1.0
C      1  0.5789490000000  0.4914210000000  0.5382380000000 1.0
C      1  0.5632090000000  0.4735680000000  0.5596550000000 1.0
C      1  0.5176390000000  0.5987120000000  0.4754650000000 1.0
C      1  0.5503800000000  0.4658730000000  0.4976820000000 1.0
C      1  0.4385360000000  0.4898390000000  0.5170150000000 1.0
C      1  0.5239790000000  0.5062540000000  0.4131660000000 1.0
C      1  0.5791430000000  0.4840140000000  0.4979980000000 1.0
C      1  0.4895440000000  0.4358540000000  0.4508330000000 1.0
C      1  0.5313910000000  0.5028900000000  0.4670050000000 1.0
C      1  0.5424880000000  0.4834150000000  0.4280520000000 1.0
C      1  0.5323460000000  0.4736410000000  0.5700930000000 1.0
C      1  0.5867800000000  0.5159640000000  0.5278580000000 1.0
C      1  0.4853370000000  0.4567480000000  0.4322370000000 1.0
C      1  0.4605100000000  0.4789370000000  0.4391550000000 1.0
C      1  0.4539100000000  0.4891360000000  0.4871900000000 1.0
C      1  0.4929810000000  0.5360740000000  0.5191730000000 1.0
C      1  0.4495440000000  0.5570000000000  0.4943120000000 1.0
C      1  0.4610130000000  0.5433080000000  0.5148610000000 1.0
C      1  0.5802460000000  0.5166890000000  0.4943010000000 1.0
C      1  0.5717010000000  0.5409190000000  0.5453820000000 1.0
C      1  0.5084900000000  0.4817000000000  0.4308930000000 1.0
C      1  0.4908160000000  0.4394570000000  0.5479190000000 1.0
END
