TITL C-2848500-1637-150 0.0104428082664789 125000 -870.176008961367 0 0 164 (C1) n - 1
REM
REM in /home/bkarasulu/work/CARBON/AIRSS/Generating-Clusters/AIREBO/with-SteepDescent/Only-C1/SD-CG-opt/Try1-1.4A-POS3A/HFTN-CG
REM
REM
REM
REM
REM
REM ./C.cell (11c1c37f851c82e70ff6c80c92926a4b)
REM
REM compiler GCC version 9.2.1 20190827 (Red Hat 9.2.1-1)
REM options -cpp -mtune=generic -march=x86-64 -g -O0 -fpre-include=/usr/include/finclude/math-vector-fortran.h
REM seed -1939534868 -539078501 735837436 463087563 2138428768 -29114716 -2073235057 -1545266784 1286562641 433137649 -1997296897 -1293697991 692948020 -718276390 2038428196 885622539 1011216070 -1024875220 -1161111973 -1611707700 2092370449 -1174598331 493801565 275043733 1902243173 -756127672 -393140081 -699409893 1836446688 417690744 -1064412814 72161967 815674823
REM
CELL 1.54180   50.00000   50.00000   50.00000   90.00000   90.00000   90.00000
LATT -1
SFAC C  
C      1  0.4177650000000  0.4818730000000  0.5432950000000 1.0
C      1  0.5765670000000  0.5640070000000  0.4878880000000 1.0
C      1  0.5292260000000  0.4812790000000  0.5901940000000 1.0
C      1  0.5325090000000  0.5591370000000  0.4642780000000 1.0
C      1  0.4669260000000  0.4654110000000  0.5327820000000 1.0
C      1  0.5238210000000  0.5983950000000  0.5440370000000 1.0
C      1  0.5640580000000  0.4081950000000  0.4920460000000 1.0
C      1  0.5941910000000  0.4407070000000  0.4347370000000 1.0
C      1  0.4816460000000  0.5706890000000  0.5265540000000 1.0
C      1  0.5514440000000  0.5987550000000  0.5492520000000 1.0
C      1  0.5078410000000  0.5314180000000  0.6031760000000 1.0
C      1  0.5198600000000  0.5783400000000  0.4397260000000 1.0
C      1  0.5220590000000  0.4094650000000  0.5119880000000 1.0
C      1  0.5885550000000  0.4230450000000  0.4782530000000 1.0
C      1  0.4266180000000  0.4171140000000  0.4990120000000 1.0
C      1  0.4697070000000  0.4363200000000  0.5153520000000 1.0
C      1  0.3984360000000  0.5167800000000  0.4581730000000 1.0
C      1  0.5478560000000  0.5237190000000  0.4917570000000 1.0
C      1  0.4590070000000  0.4716870000000  0.3959590000000 1.0
C      1  0.4664850000000  0.4080190000000  0.4577680000000 1.0
C      1  0.5600680000000  0.4631220000000  0.4985270000000 1.0
C      1  0.5026590000000  0.5293440000000  0.5426900000000 1.0
C      1  0.5480260000000  0.4985840000000  0.5594520000000 1.0
C      1  0.5594500000000  0.5355390000000  0.5881730000000 1.0
C      1  0.4713440000000  0.4742330000000  0.5035460000000 1.0
C      1  0.4569420000000  0.5036490000000  0.4137230000000 1.0
C      1  0.5446160000000  0.4814600000000  0.5144170000000 1.0
C      1  0.5332640000000  0.4108470000000  0.4519030000000 1.0
C      1  0.4657160000000  0.4613620000000  0.3734760000000 1.0
C      1  0.6014640000000  0.5186560000000  0.4944630000000 1.0
C      1  0.5366300000000  0.5540970000000  0.4976840000000 1.0
C      1  0.5223800000000  0.4539420000000  0.5619070000000 1.0
C      1  0.5089810000000  0.4800480000000  0.5319940000000 1.0
C      1  0.5756790000000  0.4771010000000  0.4753250000000 1.0
C      1  0.6043260000000  0.5207600000000  0.5226910000000 1.0
C      1  0.4446430000000  0.5769580000000  0.4530950000000 1.0
C      1  0.4318400000000  0.4548570000000  0.4802430000000 1.0
C      1  0.4142950000000  0.4482510000000  0.5051720000000 1.0
C      1  0.5841550000000  0.5384320000000  0.4838320000000 1.0
C      1  0.4165720000000  0.4994810000000  0.4380960000000 1.0
C      1  0.5496990000000  0.4955810000000  0.4634050000000 1.0
C      1  0.4609110000000  0.5163530000000  0.4654760000000 1.0
C      1  0.5769070000000  0.4493440000000  0.5204270000000 1.0
C      1  0.6237980000000  0.4613300000000  0.5483040000000 1.0
C      1  0.4911850000000  0.4906310000000  0.5981920000000 1.0
C      1  0.5374440000000  0.4766270000000  0.5444030000000 1.0
C      1  0.5502480000000  0.5257440000000  0.4163160000000 1.0
C      1  0.4313490000000  0.4190490000000  0.4260020000000 1.0
C      1  0.4948280000000  0.4926530000000  0.5559660000000 1.0
C      1  0.4509500000000  0.5039420000000  0.5201760000000 1.0
C      1  0.5493260000000  0.4547370000000  0.5826320000000 1.0
C      1  0.4034710000000  0.5012000000000  0.5206600000000 1.0
C      1  0.4385160000000  0.4934220000000  0.5676410000000 1.0
C      1  0.5024030000000  0.5412160000000  0.4060020000000 1.0
C      1  0.4729740000000  0.5947900000000  0.5086330000000 1.0
C      1  0.5745020000000  0.4919440000000  0.5719160000000 1.0
C      1  0.4959780000000  0.4901250000000  0.4859290000000 1.0
C      1  0.4925130000000  0.5618410000000  0.5819110000000 1.0
C      1  0.5002340000000  0.5774640000000  0.4850660000000 1.0
C      1  0.4393340000000  0.4284370000000  0.5284470000000 1.0
C      1  0.3891690000000  0.4646740000000  0.5053780000000 1.0
C      1  0.4576210000000  0.4969580000000  0.5955460000000 1.0
C      1  0.5470870000000  0.4412850000000  0.5291890000000 1.0
C      1  0.4225380000000  0.5822420000000  0.5008770000000 1.0
C      1  0.4167010000000  0.5733980000000  0.5255960000000 1.0
C      1  0.5462230000000  0.4679080000000  0.4202640000000 1.0
C      1  0.4326710000000  0.4939840000000  0.4865790000000 1.0
C      1  0.4817510000000  0.4567420000000  0.4392200000000 1.0
C      1  0.6020030000000  0.4959320000000  0.4769410000000 1.0
C      1  0.5542850000000  0.5826830000000  0.5028980000000 1.0
C      1  0.4807980000000  0.5368990000000  0.4470760000000 1.0
C      1  0.4330420000000  0.4755420000000  0.5142610000000 1.0
C      1  0.4720490000000  0.3882700000000  0.5022170000000 1.0
C      1  0.4883820000000  0.4606910000000  0.4706770000000 1.0
C      1  0.5180900000000  0.5597870000000  0.5962390000000 1.0
C      1  0.4256100000000  0.4486860000000  0.5438040000000 1.0
C      1  0.4506690000000  0.5888190000000  0.4848970000000 1.0
C      1  0.4288630000000  0.4482120000000  0.4304200000000 1.0
C      1  0.4739780000000  0.5467750000000  0.5047520000000 1.0
C      1  0.4203710000000  0.5652300000000  0.4738170000000 1.0
C      1  0.5127680000000  0.5086410000000  0.5784120000000 1.0
C      1  0.5245060000000  0.5620240000000  0.4120350000000 1.0
C      1  0.4738850000000  0.5135140000000  0.4969610000000 1.0
C      1  0.3984420000000  0.4816840000000  0.4577600000000 1.0
C      1  0.5465310000000  0.5608270000000  0.5953740000000 1.0
C      1  0.4780500000000  0.5192230000000  0.6110800000000 1.0
C      1  0.4615850000000  0.5273450000000  0.5606510000000 1.0
C      1  0.4947080000000  0.6121860000000  0.5036260000000 1.0
C      1  0.3985950000000  0.4910660000000  0.4885710000000 1.0
C      1  0.4382380000000  0.4222780000000  0.4591420000000 1.0
C      1  0.4454950000000  0.5444040000000  0.4642720000000 1.0
C      1  0.5938450000000  0.4715970000000  0.5353900000000 1.0
C      1  0.5315480000000  0.5250210000000  0.5552600000000 1.0
C      1  0.4106920000000  0.5007610000000  0.4079780000000 1.0
C      1  0.4966270000000  0.4362410000000  0.5361240000000 1.0
C      1  0.5772090000000  0.4656570000000  0.5800180000000 1.0
C      1  0.5285430000000  0.4075610000000  0.5393510000000 1.0
C      1  0.4239930000000  0.5497710000000  0.5374470000000 1.0
C      1  0.5035250000000  0.4618680000000  0.5986060000000 1.0
C      1  0.4833110000000  0.5511550000000  0.5515160000000 1.0
C      1  0.5353870000000  0.5488850000000  0.5312820000000 1.0
C      1  0.5648720000000  0.5825790000000  0.5321810000000 1.0
C      1  0.4745940000000  0.5590980000000  0.4723460000000 1.0
C      1  0.5672390000000  0.5534640000000  0.5413340000000 1.0
C      1  0.5392110000000  0.5130950000000  0.5993420000000 1.0
C      1  0.5445880000000  0.4298600000000  0.5594060000000 1.0
C      1  0.4658500000000  0.4959600000000  0.5476940000000 1.0
C      1  0.5137000000000  0.5727710000000  0.5377180000000 1.0
C      1  0.3964570000000  0.5408130000000  0.5637170000000 1.0
C      1  0.5694090000000  0.4865160000000  0.4372230000000 1.0
C      1  0.4984200000000  0.5101720000000  0.5202740000000 1.0
C      1  0.4407520000000  0.4594970000000  0.5671180000000 1.0
C      1  0.4790830000000  0.5987420000000  0.4694250000000 1.0
C      1  0.4213000000000  0.5216600000000  0.5001720000000 1.0
C      1  0.5186830000000  0.4994420000000  0.4623780000000 1.0
C      1  0.4442180000000  0.5361370000000  0.5173060000000 1.0
C      1  0.5468030000000  0.4500400000000  0.4714730000000 1.0
C      1  0.4126410000000  0.4540120000000  0.4555360000000 1.0
C      1  0.5578190000000  0.5647270000000  0.4434520000000 1.0
C      1  0.4545810000000  0.4640940000000  0.4262360000000 1.0
C      1  0.5663560000000  0.5239720000000  0.4632250000000 1.0
C      1  0.5793780000000  0.4464770000000  0.4612950000000 1.0
C      1  0.4491450000000  0.4920980000000  0.4447370000000 1.0
C      1  0.4575730000000  0.4364830000000  0.4833960000000 1.0
C      1  0.4754080000000  0.5541840000000  0.4022400000000 1.0
C      1  0.5054250000000  0.4386870000000  0.4904170000000 1.0
C      1  0.5665650000000  0.5390390000000  0.4373200000000 1.0
C      1  0.4296220000000  0.5254810000000  0.5605750000000 1.0
C      1  0.5992180000000  0.4923160000000  0.4470790000000 1.0
C      1  0.5292730000000  0.4638150000000  0.4483890000000 1.0
C      1  0.4848440000000  0.4238340000000  0.4424330000000 1.0
C      1  0.5349700000000  0.4370390000000  0.4296700000000 1.0
C      1  0.5031980000000  0.4832960000000  0.4384970000000 1.0
C      1  0.5606020000000  0.5077610000000  0.5166900000000 1.0
C      1  0.4578360000000  0.4754750000000  0.4731100000000 1.0
C      1  0.5240350000000  0.5014950000000  0.5017970000000 1.0
C      1  0.4945210000000  0.4435200000000  0.5752810000000 1.0
C      1  0.4085760000000  0.5361320000000  0.4772460000000 1.0
C      1  0.5021860000000  0.5165060000000  0.4302150000000 1.0
C      1  0.5056470000000  0.5447400000000  0.4925410000000 1.0
C      1  0.5054180000000  0.5273190000000  0.4684890000000 1.0
C      1  0.4326270000000  0.4995170000000  0.3943840000000 1.0
C      1  0.5267580000000  0.5390590000000  0.4370080000000 1.0
C      1  0.5158060000000  0.6191640000000  0.5249860000000 1.0
C      1  0.4514460000000  0.3971540000000  0.4862910000000 1.0
C      1  0.5091220000000  0.4155880000000  0.4323290000000 1.0
C      1  0.4660940000000  0.5293700000000  0.4173530000000 1.0
C      1  0.5869870000000  0.4235410000000  0.5092200000000 1.0
C      1  0.5193860000000  0.4508680000000  0.5190150000000 1.0
C      1  0.4687620000000  0.4514580000000  0.5636400000000 1.0
C      1  0.4682770000000  0.5656150000000  0.4332650000000 1.0
C      1  0.4909790000000  0.4117510000000  0.5053270000000 1.0
C      1  0.5066320000000  0.4173730000000  0.5591370000000 1.0
C      1  0.4070220000000  0.4249790000000  0.4723420000000 1.0
C      1  0.5345140000000  0.4216020000000  0.4827630000000 1.0
C      1  0.5985050000000  0.5457590000000  0.5343750000000 1.0
C      1  0.5094400000000  0.6065880000000  0.4556530000000 1.0
C      1  0.5978420000000  0.4552650000000  0.5648190000000 1.0
C      1  0.5736730000000  0.5296960000000  0.5613030000000 1.0
C      1  0.4720560000000  0.5402090000000  0.5878780000000 1.0
C      1  0.5561110000000  0.4991250000000  0.4111020000000 1.0
C      1  0.5237530000000  0.5945240000000  0.5027330000000 1.0
C      1  0.4873530000000  0.5876300000000  0.4391560000000 1.0
C      1  0.5832580000000  0.5038850000000  0.5413050000000 1.0
END
