TITL C-2848499-1157-390 -0.00350822102653188 125000 -199.187136133904 0 0 37 (C1) n - 1
REM
REM in /home/bkarasulu/work/CARBON/AIRSS/Generating-Clusters/AIREBO/with-SteepDescent/Only-C1/SD-CG-opt/Try1-1.4A-POS3A/HFTN-CG
REM
REM
REM
REM
REM
REM ./C.cell (11c1c37f851c82e70ff6c80c92926a4b)
REM
REM compiler GCC version 9.2.1 20190827 (Red Hat 9.2.1-1)
REM options -cpp -mtune=generic -march=x86-64 -g -O0 -fpre-include=/usr/include/finclude/math-vector-fortran.h
REM seed 283662107 -1794879263 137478619 1779971298 1942243430 1943944855 -1183810292 666335872 1559392959 1281958319 -624142175 -929925652 1699262094 1544562603 -491531978 490197056 261924051 -532073532 -436095756 93953393 352727028 714075189 -1821753390 230298148 1036900696 -1645733697 340550358 -1605392668 -641428450 1493888958 -1848714987 -206007330 -1363241131
REM
CELL 1.54180   50.00000   50.00000   50.00000   90.00000   90.00000   90.00000
LATT -1
SFAC C  
C      1  0.5229900000000  0.4185160000000  0.4819330000000 1.0
C      1  0.4850410000000  0.5250250000000  0.5407350000000 1.0
C      1  0.5101560000000  0.5118820000000  0.4668280000000 1.0
C      1  0.4883660000000  0.5280890000000  0.4595200000000 1.0
C      1  0.5509620000000  0.5309370000000  0.5081730000000 1.0
C      1  0.4365670000000  0.5042980000000  0.4857680000000 1.0
C      1  0.5302240000000  0.5399790000000  0.5236660000000 1.0
C      1  0.4703240000000  0.4808540000000  0.4517520000000 1.0
C      1  0.4779160000000  0.4559120000000  0.5389980000000 1.0
C      1  0.5127860000000  0.4386090000000  0.4974990000000 1.0
C      1  0.5164050000000  0.4840640000000  0.4600660000000 1.0
C      1  0.5094270000000  0.5627100000000  0.5162430000000 1.0
C      1  0.4465710000000  0.5360900000000  0.4882510000000 1.0
C      1  0.5177080000000  0.5127840000000  0.4955890000000 1.0
C      1  0.4578270000000  0.5316370000000  0.5275380000000 1.0
C      1  0.5571820000000  0.4656010000000  0.5501370000000 1.0
C      1  0.4991250000000  0.5552290000000  0.5439420000000 1.0
C      1  0.5345680000000  0.4685400000000  0.5358050000000 1.0
C      1  0.5185920000000  0.5206520000000  0.5412510000000 1.0
C      1  0.4777610000000  0.4718480000000  0.5125750000000 1.0
C      1  0.4925840000000  0.4689070000000  0.4628270000000 1.0
C      1  0.5620100000000  0.4608710000000  0.4636360000000 1.0
C      1  0.5477880000000  0.5052770000000  0.4860910000000 1.0
C      1  0.4896740000000  0.5548660000000  0.4690500000000 1.0
C      1  0.4733520000000  0.5160270000000  0.4942980000000 1.0
C      1  0.4874100000000  0.4528880000000  0.4886990000000 1.0
C      1  0.5441430000000  0.4806680000000  0.4685100000000 1.0
C      1  0.4622980000000  0.5540470000000  0.5077060000000 1.0
C      1  0.4669050000000  0.4333620000000  0.4839680000000 1.0
C      1  0.4414740000000  0.5109490000000  0.5188570000000 1.0
C      1  0.4497330000000  0.4825110000000  0.5072040000000 1.0
C      1  0.5752190000000  0.5252800000000  0.4892310000000 1.0
C      1  0.5239180000000  0.4475450000000  0.5210580000000 1.0
C      1  0.4878690000000  0.5619540000000  0.4968380000000 1.0
C      1  0.5196480000000  0.4909960000000  0.5359960000000 1.0
C      1  0.4616950000000  0.5090010000000  0.4631360000000 1.0
C      1  0.4937830000000  0.5015940000000  0.5166240000000 1.0
END
