TITL C-2847955-7945-391 0.000271345663651702 125000 -172.254655069205 0 0 33 (C1) n - 1
REM
REM in /home/bkarasulu/work/CARBON/AIRSS/Generating-Clusters/AIREBO/with-SteepDescent/Only-C1/SD-CG-opt/Try1-1.4A-POS3A/HFTN-CG
REM
REM
REM
REM
REM
REM ./C.cell (11c1c37f851c82e70ff6c80c92926a4b)
REM
REM compiler GCC version 9.2.1 20190827 (Red Hat 9.2.1-1)
REM options -cpp -mtune=generic -march=x86-64 -g -O0 -fpre-include=/usr/include/finclude/math-vector-fortran.h
REM seed -613420184 367571524 1326110197 1753141372 336273603 474771438 -2031558318 1911244794 670808646 1721304087 545098322 65221250 -138990038 -696288685 463222344 116849323 -530002335 -1307992747 853758061 -290426598 1939035714 -2090591771 1342870297 -1243307600 -786977709 -78400350 -807080155 369005106 1872868049 -1803881795 -897968698 -1337076652 971543500
REM
CELL 1.54180   50.00000   50.00000   50.00000   90.00000   90.00000   90.00000
LATT -1
SFAC C  
C      1  0.4877270000000  0.5567920000000  0.5077460000000 1.0
C      1  0.4470260000000  0.4650220000000  0.5330310000000 1.0
C      1  0.5371470000000  0.5082560000000  0.4434400000000 1.0
C      1  0.4875490000000  0.5840100000000  0.5063790000000 1.0
C      1  0.5284290000000  0.4882250000000  0.5526620000000 1.0
C      1  0.5064660000000  0.5396160000000  0.4919500000000 1.0
C      1  0.4830170000000  0.4678230000000  0.4785260000000 1.0
C      1  0.5382410000000  0.4625530000000  0.5446680000000 1.0
C      1  0.5343670000000  0.4818890000000  0.4878600000000 1.0
C      1  0.4864060000000  0.5346970000000  0.5498490000000 1.0
C      1  0.4687900000000  0.4755010000000  0.5231260000000 1.0
C      1  0.5322800000000  0.5340910000000  0.5074640000000 1.0
C      1  0.5011730000000  0.4863270000000  0.5638930000000 1.0
C      1  0.5191030000000  0.4845810000000  0.5140830000000 1.0
C      1  0.5301410000000  0.5113480000000  0.5277900000000 1.0
C      1  0.5525900000000  0.5164590000000  0.4248490000000 1.0
C      1  0.5195960000000  0.4958000000000  0.4645330000000 1.0
C      1  0.4837560000000  0.4359250000000  0.4865880000000 1.0
C      1  0.4583130000000  0.5207590000000  0.5124590000000 1.0
C      1  0.4954860000000  0.4738480000000  0.5342960000000 1.0
C      1  0.4999070000000  0.5419910000000  0.4592230000000 1.0
C      1  0.4684140000000  0.4931760000000  0.4957960000000 1.0
C      1  0.4424770000000  0.4909370000000  0.4794790000000 1.0
C      1  0.4796850000000  0.5004190000000  0.4383170000000 1.0
C      1  0.4832340000000  0.5275300000000  0.4429970000000 1.0
C      1  0.5062520000000  0.4564280000000  0.4999970000000 1.0
C      1  0.4931320000000  0.4827740000000  0.4541580000000 1.0
C      1  0.5201260000000  0.4475430000000  0.5286570000000 1.0
C      1  0.4949550000000  0.5103980000000  0.4828590000000 1.0
C      1  0.5115760000000  0.5242920000000  0.5520330000000 1.0
C      1  0.4732760000000  0.5405110000000  0.5255880000000 1.0
C      1  0.5541880000000  0.5478820000000  0.5039070000000 1.0
C      1  0.4751730000000  0.4125940000000  0.4817950000000 1.0
END
