TITL C-2847946-5639-229 -0.00182956337621084 125000 -628.985682748207 0 0 117 (C1) n - 1
REM
REM in /home/bkarasulu/work/CARBON/AIRSS/Generating-Clusters/AIREBO/with-SteepDescent/Only-C1/SD-CG-opt/Try1-1.4A-POS3A/HFTN-CG
REM
REM
REM
REM
REM
REM ./C.cell (11c1c37f851c82e70ff6c80c92926a4b)
REM
REM compiler GCC version 9.2.1 20190827 (Red Hat 9.2.1-1)
REM options -cpp -mtune=generic -march=x86-64 -g -O0 -fpre-include=/usr/include/finclude/math-vector-fortran.h
REM seed -439552805 1940277108 -745747446 -291185608 1830970403 -1818681107 -1128863899 -1506359988 688847322 1540276543 276572527 54060801 226428664 475979955 28071027 -1850571098 1809025383 -1570400055 1883981139 -1847023165 -1669820837 -610899769 -1303517598 -2094606921 -370412640 -1244781529 242157203 -1060087052 -1692632652 -149106458 1609917857 1220613798 -751379331
REM
CELL 1.54180   50.00000   50.00000   50.00000   90.00000   90.00000   90.00000
LATT -1
SFAC C  
C      1  0.4433720000000  0.4001370000000  0.5240850000000 1.0
C      1  0.5335190000000  0.4402380000000  0.5119610000000 1.0
C      1  0.4522180000000  0.5490230000000  0.4792460000000 1.0
C      1  0.4332810000000  0.5272230000000  0.5569420000000 1.0
C      1  0.5237440000000  0.4977100000000  0.4475830000000 1.0
C      1  0.5915020000000  0.4644920000000  0.5432260000000 1.0
C      1  0.5928810000000  0.5143220000000  0.4641830000000 1.0
C      1  0.4533310000000  0.4546800000000  0.4359850000000 1.0
C      1  0.5108460000000  0.5764370000000  0.5667030000000 1.0
C      1  0.4803990000000  0.5620030000000  0.4814620000000 1.0
C      1  0.4655210000000  0.4397870000000  0.5787090000000 1.0
C      1  0.4185710000000  0.5375340000000  0.4789190000000 1.0
C      1  0.5104190000000  0.5800680000000  0.5166910000000 1.0
C      1  0.5491320000000  0.4231080000000  0.4762000000000 1.0
C      1  0.4950470000000  0.5497610000000  0.4058910000000 1.0
C      1  0.4873990000000  0.4622610000000  0.5743080000000 1.0
C      1  0.6049660000000  0.4872930000000  0.5350340000000 1.0
C      1  0.4453850000000  0.4826760000000  0.5706820000000 1.0
C      1  0.5092350000000  0.5984490000000  0.4955930000000 1.0
C      1  0.5189940000000  0.5262060000000  0.4296360000000 1.0
C      1  0.4395940000000  0.5455470000000  0.5338850000000 1.0
C      1  0.5632250000000  0.4927820000000  0.5727480000000 1.0
C      1  0.5190160000000  0.5922160000000  0.4576680000000 1.0
C      1  0.5461090000000  0.5512380000000  0.4619900000000 1.0
C      1  0.5408910000000  0.4719420000000  0.5604820000000 1.0
C      1  0.5470340000000  0.6340550000000  0.4789000000000 1.0
C      1  0.4207980000000  0.4517250000000  0.6004780000000 1.0
C      1  0.4624610000000  0.5140910000000  0.5249060000000 1.0
C      1  0.5248550000000  0.5003510000000  0.5143930000000 1.0
C      1  0.4888780000000  0.5155650000000  0.4414040000000 1.0
C      1  0.5563920000000  0.4097970000000  0.4999500000000 1.0
C      1  0.5302680000000  0.6137990000000  0.4778410000000 1.0
C      1  0.5540070000000  0.4841820000000  0.4458030000000 1.0
C      1  0.5791410000000  0.4832490000000  0.4657290000000 1.0
C      1  0.5110350000000  0.5106730000000  0.5429860000000 1.0
C      1  0.4287450000000  0.5565700000000  0.4558110000000 1.0
C      1  0.5938700000000  0.4980350000000  0.5126050000000 1.0
C      1  0.4334490000000  0.5441000000000  0.4316080000000 1.0
C      1  0.5492530000000  0.4899100000000  0.4931370000000 1.0
C      1  0.5398090000000  0.5358120000000  0.5544790000000 1.0
C      1  0.4283730000000  0.4986930000000  0.5556010000000 1.0
C      1  0.5298390000000  0.4080930000000  0.5150740000000 1.0
C      1  0.4920520000000  0.5856540000000  0.4725730000000 1.0
C      1  0.4245550000000  0.5141110000000  0.4261620000000 1.0
C      1  0.4163720000000  0.4905330000000  0.4383640000000 1.0
C      1  0.4726800000000  0.5459620000000  0.5270170000000 1.0
C      1  0.4364030000000  0.4348620000000  0.4735500000000 1.0
C      1  0.5067140000000  0.5211260000000  0.4942140000000 1.0
C      1  0.4209570000000  0.4514300000000  0.5146270000000 1.0
C      1  0.5029840000000  0.4182020000000  0.4998260000000 1.0
C      1  0.4919450000000  0.4411220000000  0.5224140000000 1.0
C      1  0.4545840000000  0.5442390000000  0.5734900000000 1.0
C      1  0.5324140000000  0.4477420000000  0.4839710000000 1.0
C      1  0.4857140000000  0.5223120000000  0.4082220000000 1.0
C      1  0.4676130000000  0.5651350000000  0.5541060000000 1.0
C      1  0.5620620000000  0.5227360000000  0.4525260000000 1.0
C      1  0.5317520000000  0.4301510000000  0.4483970000000 1.0
C      1  0.5011990000000  0.4733080000000  0.4845650000000 1.0
C      1  0.5511500000000  0.5160570000000  0.5291960000000 1.0
C      1  0.4833140000000  0.5339230000000  0.5729840000000 1.0
C      1  0.4830870000000  0.5131510000000  0.5519220000000 1.0
C      1  0.4983680000000  0.5947960000000  0.5824910000000 1.0
C      1  0.5457990000000  0.4900910000000  0.4151330000000 1.0
C      1  0.5143140000000  0.5467800000000  0.5741790000000 1.0
C      1  0.5382310000000  0.4630780000000  0.5321470000000 1.0
C      1  0.5754350000000  0.4243730000000  0.5152480000000 1.0
C      1  0.5497830000000  0.5179650000000  0.4252530000000 1.0
C      1  0.5083830000000  0.4707630000000  0.5177150000000 1.0
C      1  0.5158410000000  0.5570240000000  0.4261140000000 1.0
C      1  0.4565940000000  0.5208230000000  0.4351600000000 1.0
C      1  0.4108730000000  0.5211670000000  0.4980830000000 1.0
C      1  0.4240910000000  0.4638070000000  0.4830430000000 1.0
C      1  0.5771990000000  0.5234680000000  0.5110230000000 1.0
C      1  0.4684850000000  0.4399950000000  0.5470430000000 1.0
C      1  0.5041680000000  0.4732780000000  0.4341950000000 1.0
C      1  0.5195120000000  0.5393460000000  0.5274220000000 1.0
C      1  0.4960840000000  0.5506310000000  0.5074070000000 1.0
C      1  0.4595940000000  0.5174610000000  0.4683050000000 1.0
C      1  0.4403570000000  0.4762180000000  0.4484380000000 1.0
C      1  0.4342430000000  0.5109620000000  0.5148410000000 1.0
C      1  0.5618120000000  0.5179870000000  0.5722540000000 1.0
C      1  0.5774080000000  0.4760870000000  0.4976240000000 1.0
C      1  0.4239020000000  0.4824900000000  0.5260180000000 1.0
C      1  0.5547540000000  0.5202930000000  0.4856750000000 1.0
C      1  0.5155420000000  0.4583630000000  0.4584500000000 1.0
C      1  0.5381340000000  0.5438590000000  0.5036940000000 1.0
C      1  0.4490070000000  0.4864660000000  0.4774630000000 1.0
C      1  0.4523300000000  0.4754830000000  0.5086980000000 1.0
C      1  0.5495360000000  0.5666380000000  0.5439260000000 1.0
C      1  0.5240950000000  0.5811410000000  0.5417430000000 1.0
C      1  0.5804360000000  0.5460470000000  0.4691200000000 1.0
C      1  0.4692310000000  0.4181800000000  0.5954210000000 1.0
C      1  0.4405140000000  0.5611860000000  0.5087710000000 1.0
C      1  0.5799630000000  0.4541950000000  0.4489260000000 1.0
C      1  0.4874360000000  0.4436990000000  0.4828270000000 1.0
C      1  0.5241010000000  0.4986510000000  0.5674050000000 1.0
C      1  0.5305320000000  0.5704940000000  0.4448280000000 1.0
C      1  0.5899010000000  0.5481920000000  0.5131590000000 1.0
C      1  0.5255740000000  0.5243290000000  0.4686960000000 1.0
C      1  0.4897630000000  0.5032680000000  0.4731940000000 1.0
C      1  0.5185330000000  0.4852090000000  0.4091680000000 1.0
C      1  0.4731100000000  0.4837750000000  0.5592830000000 1.0
C      1  0.3966330000000  0.4972380000000  0.5115970000000 1.0
C      1  0.5004560000000  0.5016640000000  0.3942250000000 1.0
C      1  0.5247910000000  0.5186470000000  0.5873160000000 1.0
C      1  0.4580180000000  0.4458210000000  0.4940410000000 1.0
C      1  0.4026950000000  0.4757190000000  0.4615840000000 1.0
C      1  0.4779680000000  0.4834810000000  0.5261580000000 1.0
C      1  0.4417890000000  0.4591850000000  0.5847690000000 1.0
C      1  0.5141620000000  0.4641440000000  0.5763860000000 1.0
C      1  0.4395780000000  0.4336080000000  0.5300490000000 1.0
C      1  0.4661050000000  0.4209080000000  0.5134560000000 1.0
C      1  0.5694270000000  0.4548030000000  0.5213770000000 1.0
C      1  0.5629250000000  0.4374620000000  0.4416050000000 1.0
C      1  0.4780380000000  0.4603210000000  0.4248060000000 1.0
C      1  0.5061920000000  0.4204170000000  0.4666320000000 1.0
C      1  0.4439020000000  0.4309360000000  0.4477750000000 1.0
END
