TITL C-2847955-7945-541 -0.000623358193617022 125000 -921.85045848716 0 0 172 (C1) n - 1
REM
REM in /home/bkarasulu/work/CARBON/AIRSS/Generating-Clusters/AIREBO/with-SteepDescent/Only-C1/SD-CG-opt/Try1-1.4A-POS3A/HFTN-CG
REM
REM
REM
REM
REM
REM ./C.cell (11c1c37f851c82e70ff6c80c92926a4b)
REM
REM compiler GCC version 9.2.1 20190827 (Red Hat 9.2.1-1)
REM options -cpp -mtune=generic -march=x86-64 -g -O0 -fpre-include=/usr/include/finclude/math-vector-fortran.h
REM seed -1390754926 -80653486 -421154366 668442556 -1787784428 -1493093930 473822894 -915555186 -2013641044 -1228075106 -1046486810 1391183420 -327119915 -2080595906 -293913010 -669604670 -124593514 1841596379 -996184172 -130548485 114848749 -2065616359 -1322918113 795485466 1257789207 -181506534 -1507058626 -1303551498 -2041249773 1670503096 -478457144 981469425 1717384179
REM
CELL 1.54180   50.00000   50.00000   50.00000   90.00000   90.00000   90.00000
LATT -1
SFAC C  
C      1  0.5027210000000  0.5278830000000  0.6134660000000 1.0
C      1  0.5718330000000  0.4527250000000  0.5003830000000 1.0
C      1  0.5326450000000  0.4236160000000  0.4976870000000 1.0
C      1  0.4508280000000  0.5510270000000  0.5050580000000 1.0
C      1  0.4537940000000  0.4950900000000  0.4863760000000 1.0
C      1  0.4983120000000  0.4266960000000  0.4582850000000 1.0
C      1  0.5220790000000  0.5734410000000  0.5827150000000 1.0
C      1  0.3974470000000  0.5459230000000  0.4932100000000 1.0
C      1  0.5245370000000  0.4724570000000  0.3957750000000 1.0
C      1  0.5581250000000  0.5672140000000  0.5207810000000 1.0
C      1  0.4256900000000  0.5321750000000  0.4398830000000 1.0
C      1  0.4296250000000  0.4723730000000  0.4866240000000 1.0
C      1  0.5623150000000  0.5812130000000  0.4825180000000 1.0
C      1  0.5104060000000  0.5228170000000  0.3936360000000 1.0
C      1  0.5544620000000  0.4851200000000  0.3973670000000 1.0
C      1  0.4705330000000  0.4313930000000  0.4995030000000 1.0
C      1  0.5200800000000  0.5494700000000  0.5351330000000 1.0
C      1  0.5566080000000  0.4950380000000  0.5724470000000 1.0
C      1  0.5783890000000  0.4851070000000  0.5506780000000 1.0
C      1  0.5236670000000  0.5167360000000  0.4411640000000 1.0
C      1  0.5220890000000  0.3978270000000  0.5104900000000 1.0
C      1  0.4860970000000  0.6039020000000  0.4884740000000 1.0
C      1  0.4688500000000  0.4074450000000  0.4235420000000 1.0
C      1  0.5840710000000  0.4547630000000  0.5405510000000 1.0
C      1  0.3793560000000  0.4947050000000  0.4880140000000 1.0
C      1  0.5086970000000  0.4697730000000  0.4591520000000 1.0
C      1  0.4706630000000  0.5793120000000  0.5461340000000 1.0
C      1  0.5525100000000  0.4496440000000  0.4585210000000 1.0
C      1  0.4163230000000  0.5007200000000  0.4348270000000 1.0
C      1  0.4108330000000  0.5456170000000  0.4633550000000 1.0
C      1  0.5435280000000  0.5274610000000  0.4154480000000 1.0
C      1  0.4917440000000  0.4634770000000  0.6021290000000 1.0
C      1  0.4464050000000  0.5748150000000  0.4155890000000 1.0
C      1  0.5983270000000  0.4915630000000  0.5026990000000 1.0
C      1  0.5171910000000  0.4486950000000  0.5137680000000 1.0
C      1  0.5665450000000  0.5257440000000  0.5614780000000 1.0
C      1  0.4818840000000  0.4368510000000  0.5480350000000 1.0
C      1  0.4806250000000  0.4849450000000  0.6131330000000 1.0
C      1  0.4211470000000  0.5784380000000  0.5055000000000 1.0
C      1  0.5400280000000  0.4945060000000  0.4845660000000 1.0
C      1  0.5470870000000  0.4630070000000  0.4306910000000 1.0
C      1  0.4758570000000  0.4835490000000  0.3858800000000 1.0
C      1  0.5236720000000  0.5520150000000  0.4707940000000 1.0
C      1  0.5090460000000  0.4967140000000  0.4099340000000 1.0
C      1  0.4295760000000  0.5064680000000  0.5073910000000 1.0
C      1  0.5942920000000  0.5448040000000  0.5201690000000 1.0
C      1  0.4267520000000  0.4246520000000  0.5050570000000 1.0
C      1  0.4468450000000  0.4240850000000  0.4270280000000 1.0
C      1  0.5568500000000  0.5794090000000  0.4295650000000 1.0
C      1  0.3995990000000  0.4778800000000  0.5486170000000 1.0
C      1  0.5044270000000  0.5480090000000  0.4109680000000 1.0
C      1  0.5013260000000  0.5270900000000  0.4648040000000 1.0
C      1  0.4700600000000  0.4413870000000  0.4703460000000 1.0
C      1  0.5486160000000  0.4730290000000  0.5095040000000 1.0
C      1  0.5916040000000  0.4681310000000  0.4804190000000 1.0
C      1  0.4456720000000  0.5329690000000  0.4775940000000 1.0
C      1  0.4195640000000  0.5388120000000  0.5105780000000 1.0
C      1  0.4348770000000  0.4458210000000  0.5464060000000 1.0
C      1  0.4037910000000  0.4841670000000  0.5024450000000 1.0
C      1  0.4750760000000  0.5260790000000  0.5712660000000 1.0
C      1  0.5338220000000  0.4626410000000  0.4805200000000 1.0
C      1  0.5397670000000  0.5480620000000  0.5005040000000 1.0
C      1  0.6004160000000  0.5257670000000  0.4467440000000 1.0
C      1  0.3985770000000  0.5074260000000  0.5477720000000 1.0
C      1  0.5212950000000  0.3743050000000  0.4966670000000 1.0
C      1  0.5048060000000  0.5387010000000  0.5616740000000 1.0
C      1  0.4272980000000  0.5201380000000  0.5697010000000 1.0
C      1  0.4693550000000  0.5311410000000  0.4545870000000 1.0
C      1  0.5407810000000  0.3997190000000  0.4529500000000 1.0
C      1  0.4926710000000  0.4221580000000  0.4300690000000 1.0
C      1  0.4799080000000  0.4910180000000  0.4174000000000 1.0
C      1  0.5604540000000  0.5003850000000  0.4271660000000 1.0
C      1  0.4934130000000  0.6058570000000  0.4593850000000 1.0
C      1  0.4447270000000  0.4997930000000  0.4534920000000 1.0
C      1  0.4600760000000  0.4125970000000  0.5462330000000 1.0
C      1  0.4373590000000  0.4419320000000  0.4798580000000 1.0
C      1  0.4798010000000  0.5142500000000  0.3857540000000 1.0
C      1  0.4998640000000  0.4776020000000  0.5186630000000 1.0
C      1  0.5732170000000  0.5248800000000  0.4830450000000 1.0
C      1  0.5653460000000  0.5288710000000  0.5120900000000 1.0
C      1  0.4534010000000  0.5497650000000  0.4310010000000 1.0
C      1  0.4482430000000  0.4779330000000  0.5805310000000 1.0
C      1  0.5505060000000  0.4287120000000  0.5846580000000 1.0
C      1  0.6075210000000  0.5135750000000  0.5225640000000 1.0
C      1  0.6026440000000  0.4590010000000  0.5120740000000 1.0
C      1  0.5640030000000  0.4365230000000  0.5592700000000 1.0
C      1  0.4167800000000  0.5150450000000  0.4770480000000 1.0
C      1  0.5069980000000  0.5781710000000  0.4847420000000 1.0
C      1  0.4702460000000  0.5593870000000  0.5662550000000 1.0
C      1  0.5247030000000  0.4831530000000  0.4359370000000 1.0
C      1  0.5842590000000  0.5478290000000  0.4525950000000 1.0
C      1  0.5335480000000  0.4768570000000  0.5599930000000 1.0
C      1  0.5072470000000  0.5415490000000  0.5056370000000 1.0
C      1  0.5109660000000  0.5532250000000  0.6064010000000 1.0
C      1  0.4492350000000  0.5808260000000  0.4724740000000 1.0
C      1  0.4109850000000  0.5351500000000  0.5403880000000 1.0
C      1  0.4452690000000  0.4067460000000  0.5179130000000 1.0
C      1  0.5910590000000  0.5009010000000  0.4419870000000 1.0
C      1  0.4704780000000  0.4712210000000  0.5029320000000 1.0
C      1  0.5487070000000  0.5056810000000  0.4586400000000 1.0
C      1  0.5601940000000  0.5289270000000  0.5931480000000 1.0
C      1  0.5798780000000  0.4699140000000  0.4524980000000 1.0
C      1  0.5375650000000  0.4572770000000  0.5375860000000 1.0
C      1  0.4992630000000  0.4483860000000  0.5740390000000 1.0
C      1  0.5880230000000  0.5436950000000  0.5533400000000 1.0
C      1  0.4524470000000  0.4934880000000  0.6036110000000 1.0
C      1  0.5231840000000  0.5085320000000  0.6180910000000 1.0
C      1  0.5503460000000  0.4509810000000  0.3990530000000 1.0
C      1  0.5527790000000  0.5385220000000  0.4600500000000 1.0
C      1  0.4726210000000  0.5638780000000  0.4631930000000 1.0
C      1  0.4986450000000  0.4805700000000  0.4860420000000 1.0
C      1  0.5695440000000  0.5743910000000  0.4549410000000 1.0
C      1  0.4521560000000  0.4515710000000  0.5197940000000 1.0
C      1  0.5296240000000  0.4256600000000  0.4662420000000 1.0
C      1  0.4379480000000  0.4214970000000  0.5662030000000 1.0
C      1  0.3979840000000  0.4646690000000  0.5240410000000 1.0
C      1  0.5251810000000  0.5105680000000  0.5276050000000 1.0
C      1  0.4139170000000  0.4517950000000  0.4572530000000 1.0
C      1  0.5708920000000  0.4963380000000  0.5202980000000 1.0
C      1  0.6234180000000  0.5563700000000  0.5193260000000 1.0
C      1  0.4520550000000  0.4553700000000  0.4279790000000 1.0
C      1  0.5828540000000  0.5720880000000  0.5033990000000 1.0
C      1  0.4743430000000  0.4984490000000  0.4465060000000 1.0
C      1  0.5210740000000  0.4281710000000  0.5802890000000 1.0
C      1  0.5804450000000  0.4239260000000  0.5266810000000 1.0
C      1  0.5368800000000  0.5872380000000  0.4936120000000 1.0
C      1  0.5051540000000  0.4863230000000  0.5633800000000 1.0
C      1  0.4223100000000  0.4439020000000  0.4317960000000 1.0
C      1  0.5540690000000  0.5831240000000  0.5425460000000 1.0
C      1  0.5242620000000  0.5840050000000  0.5559710000000 1.0
C      1  0.4915260000000  0.5811750000000  0.4479730000000 1.0
C      1  0.4785960000000  0.4646920000000  0.4470840000000 1.0
C      1  0.4905590000000  0.4490700000000  0.4193400000000 1.0
C      1  0.4908740000000  0.3980840000000  0.5468250000000 1.0
C      1  0.5442740000000  0.5561700000000  0.6002030000000 1.0
C      1  0.4089040000000  0.4851080000000  0.4628620000000 1.0
C      1  0.4656060000000  0.3979750000000  0.4986950000000 1.0
C      1  0.4753520000000  0.5303340000000  0.4154170000000 1.0
C      1  0.6048270000000  0.5030370000000  0.5485290000000 1.0
C      1  0.5130990000000  0.5629520000000  0.4403810000000 1.0
C      1  0.4280690000000  0.4722210000000  0.5597720000000 1.0
C      1  0.5308760000000  0.5348660000000  0.5770780000000 1.0
C      1  0.5335160000000  0.4254290000000  0.5488870000000 1.0
C      1  0.5169600000000  0.4015330000000  0.5376840000000 1.0
C      1  0.4243040000000  0.5714370000000  0.4786280000000 1.0
C      1  0.5412030000000  0.5248110000000  0.3837900000000 1.0
C      1  0.4628030000000  0.5333980000000  0.5293910000000 1.0
C      1  0.4418280000000  0.5475440000000  0.5755390000000 1.0
C      1  0.4824640000000  0.5564350000000  0.4937940000000 1.0
C      1  0.5467890000000  0.5298570000000  0.5389200000000 1.0
C      1  0.4758540000000  0.4718530000000  0.5664260000000 1.0
C      1  0.4959140000000  0.4618900000000  0.3954390000000 1.0
C      1  0.4600510000000  0.5961010000000  0.4943530000000 1.0
C      1  0.5624210000000  0.4243780000000  0.5034010000000 1.0
C      1  0.4137840000000  0.4413810000000  0.5235340000000 1.0
C      1  0.5356710000000  0.5585560000000  0.4193210000000 1.0
C      1  0.4775390000000  0.5163530000000  0.6010370000000 1.0
C      1  0.5776070000000  0.4722060000000  0.4188570000000 1.0
C      1  0.4899030000000  0.4394670000000  0.5222150000000 1.0
C      1  0.4244670000000  0.4112540000000  0.5854190000000 1.0
C      1  0.4404050000000  0.5463100000000  0.5435980000000 1.0
C      1  0.4464710000000  0.5122820000000  0.4217480000000 1.0
C      1  0.5199180000000  0.5805990000000  0.5223280000000 1.0
C      1  0.4315650000000  0.5009590000000  0.5419250000000 1.0
C      1  0.5025050000000  0.5107010000000  0.5468310000000 1.0
C      1  0.5131310000000  0.5089460000000  0.4979520000000 1.0
C      1  0.4952000000000  0.5922110000000  0.5423540000000 1.0
C      1  0.4641670000000  0.5004670000000  0.5516500000000 1.0
C      1  0.4808940000000  0.5160380000000  0.4897260000000 1.0
C      1  0.4506490000000  0.5803190000000  0.5223270000000 1.0
C      1  0.5449940000000  0.5026200000000  0.6034630000000 1.0
C      1  0.4800540000000  0.5050640000000  0.5219240000000 1.0
END
