TITL C-2848499-1157-657 -0.000452704740546921 125000 -557.596964401267 0 0 102 (C1) n - 1
REM
REM in /home/bkarasulu/work/CARBON/AIRSS/Generating-Clusters/AIREBO/with-SteepDescent/Only-C1/SD-CG-opt/Try1-1.4A-POS3A/HFTN-CG
REM
REM
REM
REM
REM
REM ./C.cell (11c1c37f851c82e70ff6c80c92926a4b)
REM
REM compiler GCC version 9.2.1 20190827 (Red Hat 9.2.1-1)
REM options -cpp -mtune=generic -march=x86-64 -g -O0 -fpre-include=/usr/include/finclude/math-vector-fortran.h
REM seed 960142813 -792526142 1145102961 -1012406421 2082857658 252568595 -1281637 471540992 1713855606 -247073144 -1195925575 190413240 1221368867 219015581 -1480564924 -572601932 1076453307 -307937205 -1179521734 234991251 -1996865806 867234661 -460777500 -1783917264 -1890648389 1873068621 -1762133758 -80524805 1173780274 1641300314 1468104122 -2021701520 1093693772
REM
CELL 1.54180   50.00000   50.00000   50.00000   90.00000   90.00000   90.00000
LATT -1
SFAC C  
C      1  0.5387130000000  0.4376970000000  0.5333280000000 1.0
C      1  0.5570840000000  0.4915700000000  0.5740120000000 1.0
C      1  0.5161930000000  0.4528470000000  0.4530280000000 1.0
C      1  0.5019580000000  0.5263630000000  0.5048730000000 1.0
C      1  0.4822080000000  0.4869520000000  0.4701270000000 1.0
C      1  0.4323840000000  0.4563010000000  0.5533440000000 1.0
C      1  0.4975060000000  0.4842250000000  0.5682320000000 1.0
C      1  0.5661800000000  0.4814240000000  0.5487690000000 1.0
C      1  0.5146200000000  0.4143860000000  0.5756520000000 1.0
C      1  0.4920490000000  0.4829930000000  0.4123540000000 1.0
C      1  0.5291190000000  0.5556830000000  0.4518790000000 1.0
C      1  0.5185560000000  0.4221980000000  0.4274460000000 1.0
C      1  0.4399020000000  0.5762140000000  0.4916670000000 1.0
C      1  0.4990120000000  0.4406710000000  0.5315490000000 1.0
C      1  0.4732890000000  0.4783740000000  0.4384580000000 1.0
C      1  0.5159840000000  0.4858660000000  0.5250760000000 1.0
C      1  0.4437030000000  0.4812270000000  0.4835110000000 1.0
C      1  0.4203840000000  0.4616860000000  0.4623620000000 1.0
C      1  0.5838350000000  0.4841460000000  0.4611940000000 1.0
C      1  0.5648370000000  0.4630260000000  0.4798780000000 1.0
C      1  0.5399740000000  0.4738820000000  0.5877390000000 1.0
C      1  0.4441870000000  0.5120100000000  0.5305320000000 1.0
C      1  0.4938540000000  0.5675600000000  0.5542590000000 1.0
C      1  0.4513540000000  0.5001730000000  0.4352700000000 1.0
C      1  0.4584970000000  0.5276950000000  0.5571480000000 1.0
C      1  0.5811340000000  0.5309380000000  0.5105420000000 1.0
C      1  0.5417940000000  0.4281320000000  0.4346710000000 1.0
C      1  0.4046350000000  0.5113370000000  0.5363120000000 1.0
C      1  0.4567670000000  0.4684860000000  0.5503860000000 1.0
C      1  0.5525710000000  0.4479810000000  0.4541440000000 1.0
C      1  0.4570450000000  0.5230780000000  0.4132340000000 1.0
C      1  0.5586380000000  0.5067100000000  0.5044340000000 1.0
C      1  0.4613960000000  0.5657490000000  0.5158520000000 1.0
C      1  0.5887250000000  0.5091050000000  0.4782800000000 1.0
C      1  0.4737460000000  0.5782180000000  0.4867240000000 1.0
C      1  0.5826340000000  0.4828630000000  0.5009930000000 1.0
C      1  0.5327050000000  0.5290570000000  0.4386760000000 1.0
C      1  0.4918060000000  0.5762930000000  0.5268100000000 1.0
C      1  0.4563220000000  0.4919090000000  0.5920220000000 1.0
C      1  0.5410000000000  0.5076560000000  0.5325610000000 1.0
C      1  0.4597390000000  0.5196100000000  0.4596290000000 1.0
C      1  0.5448850000000  0.5230310000000  0.4782320000000 1.0
C      1  0.5530550000000  0.4812150000000  0.4469670000000 1.0
C      1  0.5826090000000  0.4666440000000  0.5275270000000 1.0
C      1  0.4458550000000  0.5625680000000  0.5425910000000 1.0
C      1  0.4707550000000  0.4771190000000  0.5731140000000 1.0
C      1  0.4682600000000  0.5585980000000  0.5627640000000 1.0
C      1  0.4916160000000  0.4330390000000  0.4405120000000 1.0
C      1  0.4242920000000  0.5388650000000  0.5397990000000 1.0
C      1  0.4271110000000  0.5232490000000  0.4724150000000 1.0
C      1  0.5214350000000  0.5329820000000  0.5389710000000 1.0
C      1  0.4650590000000  0.4494570000000  0.4385110000000 1.0
C      1  0.5320000000000  0.5429170000000  0.5837250000000 1.0
C      1  0.5050280000000  0.4575740000000  0.4843950000000 1.0
C      1  0.5034410000000  0.5055430000000  0.5460360000000 1.0
C      1  0.5717040000000  0.4406310000000  0.5269470000000 1.0
C      1  0.5184440000000  0.4740940000000  0.4041960000000 1.0
C      1  0.4809750000000  0.5266180000000  0.5316380000000 1.0
C      1  0.4989200000000  0.5610420000000  0.4474710000000 1.0
C      1  0.4948430000000  0.5514940000000  0.4857670000000 1.0
C      1  0.4910640000000  0.4289820000000  0.4727450000000 1.0
C      1  0.5317930000000  0.5362510000000  0.5066960000000 1.0
C      1  0.5170250000000  0.4653550000000  0.5743240000000 1.0
C      1  0.5092720000000  0.5739640000000  0.5042430000000 1.0
C      1  0.4634980000000  0.5340810000000  0.5034300000000 1.0
C      1  0.5165560000000  0.5519880000000  0.5610550000000 1.0
C      1  0.5624780000000  0.5262720000000  0.4224800000000 1.0
C      1  0.4774470000000  0.5032810000000  0.4995800000000 1.0
C      1  0.4581350000000  0.4380950000000  0.5056870000000 1.0
C      1  0.5090810000000  0.4107280000000  0.4909120000000 1.0
C      1  0.5732660000000  0.5441090000000  0.5353950000000 1.0
C      1  0.4501190000000  0.5481050000000  0.4754940000000 1.0
C      1  0.4666600000000  0.4656690000000  0.4916110000000 1.0
C      1  0.4878280000000  0.5121530000000  0.4228870000000 1.0
C      1  0.5801020000000  0.5410490000000  0.4813130000000 1.0
C      1  0.4680440000000  0.4357340000000  0.5304520000000 1.0
C      1  0.4254160000000  0.5218890000000  0.5039480000000 1.0
C      1  0.5519440000000  0.5223980000000  0.5790570000000 1.0
C      1  0.4291330000000  0.4941490000000  0.4572200000000 1.0
C      1  0.4922390000000  0.4689710000000  0.5137830000000 1.0
C      1  0.5569620000000  0.5114760000000  0.4512110000000 1.0
C      1  0.4128860000000  0.4776450000000  0.4917700000000 1.0
C      1  0.4653420000000  0.4858270000000  0.5260600000000 1.0
C      1  0.5428490000000  0.4682930000000  0.5277220000000 1.0
C      1  0.5368520000000  0.5753020000000  0.5003690000000 1.0
C      1  0.5241130000000  0.4786950000000  0.4357360000000 1.0
C      1  0.5499210000000  0.5565330000000  0.4772040000000 1.0
C      1  0.5531800000000  0.5580560000000  0.5195860000000 1.0
C      1  0.4234630000000  0.5546530000000  0.5097600000000 1.0
C      1  0.4892470000000  0.5311640000000  0.4605270000000 1.0
C      1  0.4458890000000  0.4428290000000  0.4583160000000 1.0
C      1  0.4051840000000  0.4973150000000  0.5098210000000 1.0
C      1  0.5415340000000  0.4785850000000  0.4953390000000 1.0
C      1  0.5094980000000  0.5066260000000  0.4485080000000 1.0
C      1  0.4600430000000  0.4285610000000  0.4783830000000 1.0
C      1  0.4649530000000  0.5614320000000  0.4489370000000 1.0
C      1  0.5170700000000  0.4395740000000  0.5589860000000 1.0
C      1  0.4802580000000  0.5445890000000  0.4240210000000 1.0
C      1  0.5154260000000  0.4891050000000  0.4770550000000 1.0
C      1  0.5182800000000  0.4206670000000  0.5143970000000 1.0
C      1  0.5611470000000  0.5240930000000  0.5512640000000 1.0
C      1  0.4484770000000  0.5167870000000  0.5841820000000 1.0
END
