TITL C-2848504-8560-234 0.00283617707369736 125000 -504.815291024959 0 0 92 (C1) n - 1
REM
REM in /home/bkarasulu/work/CARBON/AIRSS/Generating-Clusters/AIREBO/with-SteepDescent/Only-C1/SD-CG-opt/Try1-1.4A-POS3A/HFTN-CG
REM
REM
REM
REM
REM
REM ./C.cell (11c1c37f851c82e70ff6c80c92926a4b)
REM
REM compiler GCC version 9.2.1 20190827 (Red Hat 9.2.1-1)
REM options -cpp -mtune=generic -march=x86-64 -g -O0 -fpre-include=/usr/include/finclude/math-vector-fortran.h
REM seed -926786432 -469279850 -1505722125 1519020063 -1966991754 -1454464345 297100580 976274311 -1237482973 1546665231 -1051839972 893078322 -1841774662 1431110442 188317343 -1835231775 1680920019 -526556931 1797823472 -1651806241 -705216488 389703403 -138939273 -233903813 1759723622 963209344 1175755780 -1374550816 2077236759 -277885983 -796251824 665560665 -241582531
REM
CELL 1.54180   50.00000   50.00000   50.00000   90.00000   90.00000   90.00000
LATT -1
SFAC C  
C      1  0.4858920000000  0.4217910000000  0.5066120000000 1.0
C      1  0.4711620000000  0.4484620000000  0.5190320000000 1.0
C      1  0.4767540000000  0.4749150000000  0.5047110000000 1.0
C      1  0.4955370000000  0.5694440000000  0.5301170000000 1.0
C      1  0.5014660000000  0.4509250000000  0.4845310000000 1.0
C      1  0.5476270000000  0.4367700000000  0.4947260000000 1.0
C      1  0.4201070000000  0.4809190000000  0.5321450000000 1.0
C      1  0.5343620000000  0.4288800000000  0.4644640000000 1.0
C      1  0.4727700000000  0.5249630000000  0.5294860000000 1.0
C      1  0.5791510000000  0.4913950000000  0.5448140000000 1.0
C      1  0.5200500000000  0.4605210000000  0.4224470000000 1.0
C      1  0.4942700000000  0.4329730000000  0.5602270000000 1.0
C      1  0.5402170000000  0.4873190000000  0.5000190000000 1.0
C      1  0.4266300000000  0.5078310000000  0.5424970000000 1.0
C      1  0.4417700000000  0.5334440000000  0.5288470000000 1.0
C      1  0.5128010000000  0.4599840000000  0.5132720000000 1.0
C      1  0.5631820000000  0.5179320000000  0.5554160000000 1.0
C      1  0.4335210000000  0.4572190000000  0.5467790000000 1.0
C      1  0.5296430000000  0.4354580000000  0.5297890000000 1.0
C      1  0.5013890000000  0.5117690000000  0.5884810000000 1.0
C      1  0.5044780000000  0.5078580000000  0.4079040000000 1.0
C      1  0.5352430000000  0.4873410000000  0.5817350000000 1.0
C      1  0.5175050000000  0.4224700000000  0.4939720000000 1.0
C      1  0.5070790000000  0.5773000000000  0.4300510000000 1.0
C      1  0.5446130000000  0.4965450000000  0.4423890000000 1.0
C      1  0.4344260000000  0.5380940000000  0.5003120000000 1.0
C      1  0.4919030000000  0.5447640000000  0.5429820000000 1.0
C      1  0.4493190000000  0.4035900000000  0.4758410000000 1.0
C      1  0.5441830000000  0.5561640000000  0.5148650000000 1.0
C      1  0.5678810000000  0.4818400000000  0.5161920000000 1.0
C      1  0.5515630000000  0.5421680000000  0.4649570000000 1.0
C      1  0.4975210000000  0.5522690000000  0.4219190000000 1.0
C      1  0.5591780000000  0.5267050000000  0.4924120000000 1.0
C      1  0.5379710000000  0.5132500000000  0.5725100000000 1.0
C      1  0.5180000000000  0.5045940000000  0.4623200000000 1.0
C      1  0.5282490000000  0.5507600000000  0.4853070000000 1.0
C      1  0.5460750000000  0.5520170000000  0.5672240000000 1.0
C      1  0.4341840000000  0.5519010000000  0.4692250000000 1.0
C      1  0.4779460000000  0.4694050000000  0.5625790000000 1.0
C      1  0.4260360000000  0.4801920000000  0.4998870000000 1.0
C      1  0.4825970000000  0.4744180000000  0.4720150000000 1.0
C      1  0.5107700000000  0.5772450000000  0.4807660000000 1.0
C      1  0.4698870000000  0.5462850000000  0.4235670000000 1.0
C      1  0.4535180000000  0.5187200000000  0.4799090000000 1.0
C      1  0.4881290000000  0.4501650000000  0.4280670000000 1.0
C      1  0.5190340000000  0.5142250000000  0.5341260000000 1.0
C      1  0.4509130000000  0.4880830000000  0.4920540000000 1.0
C      1  0.5420660000000  0.5369820000000  0.5391940000000 1.0
C      1  0.4602230000000  0.4522180000000  0.5451370000000 1.0
C      1  0.5004010000000  0.4899110000000  0.5237410000000 1.0
C      1  0.5378900000000  0.4744870000000  0.5304790000000 1.0
C      1  0.4035830000000  0.5032240000000  0.4547660000000 1.0
C      1  0.4512460000000  0.5098650000000  0.5596130000000 1.0
C      1  0.5086310000000  0.4588430000000  0.5729010000000 1.0
C      1  0.5436950000000  0.4762660000000  0.4221700000000 1.0
C      1  0.4955890000000  0.4854140000000  0.5866150000000 1.0
C      1  0.5016210000000  0.4281360000000  0.5346350000000 1.0
C      1  0.5823760000000  0.5097860000000  0.5094920000000 1.0
C      1  0.5144280000000  0.4342170000000  0.4433790000000 1.0
C      1  0.4744110000000  0.5783050000000  0.5124300000000 1.0
C      1  0.5551200000000  0.4549440000000  0.4682840000000 1.0
C      1  0.5693090000000  0.4593950000000  0.5492090000000 1.0
C      1  0.5087470000000  0.5246560000000  0.4859000000000 1.0
C      1  0.3970580000000  0.4718280000000  0.5087910000000 1.0
C      1  0.5601630000000  0.4416010000000  0.5255310000000 1.0
C      1  0.5318530000000  0.5161330000000  0.5048180000000 1.0
C      1  0.5392880000000  0.5271140000000  0.4370470000000 1.0
C      1  0.4810630000000  0.5216330000000  0.4996460000000 1.0
C      1  0.4806000000000  0.5713480000000  0.4864790000000 1.0
C      1  0.3807890000000  0.4914520000000  0.4493930000000 1.0
C      1  0.5109790000000  0.5299280000000  0.5631960000000 1.0
C      1  0.4745190000000  0.5198720000000  0.4531920000000 1.0
C      1  0.4085690000000  0.5543030000000  0.4883200000000 1.0
C      1  0.5660880000000  0.5480950000000  0.4368830000000 1.0
C      1  0.4271880000000  0.5129690000000  0.4587510000000 1.0
C      1  0.4762220000000  0.4959610000000  0.5452730000000 1.0
C      1  0.4508830000000  0.5233220000000  0.5833990000000 1.0
C      1  0.5752740000000  0.5424870000000  0.5176410000000 1.0
C      1  0.4911400000000  0.4951160000000  0.4522770000000 1.0
C      1  0.4460930000000  0.5351950000000  0.4425510000000 1.0
C      1  0.4842440000000  0.4368530000000  0.4588100000000 1.0
C      1  0.5188720000000  0.5758740000000  0.5141110000000 1.0
C      1  0.5151330000000  0.5306680000000  0.4189470000000 1.0
C      1  0.5827220000000  0.4538740000000  0.4563920000000 1.0
C      1  0.4678800000000  0.5489530000000  0.4726810000000 1.0
C      1  0.4701670000000  0.4185580000000  0.4798270000000 1.0
C      1  0.5922340000000  0.5228630000000  0.5396320000000 1.0
C      1  0.4366340000000  0.5583470000000  0.5461520000000 1.0
C      1  0.5416170000000  0.4817760000000  0.4711350000000 1.0
C      1  0.5372660000000  0.4635860000000  0.5600510000000 1.0
C      1  0.5144600000000  0.5894530000000  0.4531700000000 1.0
C      1  0.4951620000000  0.4829010000000  0.4244580000000 1.0
END
