TITL C-2847959-7740-134 0.00147224491505564 125000 -1002.34781042924 0 0 186 (C1) n - 1
REM
REM in /home/bkarasulu/work/CARBON/AIRSS/Generating-Clusters/AIREBO/with-SteepDescent/Only-C1/SD-CG-opt/Try1-1.4A-POS3A/HFTN-CG
REM
REM
REM
REM
REM
REM ./C.cell (11c1c37f851c82e70ff6c80c92926a4b)
REM
REM compiler GCC version 9.2.1 20190827 (Red Hat 9.2.1-1)
REM options -cpp -mtune=generic -march=x86-64 -g -O0 -fpre-include=/usr/include/finclude/math-vector-fortran.h
REM seed -67596455 -2088951459 -907767164 936132579 -1625483352 533548607 1470179650 -1204023827 -51319971 -607130153 261297633 192975890 -1010454113 -1049470372 419830953 1516882090 714733510 1275371458 1234292798 1972835475 -1550098711 -47148401 652083346 722211393 295786164 -1705404502 -1651264354 -404504416 -483401763 1736299727 260024682 1083787246 -1093026109
REM
CELL 1.54180   50.00000   50.00000   50.00000   90.00000   90.00000   90.00000
LATT -1
SFAC C  
C      1  0.5181250000000  0.5352520000000  0.5976440000000 1.0
C      1  0.4542430000000  0.4683200000000  0.5119650000000 1.0
C      1  0.4975090000000  0.5817900000000  0.5287990000000 1.0
C      1  0.4439330000000  0.4261520000000  0.4831290000000 1.0
C      1  0.4443340000000  0.4564940000000  0.4677570000000 1.0
C      1  0.5464480000000  0.4269850000000  0.4204370000000 1.0
C      1  0.4202070000000  0.4438500000000  0.4386690000000 1.0
C      1  0.5402280000000  0.5479030000000  0.5262160000000 1.0
C      1  0.4991850000000  0.5005030000000  0.6270620000000 1.0
C      1  0.4101980000000  0.4256030000000  0.5258780000000 1.0
C      1  0.5047470000000  0.4805640000000  0.5167900000000 1.0
C      1  0.5502040000000  0.5019370000000  0.3940690000000 1.0
C      1  0.3886600000000  0.4978730000000  0.4941920000000 1.0
C      1  0.4369010000000  0.4260920000000  0.5437860000000 1.0
C      1  0.4833440000000  0.5085480000000  0.5516120000000 1.0
C      1  0.4560260000000  0.5453540000000  0.5624950000000 1.0
C      1  0.4601830000000  0.3975510000000  0.5160000000000 1.0
C      1  0.4757500000000  0.5335450000000  0.4742930000000 1.0
C      1  0.5287450000000  0.4864160000000  0.4608450000000 1.0
C      1  0.5182060000000  0.5218520000000  0.4993600000000 1.0
C      1  0.5615020000000  0.5042980000000  0.4969140000000 1.0
C      1  0.5405770000000  0.5302520000000  0.4577580000000 1.0
C      1  0.4727310000000  0.4555300000000  0.4864400000000 1.0
C      1  0.4877000000000  0.4335080000000  0.4652850000000 1.0
C      1  0.4634530000000  0.4555810000000  0.5745610000000 1.0
C      1  0.5197090000000  0.4199550000000  0.5154340000000 1.0
C      1  0.4211820000000  0.4718410000000  0.5048130000000 1.0
C      1  0.4798410000000  0.4022310000000  0.5418140000000 1.0
C      1  0.3961300000000  0.4538090000000  0.5298600000000 1.0
C      1  0.6105070000000  0.4612030000000  0.5233610000000 1.0
C      1  0.5455300000000  0.5034020000000  0.5650550000000 1.0
C      1  0.4496880000000  0.5863270000000  0.5473560000000 1.0
C      1  0.4980800000000  0.4557750000000  0.5392090000000 1.0
C      1  0.4991440000000  0.3938690000000  0.5148330000000 1.0
C      1  0.4578890000000  0.5098260000000  0.4577000000000 1.0
C      1  0.5661040000000  0.4615350000000  0.4209270000000 1.0
C      1  0.5247030000000  0.6109970000000  0.5253280000000 1.0
C      1  0.4760410000000  0.4929920000000  0.6110020000000 1.0
C      1  0.5344110000000  0.4972160000000  0.5162990000000 1.0
C      1  0.5569200000000  0.4718980000000  0.5654070000000 1.0
C      1  0.4990610000000  0.6097760000000  0.4855080000000 1.0
C      1  0.4116730000000  0.5038570000000  0.5704240000000 1.0
C      1  0.5866110000000  0.5384160000000  0.4522600000000 1.0
C      1  0.4130330000000  0.5190850000000  0.4268540000000 1.0
C      1  0.4886100000000  0.4646550000000  0.4513800000000 1.0
C      1  0.4839730000000  0.5985420000000  0.4348050000000 1.0
C      1  0.5608420000000  0.5532770000000  0.4576570000000 1.0
C      1  0.5049980000000  0.4854500000000  0.3859290000000 1.0
C      1  0.4174970000000  0.5138570000000  0.4000860000000 1.0
C      1  0.5707460000000  0.4629850000000  0.5244280000000 1.0
C      1  0.5259800000000  0.6103200000000  0.4975590000000 1.0
C      1  0.4797480000000  0.5952820000000  0.5071560000000 1.0
C      1  0.4757540000000  0.5243530000000  0.4064660000000 1.0
C      1  0.4422820000000  0.5845250000000  0.5142140000000 1.0
C      1  0.4507680000000  0.5511790000000  0.4829810000000 1.0
C      1  0.4442130000000  0.5158950000000  0.5505740000000 1.0
C      1  0.5357640000000  0.4733530000000  0.5405360000000 1.0
C      1  0.5757250000000  0.5620820000000  0.5059530000000 1.0
C      1  0.4883270000000  0.3859800000000  0.4835800000000 1.0
C      1  0.5053930000000  0.4773860000000  0.5890290000000 1.0
C      1  0.5153300000000  0.5177150000000  0.5587660000000 1.0
C      1  0.5603700000000  0.5773000000000  0.5613910000000 1.0
C      1  0.5504650000000  0.5191630000000  0.5353350000000 1.0
C      1  0.4014300000000  0.5139860000000  0.5456200000000 1.0
C      1  0.4631140000000  0.4960110000000  0.4047130000000 1.0
C      1  0.5025610000000  0.5793460000000  0.5800450000000 1.0
C      1  0.5014050000000  0.4265380000000  0.4150340000000 1.0
C      1  0.6051230000000  0.4583660000000  0.4919610000000 1.0
C      1  0.4346980000000  0.5314740000000  0.4450160000000 1.0
C      1  0.6210670000000  0.5149840000000  0.4738220000000 1.0
C      1  0.4658200000000  0.6152020000000  0.4836180000000 1.0
C      1  0.4330770000000  0.4470130000000  0.5693930000000 1.0
C      1  0.5480130000000  0.4331730000000  0.5027130000000 1.0
C      1  0.5020010000000  0.4445220000000  0.4999730000000 1.0
C      1  0.4744400000000  0.4756070000000  0.5524800000000 1.0
C      1  0.5214680000000  0.5626290000000  0.4337280000000 1.0
C      1  0.5697540000000  0.4001610000000  0.5006640000000 1.0
C      1  0.5866170000000  0.5391330000000  0.5307220000000 1.0
C      1  0.4896740000000  0.5823480000000  0.4708250000000 1.0
C      1  0.4050580000000  0.5403190000000  0.5356380000000 1.0
C      1  0.4337080000000  0.5007630000000  0.5012820000000 1.0
C      1  0.4366100000000  0.4974840000000  0.3896530000000 1.0
C      1  0.4111010000000  0.4726950000000  0.5759340000000 1.0
C      1  0.4358520000000  0.5455440000000  0.5112460000000 1.0
C      1  0.4511830000000  0.5851300000000  0.4811820000000 1.0
C      1  0.5480950000000  0.6000010000000  0.4787290000000 1.0
C      1  0.5409100000000  0.4066160000000  0.4836930000000 1.0
C      1  0.5287990000000  0.5514650000000  0.4941910000000 1.0
C      1  0.4445060000000  0.5589170000000  0.4335580000000 1.0
C      1  0.4466370000000  0.4850570000000  0.5405730000000 1.0
C      1  0.4492920000000  0.4521470000000  0.4340290000000 1.0
C      1  0.5891760000000  0.4422250000000  0.4651600000000 1.0
C      1  0.4283850000000  0.4045460000000  0.4686080000000 1.0
C      1  0.5445020000000  0.4379550000000  0.4621030000000 1.0
C      1  0.5664910000000  0.5648140000000  0.5373850000000 1.0
C      1  0.4724700000000  0.4640800000000  0.4121750000000 1.0
C      1  0.6081350000000  0.4922550000000  0.5371950000000 1.0
C      1  0.5966920000000  0.4729750000000  0.4554590000000 1.0
C      1  0.4333680000000  0.5572750000000  0.5417750000000 1.0
C      1  0.4209930000000  0.5363470000000  0.4757530000000 1.0
C      1  0.4205790000000  0.5799350000000  0.4418480000000 1.0
C      1  0.5204010000000  0.3840300000000  0.4901740000000 1.0
C      1  0.5746270000000  0.5181080000000  0.5747330000000 1.0
C      1  0.5710090000000  0.6167160000000  0.4792040000000 1.0
C      1  0.4036220000000  0.5485460000000  0.5025350000000 1.0
C      1  0.4153020000000  0.5783450000000  0.4971590000000 1.0
C      1  0.4988860000000  0.5579790000000  0.6005560000000 1.0
C      1  0.4789420000000  0.4655230000000  0.5985380000000 1.0
C      1  0.5679610000000  0.4361900000000  0.4427310000000 1.0
C      1  0.3951560000000  0.5067580000000  0.4433800000000 1.0
C      1  0.4732070000000  0.5544730000000  0.6089510000000 1.0
C      1  0.5829800000000  0.5305480000000  0.4994610000000 1.0
C      1  0.4821430000000  0.4913300000000  0.4727360000000 1.0
C      1  0.5184170000000  0.4193640000000  0.4615350000000 1.0
C      1  0.5472940000000  0.4419930000000  0.5342140000000 1.0
C      1  0.5059240000000  0.4594780000000  0.4079120000000 1.0
C      1  0.4873600000000  0.4270390000000  0.5884930000000 1.0
C      1  0.5224560000000  0.4662510000000  0.4946800000000 1.0
C      1  0.4743730000000  0.5326680000000  0.5293290000000 1.0
C      1  0.6009360000000  0.5330510000000  0.4750110000000 1.0
C      1  0.5470750000000  0.5174890000000  0.5959710000000 1.0
C      1  0.4630940000000  0.5787970000000  0.4499650000000 1.0
C      1  0.5993320000000  0.4682500000000  0.4235710000000 1.0
C      1  0.5511920000000  0.4145500000000  0.5485870000000 1.0
C      1  0.4701540000000  0.5120130000000  0.5830780000000 1.0
C      1  0.4880500000000  0.5520990000000  0.5536510000000 1.0
C      1  0.5130990000000  0.5482340000000  0.4040720000000 1.0
C      1  0.4994440000000  0.5279970000000  0.4275800000000 1.0
C      1  0.4053420000000  0.4453720000000  0.4982350000000 1.0
C      1  0.4695730000000  0.5649700000000  0.5197480000000 1.0
C      1  0.4473380000000  0.4351710000000  0.5150610000000 1.0
C      1  0.5221400000000  0.4164080000000  0.4303250000000 1.0
C      1  0.5170420000000  0.4736810000000  0.4349450000000 1.0
C      1  0.4870180000000  0.5215240000000  0.5014000000000 1.0
C      1  0.4577440000000  0.5464650000000  0.4078090000000 1.0
C      1  0.5130590000000  0.5643770000000  0.4667030000000 1.0
C      1  0.5233190000000  0.5115950000000  0.6199990000000 1.0
C      1  0.5942700000000  0.5184210000000  0.5515440000000 1.0
C      1  0.4750080000000  0.4161890000000  0.4917090000000 1.0
C      1  0.5764500000000  0.4119540000000  0.5259730000000 1.0
C      1  0.4452470000000  0.5186980000000  0.5191030000000 1.0
C      1  0.4788240000000  0.4905640000000  0.5044040000000 1.0
C      1  0.5173640000000  0.4615890000000  0.5666060000000 1.0
C      1  0.4355960000000  0.4886230000000  0.4713880000000 1.0
C      1  0.5552100000000  0.5692340000000  0.4846660000000 1.0
C      1  0.4171700000000  0.4739200000000  0.5445280000000 1.0
C      1  0.5290250000000  0.5039470000000  0.3775500000000 1.0
C      1  0.4645060000000  0.4233910000000  0.5635840000000 1.0
C      1  0.4075930000000  0.5061230000000  0.4716070000000 1.0
C      1  0.5060890000000  0.5329000000000  0.4588930000000 1.0
C      1  0.5391860000000  0.3939200000000  0.5253960000000 1.0
C      1  0.4785680000000  0.4355960000000  0.5200050000000 1.0
C      1  0.5061530000000  0.4234210000000  0.5459670000000 1.0
C      1  0.5916090000000  0.4924690000000  0.5074730000000 1.0
C      1  0.5090970000000  0.5040720000000  0.4730400000000 1.0
C      1  0.5132770000000  0.4348170000000  0.5834460000000 1.0
C      1  0.4198380000000  0.5870510000000  0.4681490000000 1.0
C      1  0.5544770000000  0.5032560000000  0.4677930000000 1.0
C      1  0.4371070000000  0.5174130000000  0.5835640000000 1.0
C      1  0.5034220000000  0.5069490000000  0.5858480000000 1.0
C      1  0.5852760000000  0.5182140000000  0.4335240000000 1.0
C      1  0.5533010000000  0.5735120000000  0.4358240000000 1.0
C      1  0.5450330000000  0.5434670000000  0.4078780000000 1.0
C      1  0.4123560000000  0.4448940000000  0.4677990000000 1.0
C      1  0.5374240000000  0.5960630000000  0.4486410000000 1.0
C      1  0.4008610000000  0.4925920000000  0.5225210000000 1.0
C      1  0.5321480000000  0.5234830000000  0.4287300000000 1.0
C      1  0.5128480000000  0.5944190000000  0.5513140000000 1.0
C      1  0.5699310000000  0.4923490000000  0.5336710000000 1.0
C      1  0.4090150000000  0.4423970000000  0.5909580000000 1.0
C      1  0.5715670000000  0.4528280000000  0.4922640000000 1.0
C      1  0.5905870000000  0.4392640000000  0.5377040000000 1.0
C      1  0.5701220000000  0.4887850000000  0.4412980000000 1.0
C      1  0.4743200000000  0.5813280000000  0.5612130000000 1.0
C      1  0.4524710000000  0.5457560000000  0.5944060000000 1.0
C      1  0.4681640000000  0.4870990000000  0.4357690000000 1.0
C      1  0.5386510000000  0.4517060000000  0.4027410000000 1.0
C      1  0.6100540000000  0.4879550000000  0.4805950000000 1.0
C      1  0.5188840000000  0.5484520000000  0.5523880000000 1.0
C      1  0.5332290000000  0.5750560000000  0.5673590000000 1.0
C      1  0.5288830000000  0.4139410000000  0.5694110000000 1.0
C      1  0.5453920000000  0.4648650000000  0.4760400000000 1.0
C      1  0.5415770000000  0.4946120000000  0.4240110000000 1.0
C      1  0.5764050000000  0.4531670000000  0.5636470000000 1.0
C      1  0.5022810000000  0.5197430000000  0.3886430000000 1.0
C      1  0.5101350000000  0.5940520000000  0.4366680000000 1.0
END
