TITL C-2848498-1409-656 -0.00165334399674483 125000 -982.267494773566 0 0 178 (C1) n - 1
REM
REM in /home/bkarasulu/work/CARBON/AIRSS/Generating-Clusters/AIREBO/with-SteepDescent/Only-C1/SD-CG-opt/Try1-1.4A-POS3A/HFTN-CG
REM
REM
REM
REM
REM
REM ./C.cell (11c1c37f851c82e70ff6c80c92926a4b)
REM
REM compiler GCC version 9.2.1 20190827 (Red Hat 9.2.1-1)
REM options -cpp -mtune=generic -march=x86-64 -g -O0 -fpre-include=/usr/include/finclude/math-vector-fortran.h
REM seed -1310736704 1917567464 -2014564860 -1819434742 85801252 1594501798 1473954785 1042201630 363600461 1618472553 146929327 -1528547927 1639494905 1715370884 1290318116 -1860171287 -2064697991 -1561019156 -1836509403 -125204481 982227356 -713141124 127945724 242849233 -423906913 -101698278 -1955032024 -1093904491 -1314786176 1034463530 -674808488 10807600 -521657255
REM
CELL 1.54180   50.00000   50.00000   50.00000   90.00000   90.00000   90.00000
LATT -1
SFAC C  
C      1  0.5035550000000  0.4952630000000  0.5550190000000 1.0
C      1  0.5353180000000  0.5207750000000  0.5850860000000 1.0
C      1  0.6073300000000  0.4858480000000  0.5207150000000 1.0
C      1  0.4204110000000  0.4484460000000  0.4758250000000 1.0
C      1  0.5974800000000  0.5289340000000  0.5289620000000 1.0
C      1  0.4714830000000  0.4011880000000  0.4645800000000 1.0
C      1  0.5622490000000  0.6008950000000  0.5095720000000 1.0
C      1  0.4912340000000  0.5330860000000  0.6028060000000 1.0
C      1  0.4926480000000  0.4015900000000  0.5412470000000 1.0
C      1  0.4179980000000  0.5080550000000  0.4439520000000 1.0
C      1  0.4320140000000  0.4583280000000  0.4454990000000 1.0
C      1  0.4286770000000  0.5321110000000  0.4073580000000 1.0
C      1  0.5242450000000  0.4712160000000  0.3832210000000 1.0
C      1  0.5064830000000  0.3981750000000  0.4289930000000 1.0
C      1  0.5524370000000  0.5280540000000  0.4729980000000 1.0
C      1  0.5672440000000  0.5222550000000  0.5223100000000 1.0
C      1  0.4634570000000  0.5501050000000  0.4491270000000 1.0
C      1  0.5803820000000  0.4717820000000  0.5268330000000 1.0
C      1  0.4573130000000  0.5597180000000  0.4811910000000 1.0
C      1  0.4640880000000  0.4595240000000  0.4517130000000 1.0
C      1  0.5584620000000  0.4044200000000  0.4911740000000 1.0
C      1  0.4173900000000  0.4881290000000  0.5048180000000 1.0
C      1  0.5255610000000  0.4043830000000  0.4506360000000 1.0
C      1  0.4387480000000  0.5060570000000  0.5941800000000 1.0
C      1  0.5269540000000  0.4465880000000  0.5593060000000 1.0
C      1  0.6051080000000  0.4631380000000  0.4879460000000 1.0
C      1  0.5005640000000  0.4186300000000  0.4687930000000 1.0
C      1  0.5211170000000  0.4936230000000  0.3665280000000 1.0
C      1  0.5475220000000  0.4115050000000  0.5575240000000 1.0
C      1  0.5092850000000  0.4305250000000  0.5195030000000 1.0
C      1  0.4141550000000  0.5613570000000  0.5397200000000 1.0
C      1  0.5460170000000  0.4863130000000  0.4577070000000 1.0
C      1  0.5825820000000  0.5222980000000  0.4606830000000 1.0
C      1  0.4507250000000  0.5010980000000  0.4502130000000 1.0
C      1  0.5182700000000  0.5721560000000  0.5373520000000 1.0
C      1  0.5647200000000  0.4383490000000  0.5656410000000 1.0
C      1  0.3971840000000  0.5186400000000  0.5363780000000 1.0
C      1  0.4251240000000  0.5610900000000  0.4520080000000 1.0
C      1  0.4844510000000  0.4254020000000  0.5642280000000 1.0
C      1  0.4642490000000  0.5712510000000  0.5723590000000 1.0
C      1  0.6042460000000  0.5200660000000  0.4826980000000 1.0
C      1  0.5090690000000  0.4600440000000  0.4358640000000 1.0
C      1  0.4736930000000  0.4745190000000  0.4015650000000 1.0
C      1  0.4617550000000  0.4160480000000  0.5329120000000 1.0
C      1  0.5096750000000  0.4315000000000  0.5776560000000 1.0
C      1  0.5817510000000  0.4606030000000  0.5562490000000 1.0
C      1  0.5827710000000  0.4817740000000  0.5738790000000 1.0
C      1  0.4055140000000  0.5391210000000  0.5545290000000 1.0
C      1  0.5106600000000  0.4884350000000  0.6138560000000 1.0
C      1  0.5410050000000  0.4325570000000  0.5316280000000 1.0
C      1  0.4839500000000  0.4417780000000  0.5344250000000 1.0
C      1  0.5106800000000  0.5486150000000  0.4680070000000 1.0
C      1  0.5551460000000  0.4979510000000  0.5721470000000 1.0
C      1  0.4407620000000  0.5546980000000  0.4246050000000 1.0
C      1  0.4942440000000  0.5767860000000  0.5759520000000 1.0
C      1  0.5500370000000  0.4615000000000  0.3875250000000 1.0
C      1  0.4804300000000  0.4021230000000  0.5095090000000 1.0
C      1  0.4265830000000  0.4830760000000  0.4225400000000 1.0
C      1  0.4207200000000  0.5068690000000  0.5240490000000 1.0
C      1  0.5423490000000  0.5714940000000  0.4168460000000 1.0
C      1  0.5748480000000  0.4862510000000  0.4757370000000 1.0
C      1  0.4893850000000  0.4621890000000  0.6102580000000 1.0
C      1  0.4093370000000  0.5575330000000  0.5101120000000 1.0
C      1  0.4750710000000  0.4777080000000  0.5489620000000 1.0
C      1  0.5305490000000  0.6024400000000  0.4707770000000 1.0
C      1  0.5306820000000  0.3885030000000  0.5138230000000 1.0
C      1  0.5381990000000  0.4929270000000  0.4894780000000 1.0
C      1  0.5667000000000  0.5646600000000  0.4791290000000 1.0
C      1  0.5615120000000  0.5972180000000  0.4790580000000 1.0
C      1  0.5219680000000  0.5230930000000  0.5533760000000 1.0
C      1  0.4649000000000  0.4601920000000  0.4969650000000 1.0
C      1  0.4592220000000  0.5173280000000  0.4968210000000 1.0
C      1  0.4944130000000  0.5026550000000  0.4849610000000 1.0
C      1  0.6112120000000  0.4927950000000  0.4915830000000 1.0
C      1  0.5674220000000  0.4203340000000  0.5135650000000 1.0
C      1  0.4848720000000  0.5902360000000  0.5158550000000 1.0
C      1  0.3845600000000  0.5141360000000  0.5086910000000 1.0
C      1  0.5654990000000  0.4951860000000  0.5071250000000 1.0
C      1  0.5546120000000  0.5429500000000  0.5023410000000 1.0
C      1  0.5665620000000  0.4353950000000  0.4672370000000 1.0
C      1  0.4851690000000  0.4327940000000  0.4956060000000 1.0
C      1  0.5847970000000  0.4794190000000  0.4215400000000 1.0
C      1  0.5262190000000  0.4127290000000  0.4903110000000 1.0
C      1  0.5654740000000  0.5755940000000  0.5495410000000 1.0
C      1  0.5217820000000  0.6114510000000  0.5436970000000 1.0
C      1  0.5165220000000  0.5276760000000  0.5201150000000 1.0
C      1  0.4864870000000  0.5192790000000  0.4110620000000 1.0
C      1  0.4392570000000  0.4415870000000  0.5596640000000 1.0
C      1  0.4632960000000  0.5193370000000  0.6005530000000 1.0
C      1  0.4402600000000  0.5961740000000  0.4878550000000 1.0
C      1  0.4876720000000  0.5719240000000  0.4588500000000 1.0
C      1  0.5406750000000  0.5891740000000  0.5512190000000 1.0
C      1  0.4147570000000  0.5341110000000  0.4656550000000 1.0
C      1  0.4877000000000  0.4413900000000  0.4470530000000 1.0
C      1  0.4991940000000  0.5042180000000  0.4455490000000 1.0
C      1  0.4428640000000  0.5747840000000  0.5461470000000 1.0
C      1  0.5284060000000  0.5579450000000  0.5101530000000 1.0
C      1  0.4191050000000  0.4824130000000  0.4746290000000 1.0
C      1  0.5130500000000  0.5149920000000  0.6044920000000 1.0
C      1  0.4904940000000  0.5051960000000  0.5185560000000 1.0
C      1  0.5368870000000  0.5413320000000  0.4174230000000 1.0
C      1  0.5866060000000  0.4420530000000  0.5010660000000 1.0
C      1  0.5885020000000  0.5640780000000  0.5021200000000 1.0
C      1  0.5552690000000  0.4527670000000  0.4942220000000 1.0
C      1  0.4718510000000  0.5218510000000  0.4406000000000 1.0
C      1  0.4817160000000  0.5386330000000  0.4827590000000 1.0
C      1  0.5782010000000  0.5812460000000  0.5237510000000 1.0
C      1  0.4467490000000  0.5046890000000  0.5409430000000 1.0
C      1  0.4521500000000  0.5905700000000  0.5194230000000 1.0
C      1  0.5288440000000  0.4652770000000  0.6048760000000 1.0
C      1  0.5150440000000  0.5320670000000  0.4412150000000 1.0
C      1  0.5519420000000  0.4094940000000  0.4600070000000 1.0
C      1  0.5108620000000  0.4409670000000  0.6036940000000 1.0
C      1  0.4367240000000  0.5864640000000  0.4599800000000 1.0
C      1  0.3965040000000  0.4856570000000  0.4500090000000 1.0
C      1  0.4788610000000  0.5404730000000  0.5706250000000 1.0
C      1  0.5383230000000  0.5070780000000  0.4378700000000 1.0
C      1  0.5208520000000  0.5203430000000  0.3717730000000 1.0
C      1  0.4366090000000  0.5113040000000  0.4785900000000 1.0
C      1  0.5098310000000  0.6065570000000  0.5191720000000 1.0
C      1  0.5558200000000  0.5240360000000  0.5503350000000 1.0
C      1  0.5136820000000  0.5000910000000  0.4167680000000 1.0
C      1  0.5162060000000  0.4708430000000  0.4951210000000 1.0
C      1  0.5857840000000  0.4567630000000  0.4639970000000 1.0
C      1  0.6127430000000  0.5074390000000  0.5376490000000 1.0
C      1  0.4533910000000  0.4623770000000  0.4195550000000 1.0
C      1  0.4454010000000  0.4773300000000  0.5926300000000 1.0
C      1  0.4430180000000  0.5466290000000  0.5653040000000 1.0
C      1  0.4623610000000  0.5428620000000  0.5169580000000 1.0
C      1  0.4389130000000  0.5071580000000  0.4052990000000 1.0
C      1  0.6032660000000  0.5404970000000  0.5033490000000 1.0
C      1  0.5358510000000  0.5689680000000  0.4678690000000 1.0
C      1  0.5055810000000  0.4791510000000  0.4638130000000 1.0
C      1  0.4682560000000  0.5642800000000  0.4107730000000 1.0
C      1  0.5588030000000  0.5565380000000  0.6136560000000 1.0
C      1  0.3979840000000  0.5372720000000  0.4934470000000 1.0
C      1  0.5466100000000  0.4655880000000  0.5782230000000 1.0
C      1  0.4537770000000  0.4086880000000  0.4904940000000 1.0
C      1  0.5044050000000  0.4711030000000  0.4067940000000 1.0
C      1  0.4729360000000  0.5249240000000  0.5409580000000 1.0
C      1  0.4819590000000  0.5068920000000  0.5750020000000 1.0
C      1  0.4677670000000  0.4843410000000  0.4744060000000 1.0
C      1  0.5483030000000  0.4639020000000  0.5241380000000 1.0
C      1  0.4606880000000  0.4894990000000  0.5138850000000 1.0
C      1  0.4269400000000  0.4168110000000  0.4722710000000 1.0
C      1  0.5654460000000  0.5511790000000  0.5639210000000 1.0
C      1  0.5629090000000  0.5261790000000  0.4332230000000 1.0
C      1  0.4593860000000  0.4352960000000  0.5790140000000 1.0
C      1  0.5236960000000  0.3973900000000  0.5396030000000 1.0
C      1  0.5366280000000  0.4584490000000  0.4506350000000 1.0
C      1  0.4399350000000  0.5621190000000  0.5083370000000 1.0
C      1  0.4242350000000  0.3916800000000  0.4915440000000 1.0
C      1  0.4465050000000  0.4806370000000  0.5643470000000 1.0
C      1  0.4334280000000  0.4521410000000  0.5070270000000 1.0
C      1  0.5218640000000  0.5226380000000  0.4869130000000 1.0
C      1  0.4733000000000  0.5884420000000  0.4856440000000 1.0
C      1  0.5826970000000  0.4933860000000  0.4434310000000 1.0
C      1  0.3782010000000  0.4843130000000  0.5081540000000 1.0
C      1  0.4885460000000  0.5571730000000  0.3987900000000 1.0
C      1  0.4151550000000  0.4487800000000  0.5449740000000 1.0
C      1  0.5127420000000  0.5351970000000  0.3976600000000 1.0
C      1  0.4622350000000  0.5903210000000  0.4465950000000 1.0
C      1  0.3879990000000  0.4451730000000  0.4772880000000 1.0
C      1  0.4966290000000  0.4720580000000  0.5232460000000 1.0
C      1  0.5088270000000  0.5529640000000  0.5605250000000 1.0
C      1  0.5236070000000  0.4731290000000  0.5423490000000 1.0
C      1  0.5303060000000  0.5911040000000  0.5028320000000 1.0
C      1  0.4531340000000  0.4561440000000  0.5344470000000 1.0
C      1  0.4026870000000  0.4624820000000  0.5173810000000 1.0
C      1  0.4298480000000  0.5189320000000  0.5668090000000 1.0
C      1  0.5530930000000  0.5455260000000  0.5894410000000 1.0
C      1  0.4629500000000  0.4558540000000  0.5995940000000 1.0
C      1  0.5730190000000  0.4700360000000  0.3991330000000 1.0
C      1  0.5391370000000  0.5839380000000  0.4385190000000 1.0
C      1  0.5293740000000  0.4444140000000  0.4781590000000 1.0
C      1  0.4810110000000  0.4102540000000  0.4351420000000 1.0
C      1  0.4655270000000  0.5018080000000  0.3977130000000 1.0
C      1  0.4891920000000  0.5582150000000  0.5265610000000 1.0
END
