TITL C-2848499-1157-332 0.00359450131655015 125000 -1033.25795677435 0 0 189 (C1) n - 1
REM
REM in /home/bkarasulu/work/CARBON/AIRSS/Generating-Clusters/AIREBO/with-SteepDescent/Only-C1/SD-CG-opt/Try1-1.4A-POS3A/HFTN-CG
REM
REM
REM
REM
REM
REM ./C.cell (11c1c37f851c82e70ff6c80c92926a4b)
REM
REM compiler GCC version 9.2.1 20190827 (Red Hat 9.2.1-1)
REM options -cpp -mtune=generic -march=x86-64 -g -O0 -fpre-include=/usr/include/finclude/math-vector-fortran.h
REM seed 422367751 -177292416 305560906 -1071438498 -1225042563 -326670083 1353747540 1139918603 1113534935 643074795 1292727799 -661958361 -1685575402 -2085907521 1730457332 219197891 2043626758 -916825707 1360687702 1487626440 415991664 994604319 1366683559 -1878540138 1014026791 -1580822591 -1606994471 -924619325 -2128611307 -532168762 -1022627394 -1338092900 -1510046986
REM
CELL 1.54180   50.00000   50.00000   50.00000   90.00000   90.00000   90.00000
LATT -1
SFAC C  
C      1  0.5492020000000  0.4821930000000  0.4700760000000 1.0
C      1  0.5677250000000  0.5513290000000  0.5036490000000 1.0
C      1  0.3907410000000  0.4461700000000  0.5218120000000 1.0
C      1  0.5462450000000  0.4773820000000  0.5742210000000 1.0
C      1  0.4617050000000  0.6031610000000  0.4392160000000 1.0
C      1  0.4125560000000  0.5878990000000  0.5316920000000 1.0
C      1  0.5413250000000  0.5307720000000  0.5035790000000 1.0
C      1  0.4435250000000  0.5799890000000  0.4530950000000 1.0
C      1  0.5224520000000  0.4219380000000  0.4265120000000 1.0
C      1  0.4678830000000  0.4501250000000  0.4940480000000 1.0
C      1  0.5377090000000  0.4284700000000  0.5354230000000 1.0
C      1  0.5223310000000  0.6042640000000  0.4333810000000 1.0
C      1  0.4339600000000  0.4321490000000  0.4833380000000 1.0
C      1  0.5175840000000  0.5333420000000  0.4398610000000 1.0
C      1  0.5374350000000  0.5071350000000  0.3961730000000 1.0
C      1  0.5653100000000  0.4838190000000  0.5133150000000 1.0
C      1  0.6201810000000  0.4589130000000  0.4668630000000 1.0
C      1  0.4890280000000  0.4924980000000  0.5192890000000 1.0
C      1  0.4286390000000  0.5837910000000  0.5060950000000 1.0
C      1  0.5008440000000  0.5501130000000  0.5516760000000 1.0
C      1  0.5178960000000  0.4765410000000  0.4968400000000 1.0
C      1  0.4162740000000  0.5145570000000  0.5532130000000 1.0
C      1  0.4850940000000  0.4744340000000  0.5545490000000 1.0
C      1  0.5180840000000  0.4497620000000  0.6065430000000 1.0
C      1  0.5300540000000  0.5667740000000  0.5568540000000 1.0
C      1  0.4299230000000  0.5267120000000  0.4818570000000 1.0
C      1  0.4988730000000  0.5516130000000  0.5995340000000 1.0
C      1  0.5165700000000  0.4808800000000  0.3904970000000 1.0
C      1  0.3875400000000  0.4747970000000  0.5266670000000 1.0
C      1  0.4524680000000  0.4689660000000  0.4742470000000 1.0
C      1  0.5902340000000  0.5148350000000  0.4595000000000 1.0
C      1  0.5269950000000  0.4564410000000  0.4709710000000 1.0
C      1  0.5519440000000  0.5885930000000  0.5419840000000 1.0
C      1  0.4684380000000  0.5163210000000  0.4840330000000 1.0
C      1  0.5092800000000  0.5734670000000  0.5197900000000 1.0
C      1  0.5624820000000  0.5310490000000  0.5298880000000 1.0
C      1  0.4122360000000  0.5139350000000  0.4336210000000 1.0
C      1  0.4539470000000  0.5594520000000  0.4778950000000 1.0
C      1  0.5237490000000  0.5057710000000  0.6127040000000 1.0
C      1  0.4525620000000  0.6099340000000  0.5479450000000 1.0
C      1  0.4813630000000  0.4087770000000  0.4609350000000 1.0
C      1  0.5779180000000  0.5128390000000  0.5056760000000 1.0
C      1  0.5004750000000  0.5007800000000  0.5887790000000 1.0
C      1  0.5212240000000  0.5342900000000  0.5945720000000 1.0
C      1  0.4810660000000  0.5663130000000  0.4323830000000 1.0
C      1  0.5291700000000  0.5816300000000  0.5002720000000 1.0
C      1  0.5380250000000  0.4385980000000  0.4441790000000 1.0
C      1  0.4073030000000  0.4870060000000  0.4534390000000 1.0
C      1  0.4400410000000  0.5382430000000  0.5930420000000 1.0
C      1  0.5289560000000  0.5846580000000  0.5857530000000 1.0
C      1  0.4700130000000  0.5380050000000  0.4040140000000 1.0
C      1  0.3896210000000  0.5499970000000  0.5266970000000 1.0
C      1  0.5066120000000  0.5452850000000  0.4675320000000 1.0
C      1  0.4388270000000  0.5850720000000  0.5463580000000 1.0
C      1  0.5502950000000  0.5382480000000  0.3943570000000 1.0
C      1  0.5097510000000  0.3924990000000  0.4609000000000 1.0
C      1  0.4811460000000  0.3813420000000  0.5261190000000 1.0
C      1  0.5118910000000  0.4395510000000  0.5223700000000 1.0
C      1  0.4015470000000  0.4542720000000  0.4756310000000 1.0
C      1  0.4427470000000  0.4956260000000  0.4869450000000 1.0
C      1  0.4650060000000  0.5162780000000  0.4501840000000 1.0
C      1  0.4802580000000  0.5231030000000  0.5500170000000 1.0
C      1  0.4838470000000  0.4878960000000  0.4167980000000 1.0
C      1  0.4471040000000  0.3977680000000  0.4972030000000 1.0
C      1  0.5707500000000  0.5137860000000  0.4370600000000 1.0
C      1  0.4546060000000  0.5617610000000  0.4116330000000 1.0
C      1  0.5536180000000  0.5940300000000  0.5737740000000 1.0
C      1  0.5459230000000  0.5399880000000  0.4723160000000 1.0
C      1  0.4958110000000  0.5101040000000  0.4371690000000 1.0
C      1  0.4746210000000  0.5705810000000  0.5587490000000 1.0
C      1  0.4552600000000  0.6213930000000  0.5226420000000 1.0
C      1  0.4938760000000  0.4983510000000  0.5631570000000 1.0
C      1  0.4893570000000  0.4307510000000  0.4841310000000 1.0
C      1  0.5372570000000  0.5773460000000  0.4246990000000 1.0
C      1  0.6033200000000  0.4815380000000  0.5254520000000 1.0
C      1  0.4410490000000  0.4543700000000  0.5312500000000 1.0
C      1  0.4126740000000  0.4855540000000  0.5431990000000 1.0
C      1  0.4907600000000  0.4993520000000  0.6181240000000 1.0
C      1  0.5045270000000  0.5799850000000  0.5980780000000 1.0
C      1  0.5999630000000  0.4787600000000  0.5897740000000 1.0
C      1  0.5795310000000  0.4575940000000  0.5274910000000 1.0
C      1  0.5617540000000  0.5837620000000  0.5097700000000 1.0
C      1  0.5490580000000  0.5218640000000  0.5541820000000 1.0
C      1  0.6115140000000  0.5153520000000  0.4758230000000 1.0
C      1  0.4753590000000  0.4490310000000  0.5837690000000 1.0
C      1  0.5179070000000  0.3959150000000  0.4937910000000 1.0
C      1  0.4689200000000  0.4101340000000  0.5359160000000 1.0
C      1  0.6364290000000  0.5114520000000  0.5462020000000 1.0
C      1  0.4135820000000  0.4804760000000  0.5833320000000 1.0
C      1  0.4554340000000  0.5613270000000  0.5322310000000 1.0
C      1  0.4900340000000  0.3818300000000  0.5003260000000 1.0
C      1  0.5310630000000  0.4494630000000  0.5687170000000 1.0
C      1  0.5489650000000  0.5541130000000  0.4174190000000 1.0
C      1  0.4911010000000  0.4374020000000  0.4453710000000 1.0
C      1  0.5124430000000  0.5274740000000  0.4006410000000 1.0
C      1  0.5820290000000  0.4482470000000  0.4353410000000 1.0
C      1  0.4292960000000  0.4630760000000  0.5598760000000 1.0
C      1  0.5286370000000  0.5667790000000  0.4745200000000 1.0
C      1  0.4191050000000  0.4539830000000  0.5047590000000 1.0
C      1  0.4742910000000  0.5917860000000  0.4879090000000 1.0
C      1  0.5614250000000  0.5099380000000  0.4760830000000 1.0
C      1  0.5393160000000  0.4957400000000  0.5510860000000 1.0
C      1  0.4719170000000  0.4833690000000  0.4552690000000 1.0
C      1  0.5936530000000  0.4768530000000  0.4958230000000 1.0
C      1  0.5418040000000  0.5887470000000  0.4564870000000 1.0
C      1  0.4233580000000  0.5115340000000  0.5828270000000 1.0
C      1  0.4424310000000  0.3911070000000  0.5262990000000 1.0
C      1  0.5044120000000  0.4119820000000  0.5736890000000 1.0
C      1  0.5881390000000  0.4300250000000  0.5099000000000 1.0
C      1  0.4247400000000  0.4888650000000  0.4177590000000 1.0
C      1  0.4461780000000  0.4315210000000  0.4528770000000 1.0
C      1  0.4930930000000  0.4619550000000  0.5088110000000 1.0
C      1  0.5351360000000  0.6129740000000  0.5039270000000 1.0
C      1  0.6164590000000  0.5054640000000  0.5285870000000 1.0
C      1  0.4876390000000  0.5135750000000  0.3960420000000 1.0
C      1  0.4577390000000  0.4032680000000  0.4384050000000 1.0
C      1  0.5495240000000  0.5341380000000  0.4409760000000 1.0
C      1  0.4645410000000  0.4738030000000  0.5337090000000 1.0
C      1  0.4950940000000  0.5886730000000  0.5385030000000 1.0
C      1  0.5362990000000  0.5390540000000  0.5713630000000 1.0
C      1  0.5351670000000  0.3921540000000  0.5194020000000 1.0
C      1  0.5603780000000  0.4020120000000  0.5134320000000 1.0
C      1  0.5894480000000  0.5785350000000  0.4679970000000 1.0
C      1  0.5691300000000  0.4607110000000  0.4809900000000 1.0
C      1  0.4935780000000  0.4236670000000  0.5442210000000 1.0
C      1  0.4648130000000  0.4944770000000  0.6215580000000 1.0
C      1  0.4380870000000  0.5146260000000  0.5226850000000 1.0
C      1  0.5133000000000  0.4973880000000  0.4611660000000 1.0
C      1  0.5546480000000  0.4336780000000  0.4885720000000 1.0
C      1  0.4712430000000  0.5489350000000  0.5847580000000 1.0
C      1  0.5668430000000  0.4273660000000  0.4574620000000 1.0
C      1  0.4355160000000  0.4701020000000  0.4447790000000 1.0
C      1  0.4147780000000  0.4444880000000  0.4513020000000 1.0
C      1  0.4030420000000  0.5181110000000  0.4662680000000 1.0
C      1  0.5364440000000  0.4834140000000  0.4404810000000 1.0
C      1  0.4955430000000  0.6070470000000  0.4378380000000 1.0
C      1  0.5758420000000  0.4666120000000  0.4163950000000 1.0
C      1  0.5279730000000  0.4744280000000  0.6002190000000 1.0
C      1  0.5141800000000  0.5137670000000  0.5108250000000 1.0
C      1  0.5716520000000  0.4198670000000  0.5375240000000 1.0
C      1  0.4635310000000  0.4687560000000  0.3889160000000 1.0
C      1  0.5361420000000  0.4894830000000  0.5200640000000 1.0
C      1  0.5010730000000  0.4498820000000  0.5614830000000 1.0
C      1  0.6079580000000  0.5257750000000  0.5066530000000 1.0
C      1  0.5214380000000  0.3953130000000  0.4364770000000 1.0
C      1  0.4607180000000  0.4311730000000  0.4211180000000 1.0
C      1  0.5936230000000  0.4566460000000  0.4613140000000 1.0
C      1  0.4698350000000  0.5205220000000  0.5177510000000 1.0
C      1  0.4735970000000  0.5636320000000  0.5049100000000 1.0
C      1  0.4498730000000  0.4931180000000  0.5943940000000 1.0
C      1  0.5017580000000  0.5168330000000  0.4812580000000 1.0
C      1  0.5466740000000  0.6167920000000  0.5264720000000 1.0
C      1  0.5592200000000  0.4910840000000  0.4213760000000 1.0
C      1  0.5596400000000  0.4483770000000  0.5503170000000 1.0
C      1  0.4984770000000  0.4305070000000  0.5960210000000 1.0
C      1  0.4604270000000  0.4638840000000  0.4224290000000 1.0
C      1  0.4350200000000  0.5322010000000  0.4480930000000 1.0
C      1  0.4547520000000  0.5152480000000  0.4177750000000 1.0
C      1  0.5933600000000  0.5797000000000  0.5216730000000 1.0
C      1  0.4371770000000  0.5594280000000  0.4348570000000 1.0
C      1  0.5771080000000  0.4096580000000  0.4849630000000 1.0
C      1  0.4960550000000  0.5421580000000  0.5187330000000 1.0
C      1  0.5066660000000  0.5527500000000  0.4170970000000 1.0
C      1  0.5004880000000  0.4671020000000  0.4525250000000 1.0
C      1  0.5756700000000  0.4768810000000  0.5821310000000 1.0
C      1  0.4619850000000  0.5183770000000  0.5763080000000 1.0
C      1  0.4695440000000  0.3895510000000  0.4834420000000 1.0
C      1  0.4820460000000  0.5921910000000  0.5839320000000 1.0
C      1  0.5209720000000  0.4296890000000  0.4911240000000 1.0
C      1  0.4926650000000  0.4581180000000  0.3916750000000 1.0
C      1  0.4503670000000  0.4278130000000  0.5128080000000 1.0
C      1  0.3885040000000  0.4912160000000  0.5007500000000 1.0
C      1  0.4359500000000  0.5505850000000  0.5053580000000 1.0
C      1  0.4467370000000  0.4930530000000  0.3989650000000 1.0
C      1  0.3951530000000  0.4707980000000  0.5989820000000 1.0
C      1  0.4505180000000  0.6027300000000  0.5014320000000 1.0
C      1  0.5665620000000  0.5916350000000  0.4769840000000 1.0
C      1  0.3856420000000  0.4789370000000  0.4757670000000 1.0
C      1  0.5427210000000  0.4211750000000  0.5741380000000 1.0
C      1  0.4939090000000  0.4344520000000  0.4127860000000 1.0
C      1  0.4217210000000  0.4874270000000  0.5104750000000 1.0
C      1  0.4821900000000  0.5867600000000  0.4595910000000 1.0
C      1  0.4144390000000  0.5376840000000  0.5283330000000 1.0
C      1  0.5126810000000  0.4740470000000  0.4222030000000 1.0
C      1  0.4757630000000  0.5474650000000  0.4584320000000 1.0
C      1  0.6064910000000  0.5579850000000  0.5103990000000 1.0
C      1  0.5276860000000  0.4007370000000  0.5514920000000 1.0
C      1  0.4521690000000  0.4652360000000  0.5816890000000 1.0
C      1  0.5937520000000  0.5544030000000  0.4826480000000 1.0
END
