TITL C-2848499-1157-19 0.00208640215074998 125000 -916.43726999642 0 0 167 (C1) n - 1
REM
REM in /home/bkarasulu/work/CARBON/AIRSS/Generating-Clusters/AIREBO/with-SteepDescent/Only-C1/SD-CG-opt/Try1-1.4A-POS3A/HFTN-CG
REM
REM
REM
REM
REM
REM ./C.cell (11c1c37f851c82e70ff6c80c92926a4b)
REM
REM compiler GCC version 9.2.1 20190827 (Red Hat 9.2.1-1)
REM options -cpp -mtune=generic -march=x86-64 -g -O0 -fpre-include=/usr/include/finclude/math-vector-fortran.h
REM seed -224934152 -1568047340 -761390440 -1881981111 -920239749 -323832414 -484816172 2077090288 362442258 251266850 -1368145332 -1118062217 -1496202403 -624651048 -1875096835 -1635791215 -1007446450 336195497 -1908742809 -201303674 1521297329 -603518328 -252217931 852666497 1030782633 -158582367 706505066 -792752232 -1737250957 -749474065 968597287 -2123851157 -159797806
REM
CELL 1.54180   50.00000   50.00000   50.00000   90.00000   90.00000   90.00000
LATT -1
SFAC C  
C      1  0.4420030000000  0.5585900000000  0.4377090000000 1.0
C      1  0.4281530000000  0.5014680000000  0.4130740000000 1.0
C      1  0.5250810000000  0.3996290000000  0.4834750000000 1.0
C      1  0.3956890000000  0.5329520000000  0.4355270000000 1.0
C      1  0.4120060000000  0.4623870000000  0.4620130000000 1.0
C      1  0.4914770000000  0.5424480000000  0.4549390000000 1.0
C      1  0.4762850000000  0.5281080000000  0.4817820000000 1.0
C      1  0.4642930000000  0.3952560000000  0.5450550000000 1.0
C      1  0.4780400000000  0.5640630000000  0.5160810000000 1.0
C      1  0.5450550000000  0.4256860000000  0.5623800000000 1.0
C      1  0.5948370000000  0.4824730000000  0.4593800000000 1.0
C      1  0.4354750000000  0.4961150000000  0.5584490000000 1.0
C      1  0.6284700000000  0.5209270000000  0.4714710000000 1.0
C      1  0.5987450000000  0.4407700000000  0.5066990000000 1.0
C      1  0.5479220000000  0.4843740000000  0.4175290000000 1.0
C      1  0.4932110000000  0.5888390000000  0.4506030000000 1.0
C      1  0.5746950000000  0.4262870000000  0.5086030000000 1.0
C      1  0.5634190000000  0.4166720000000  0.5362560000000 1.0
C      1  0.5625250000000  0.4766430000000  0.5263090000000 1.0
C      1  0.5287190000000  0.5341090000000  0.4829360000000 1.0
C      1  0.5956050000000  0.5394810000000  0.5366370000000 1.0
C      1  0.5757540000000  0.5607190000000  0.5452180000000 1.0
C      1  0.5566180000000  0.4336380000000  0.4598410000000 1.0
C      1  0.4382410000000  0.4748260000000  0.4894580000000 1.0
C      1  0.4672720000000  0.5946030000000  0.5870770000000 1.0
C      1  0.5204630000000  0.5932280000000  0.4890810000000 1.0
C      1  0.4544560000000  0.3976320000000  0.5192890000000 1.0
C      1  0.5502750000000  0.4020180000000  0.4706940000000 1.0
C      1  0.3885260000000  0.5487140000000  0.5450460000000 1.0
C      1  0.4693270000000  0.5533850000000  0.4315570000000 1.0
C      1  0.4582660000000  0.4366260000000  0.4572660000000 1.0
C      1  0.4616160000000  0.4561460000000  0.4834110000000 1.0
C      1  0.6032710000000  0.5452450000000  0.5077730000000 1.0
C      1  0.5497650000000  0.5925890000000  0.5053110000000 1.0
C      1  0.4580280000000  0.6144170000000  0.5215870000000 1.0
C      1  0.5350260000000  0.5234790000000  0.4316950000000 1.0
C      1  0.5142770000000  0.5477840000000  0.4303650000000 1.0
C      1  0.5530710000000  0.4180260000000  0.5873200000000 1.0
C      1  0.5368660000000  0.5329930000000  0.5235110000000 1.0
C      1  0.4720570000000  0.4241320000000  0.5544380000000 1.0
C      1  0.4559990000000  0.5033320000000  0.4038890000000 1.0
C      1  0.5551510000000  0.5266430000000  0.5474450000000 1.0
C      1  0.4689780000000  0.5604050000000  0.4848970000000 1.0
C      1  0.4048990000000  0.4579170000000  0.5652990000000 1.0
C      1  0.5223080000000  0.4384770000000  0.5529800000000 1.0
C      1  0.4259010000000  0.4946450000000  0.4429830000000 1.0
C      1  0.5557430000000  0.5949370000000  0.5372240000000 1.0
C      1  0.3892170000000  0.4979870000000  0.5200290000000 1.0
C      1  0.4217770000000  0.4071260000000  0.4791540000000 1.0
C      1  0.5241660000000  0.5110370000000  0.5921060000000 1.0
C      1  0.4748350000000  0.5287680000000  0.4113040000000 1.0
C      1  0.5572170000000  0.5380030000000  0.5010720000000 1.0
C      1  0.4092870000000  0.4821680000000  0.5159330000000 1.0
C      1  0.4618330000000  0.4991620000000  0.4923340000000 1.0
C      1  0.5710160000000  0.4477200000000  0.5420550000000 1.0
C      1  0.5223900000000  0.5077220000000  0.5171710000000 1.0
C      1  0.4771170000000  0.4228200000000  0.4125230000000 1.0
C      1  0.5953150000000  0.4666860000000  0.5465820000000 1.0
C      1  0.4407270000000  0.5817240000000  0.4542660000000 1.0
C      1  0.4517210000000  0.4074560000000  0.4873650000000 1.0
C      1  0.5339590000000  0.4031910000000  0.5314530000000 1.0
C      1  0.4714140000000  0.4794960000000  0.4086600000000 1.0
C      1  0.5801410000000  0.4864090000000  0.4850450000000 1.0
C      1  0.3667980000000  0.5386310000000  0.5335150000000 1.0
C      1  0.5093190000000  0.4595890000000  0.5646920000000 1.0
C      1  0.4535560000000  0.4301910000000  0.5126230000000 1.0
C      1  0.5473390000000  0.5829640000000  0.4392050000000 1.0
C      1  0.5408140000000  0.4646010000000  0.5030460000000 1.0
C      1  0.5076290000000  0.5308340000000  0.5505240000000 1.0
C      1  0.4817810000000  0.5869870000000  0.5572010000000 1.0
C      1  0.4897850000000  0.4840110000000  0.5513070000000 1.0
C      1  0.4512810000000  0.4464150000000  0.5658790000000 1.0
C      1  0.4763830000000  0.4093690000000  0.4667160000000 1.0
C      1  0.4703480000000  0.4818310000000  0.5975560000000 1.0
C      1  0.4797400000000  0.5345500000000  0.5320670000000 1.0
C      1  0.4721240000000  0.4855580000000  0.5217840000000 1.0
C      1  0.5203470000000  0.5853620000000  0.5212870000000 1.0
C      1  0.5698160000000  0.5680920000000  0.4599340000000 1.0
C      1  0.5059310000000  0.5303810000000  0.4052080000000 1.0
C      1  0.4964690000000  0.4800570000000  0.3974760000000 1.0
C      1  0.3969270000000  0.5451340000000  0.4625530000000 1.0
C      1  0.4885740000000  0.4590640000000  0.5996190000000 1.0
C      1  0.4574750000000  0.4227080000000  0.4283320000000 1.0
C      1  0.5776630000000  0.4905140000000  0.4328410000000 1.0
C      1  0.4651120000000  0.5368960000000  0.5627320000000 1.0
C      1  0.4772870000000  0.4371070000000  0.5854870000000 1.0
C      1  0.5356400000000  0.5430420000000  0.5908070000000 1.0
C      1  0.5227410000000  0.4269830000000  0.4965820000000 1.0
C      1  0.4016560000000  0.5672690000000  0.5666530000000 1.0
C      1  0.4677260000000  0.5647040000000  0.5763400000000 1.0
C      1  0.5518740000000  0.5521660000000  0.5670630000000 1.0
C      1  0.5141970000000  0.5551100000000  0.5302800000000 1.0
C      1  0.5747850000000  0.5620540000000  0.5112180000000 1.0
C      1  0.4974830000000  0.4558200000000  0.4449960000000 1.0
C      1  0.5580480000000  0.5158420000000  0.4090150000000 1.0
C      1  0.5623000000000  0.4859510000000  0.5803600000000 1.0
C      1  0.5022810000000  0.4080740000000  0.4446710000000 1.0
C      1  0.4226090000000  0.5331270000000  0.4777400000000 1.0
C      1  0.5025870000000  0.4386560000000  0.4194730000000 1.0
C      1  0.4194840000000  0.5852010000000  0.4728460000000 1.0
C      1  0.6036990000000  0.5315260000000  0.4785940000000 1.0
C      1  0.4704050000000  0.4947040000000  0.4597100000000 1.0
C      1  0.4219900000000  0.5497510000000  0.5457130000000 1.0
C      1  0.5929030000000  0.4705330000000  0.5122820000000 1.0
C      1  0.4983280000000  0.5093910000000  0.4508500000000 1.0
C      1  0.4531790000000  0.5238020000000  0.5141170000000 1.0
C      1  0.5154700000000  0.4616750000000  0.4020110000000 1.0
C      1  0.5768870000000  0.5243860000000  0.4360200000000 1.0
C      1  0.5279510000000  0.4196030000000  0.4250580000000 1.0
C      1  0.5095390000000  0.5062290000000  0.4794290000000 1.0
C      1  0.4595010000000  0.5158640000000  0.4388100000000 1.0
C      1  0.4110580000000  0.4552380000000  0.4952460000000 1.0
C      1  0.4373440000000  0.5266680000000  0.5581590000000 1.0
C      1  0.5384100000000  0.5583480000000  0.4611410000000 1.0
C      1  0.5030260000000  0.5107610000000  0.5675990000000 1.0
C      1  0.5079200000000  0.4477320000000  0.4763440000000 1.0
C      1  0.4303820000000  0.5026250000000  0.4746390000000 1.0
C      1  0.4837140000000  0.4358610000000  0.5255940000000 1.0
C      1  0.5863410000000  0.5420990000000  0.4543560000000 1.0
C      1  0.4676740000000  0.5827280000000  0.4645930000000 1.0
C      1  0.5293930000000  0.5229950000000  0.3921000000000 1.0
C      1  0.5433020000000  0.5141750000000  0.4595680000000 1.0
C      1  0.5431340000000  0.4971850000000  0.4982630000000 1.0
C      1  0.5172040000000  0.5780180000000  0.4337120000000 1.0
C      1  0.5176100000000  0.4653490000000  0.5930460000000 1.0
C      1  0.4944450000000  0.5158360000000  0.5077860000000 1.0
C      1  0.5039550000000  0.5371600000000  0.5975360000000 1.0
C      1  0.4707940000000  0.4698790000000  0.4389130000000 1.0
C      1  0.4251060000000  0.4454340000000  0.5520620000000 1.0
C      1  0.5216260000000  0.4884520000000  0.5402240000000 1.0
C      1  0.5183490000000  0.4961190000000  0.4267860000000 1.0
C      1  0.5406990000000  0.5808620000000  0.5553600000000 1.0
C      1  0.5106000000000  0.4752500000000  0.4915320000000 1.0
C      1  0.4611130000000  0.4770130000000  0.5682090000000 1.0
C      1  0.5249020000000  0.4293080000000  0.4567110000000 1.0
C      1  0.5054220000000  0.5530920000000  0.4996020000000 1.0
C      1  0.4403610000000  0.4813150000000  0.5297060000000 1.0
C      1  0.5735490000000  0.5825780000000  0.4871200000000 1.0
C      1  0.5120600000000  0.4271170000000  0.5255070000000 1.0
C      1  0.5379140000000  0.4852060000000  0.5958090000000 1.0
C      1  0.5798490000000  0.5161060000000  0.4940490000000 1.0
C      1  0.6238100000000  0.4313270000000  0.5016790000000 1.0
C      1  0.4050150000000  0.4238290000000  0.4878500000000 1.0
C      1  0.4316200000000  0.4493120000000  0.5216760000000 1.0
C      1  0.4285170000000  0.5286430000000  0.4445530000000 1.0
C      1  0.4667700000000  0.5079700000000  0.6065040000000 1.0
C      1  0.5525980000000  0.4374570000000  0.4921000000000 1.0
C      1  0.5004790000000  0.3887940000000  0.4790740000000 1.0
C      1  0.4261160000000  0.5844450000000  0.5000660000000 1.0
C      1  0.5638920000000  0.4614570000000  0.4457180000000 1.0
C      1  0.5500700000000  0.4937500000000  0.5529270000000 1.0
C      1  0.4633170000000  0.5863080000000  0.5320580000000 1.0
C      1  0.5088820000000  0.5667740000000  0.4711350000000 1.0
C      1  0.4370500000000  0.5658290000000  0.5249100000000 1.0
C      1  0.4089320000000  0.4847150000000  0.5707100000000 1.0
C      1  0.5398830000000  0.4518950000000  0.4236010000000 1.0
C      1  0.5726770000000  0.5092230000000  0.5240820000000 1.0
C      1  0.4827120000000  0.4609170000000  0.5044040000000 1.0
C      1  0.4403680000000  0.4648700000000  0.4508790000000 1.0
C      1  0.4409540000000  0.5474160000000  0.4974730000000 1.0
C      1  0.5211880000000  0.4767070000000  0.4525540000000 1.0
C      1  0.5892330000000  0.4881980000000  0.5641010000000 1.0
C      1  0.5109780000000  0.5879020000000  0.5526470000000 1.0
C      1  0.4777310000000  0.5299010000000  0.5923340000000 1.0
C      1  0.5925380000000  0.5130500000000  0.5503590000000 1.0
C      1  0.3950350000000  0.5729420000000  0.4658390000000 1.0
C      1  0.5506270000000  0.4822370000000  0.4686560000000 1.0
END
