TITL C-2848508-1660-264 -0.00138486479651708 125000 -606.941666984928 0 0 110 (C1) n - 1
REM
REM in /home/bkarasulu/work/CARBON/AIRSS/Generating-Clusters/AIREBO/with-SteepDescent/Only-C1/SD-CG-opt/Try1-1.4A-POS3A/HFTN-CG
REM
REM
REM
REM
REM
REM ./C.cell (11c1c37f851c82e70ff6c80c92926a4b)
REM
REM compiler GCC version 9.2.1 20190827 (Red Hat 9.2.1-1)
REM options -cpp -mtune=generic -march=x86-64 -g -O0 -fpre-include=/usr/include/finclude/math-vector-fortran.h
REM seed -2094343308 937785084 -1686643182 -738327775 -1757555921 -1229456115 -1113944262 223433592 1736020387 1404611355 -1688773108 1528229227 1734622062 -818332271 216996375 -184243268 2048172360 1960951250 -489711882 -848313910 571274092 1018346628 1142508421 -813144288 89981987 -1031602962 1559695034 2062469405 586189286 1639152641 -161662585 -1795928399 -1367353316
REM
CELL 1.54180   50.00000   50.00000   50.00000   90.00000   90.00000   90.00000
LATT -1
SFAC C  
C      1  0.4778850000000  0.5568120000000  0.5274690000000 1.0
C      1  0.5303650000000  0.4902980000000  0.4587140000000 1.0
C      1  0.5638230000000  0.5624310000000  0.4864670000000 1.0
C      1  0.3958870000000  0.4651210000000  0.5137360000000 1.0
C      1  0.4692940000000  0.5548050000000  0.5769710000000 1.0
C      1  0.4929950000000  0.4694610000000  0.4304260000000 1.0
C      1  0.5131880000000  0.5898040000000  0.5305520000000 1.0
C      1  0.5388570000000  0.4217750000000  0.4446990000000 1.0
C      1  0.4651180000000  0.4352420000000  0.4120590000000 1.0
C      1  0.5802160000000  0.5305660000000  0.4687530000000 1.0
C      1  0.4948200000000  0.4470270000000  0.4550080000000 1.0
C      1  0.4362570000000  0.5259520000000  0.4320970000000 1.0
C      1  0.5685280000000  0.4554260000000  0.4746140000000 1.0
C      1  0.4682430000000  0.4238570000000  0.4923210000000 1.0
C      1  0.4858980000000  0.5145310000000  0.4158110000000 1.0
C      1  0.4255370000000  0.4543400000000  0.5150630000000 1.0
C      1  0.5364000000000  0.5075350000000  0.4874290000000 1.0
C      1  0.5333380000000  0.4668330000000  0.4341990000000 1.0
C      1  0.5264380000000  0.4638850000000  0.5321960000000 1.0
C      1  0.5472720000000  0.5353800000000  0.4756700000000 1.0
C      1  0.5529920000000  0.4761320000000  0.5495820000000 1.0
C      1  0.4483950000000  0.4497140000000  0.5626080000000 1.0
C      1  0.4940520000000  0.4919310000000  0.4812970000000 1.0
C      1  0.5167230000000  0.4777340000000  0.5794310000000 1.0
C      1  0.4156220000000  0.4974090000000  0.4725520000000 1.0
C      1  0.5142980000000  0.5453000000000  0.5015320000000 1.0
C      1  0.4337390000000  0.4270290000000  0.5667110000000 1.0
C      1  0.4918290000000  0.4465640000000  0.5778170000000 1.0
C      1  0.5775960000000  0.4732680000000  0.5090780000000 1.0
C      1  0.5295920000000  0.5843230000000  0.4413180000000 1.0
C      1  0.4836800000000  0.5872980000000  0.5135580000000 1.0
C      1  0.4646850000000  0.4791980000000  0.4929610000000 1.0
C      1  0.5851840000000  0.4964070000000  0.4878270000000 1.0
C      1  0.4453260000000  0.4875540000000  0.4662690000000 1.0
C      1  0.4993250000000  0.5572580000000  0.5509500000000 1.0
C      1  0.4689350000000  0.5685530000000  0.4524750000000 1.0
C      1  0.4675780000000  0.4598760000000  0.5799580000000 1.0
C      1  0.4499730000000  0.4323700000000  0.4665300000000 1.0
C      1  0.4529310000000  0.5289690000000  0.5142100000000 1.0
C      1  0.4977480000000  0.4268800000000  0.4944860000000 1.0
C      1  0.5392200000000  0.4131170000000  0.4712140000000 1.0
C      1  0.4419910000000  0.5024010000000  0.5031190000000 1.0
C      1  0.5507970000000  0.5814720000000  0.4966380000000 1.0
C      1  0.5206860000000  0.5157480000000  0.5164820000000 1.0
C      1  0.5697930000000  0.5525510000000  0.4474660000000 1.0
C      1  0.5395600000000  0.5188430000000  0.5684140000000 1.0
C      1  0.5319030000000  0.5800890000000  0.5507740000000 1.0
C      1  0.5020420000000  0.4589530000000  0.4838850000000 1.0
C      1  0.5742140000000  0.4906990000000  0.5343410000000 1.0
C      1  0.5878000000000  0.4681980000000  0.4596750000000 1.0
C      1  0.4245060000000  0.4842710000000  0.5339670000000 1.0
C      1  0.4605870000000  0.5156720000000  0.4773030000000 1.0
C      1  0.4999500000000  0.5920780000000  0.4840870000000 1.0
C      1  0.5029700000000  0.4434500000000  0.5477590000000 1.0
C      1  0.5709020000000  0.4428880000000  0.5208560000000 1.0
C      1  0.5019920000000  0.5248440000000  0.4772840000000 1.0
C      1  0.5279190000000  0.4593590000000  0.5025490000000 1.0
C      1  0.5122750000000  0.5201730000000  0.4204550000000 1.0
C      1  0.5810390000000  0.5000370000000  0.4542760000000 1.0
C      1  0.5253230000000  0.4194850000000  0.5129600000000 1.0
C      1  0.5234270000000  0.4448470000000  0.5820370000000 1.0
C      1  0.4271670000000  0.5018680000000  0.5558280000000 1.0
C      1  0.4742980000000  0.5698010000000  0.4854250000000 1.0
C      1  0.4999510000000  0.5765590000000  0.4556030000000 1.0
C      1  0.4712910000000  0.5789390000000  0.5599850000000 1.0
C      1  0.5288430000000  0.5626790000000  0.4671520000000 1.0
C      1  0.4847630000000  0.4567090000000  0.4076510000000 1.0
C      1  0.5500970000000  0.4346350000000  0.4952530000000 1.0
C      1  0.4630320000000  0.4464590000000  0.4430950000000 1.0
C      1  0.5464300000000  0.5472610000000  0.4350960000000 1.0
C      1  0.3874560000000  0.5121640000000  0.4603030000000 1.0
C      1  0.4252930000000  0.5690170000000  0.5346080000000 1.0
C      1  0.4753000000000  0.5403540000000  0.4912750000000 1.0
C      1  0.4945410000000  0.4933320000000  0.5950520000000 1.0
C      1  0.5171370000000  0.5372840000000  0.4494370000000 1.0
C      1  0.5143780000000  0.4032870000000  0.4785840000000 1.0
C      1  0.5551710000000  0.4996830000000  0.4372120000000 1.0
C      1  0.4141790000000  0.5181170000000  0.4456200000000 1.0
C      1  0.4489870000000  0.4633380000000  0.5364750000000 1.0
C      1  0.5386970000000  0.4313360000000  0.5608840000000 1.0
C      1  0.4373220000000  0.5422160000000  0.5408490000000 1.0
C      1  0.5004760000000  0.4773150000000  0.5495660000000 1.0
C      1  0.5696750000000  0.5177290000000  0.5280140000000 1.0
C      1  0.4983190000000  0.4947470000000  0.4482400000000 1.0
C      1  0.4698110000000  0.4878670000000  0.5842630000000 1.0
C      1  0.5210590000000  0.4192950000000  0.5401960000000 1.0
C      1  0.5748640000000  0.5231440000000  0.5015200000000 1.0
C      1  0.4124400000000  0.4899820000000  0.5026860000000 1.0
C      1  0.4532420000000  0.5785210000000  0.5363760000000 1.0
C      1  0.5416310000000  0.5221050000000  0.4218420000000 1.0
C      1  0.5590640000000  0.4458630000000  0.5476940000000 1.0
C      1  0.5251080000000  0.5517440000000  0.5332560000000 1.0
C      1  0.4736280000000  0.5254900000000  0.5401240000000 1.0
C      1  0.5209490000000  0.5776390000000  0.5031030000000 1.0
C      1  0.4720240000000  0.5162740000000  0.4468140000000 1.0
C      1  0.5556160000000  0.4736080000000  0.4162590000000 1.0
C      1  0.4986630000000  0.5448040000000  0.5797990000000 1.0
C      1  0.4751000000000  0.4773070000000  0.5252560000000 1.0
C      1  0.5235090000000  0.5339820000000  0.5858860000000 1.0
C      1  0.4480690000000  0.4500900000000  0.4948290000000 1.0
C      1  0.4572090000000  0.5465130000000  0.4408740000000 1.0
C      1  0.5431950000000  0.5269130000000  0.5393930000000 1.0
C      1  0.5499260000000  0.4778980000000  0.4911690000000 1.0
C      1  0.4547830000000  0.5012350000000  0.4216500000000 1.0
C      1  0.4580930000000  0.5082280000000  0.5652410000000 1.0
C      1  0.5422510000000  0.4916580000000  0.5726720000000 1.0
C      1  0.4950650000000  0.5044720000000  0.5298280000000 1.0
C      1  0.4480070000000  0.5380620000000  0.5677680000000 1.0
C      1  0.5216780000000  0.4430790000000  0.4391160000000 1.0
C      1  0.4527540000000  0.4753810000000  0.4402380000000 1.0
END
