TITL C-2847949-8115-163 0.00147534838914713 125000 -404.620858850577 0 0 75 (C1) n - 1
REM
REM in /home/bkarasulu/work/CARBON/AIRSS/Generating-Clusters/AIREBO/with-SteepDescent/Only-C1/SD-CG-opt/Try1-1.4A-POS3A/HFTN-CG
REM
REM
REM
REM
REM
REM ./C.cell (11c1c37f851c82e70ff6c80c92926a4b)
REM
REM compiler GCC version 9.2.1 20190827 (Red Hat 9.2.1-1)
REM options -cpp -mtune=generic -march=x86-64 -g -O0 -fpre-include=/usr/include/finclude/math-vector-fortran.h
REM seed -907734439 1568103325 1118833495 185581512 -1307926144 273038180 -1993189380 684586220 1289818891 -1894779213 -1481406679 -1579608334 1261864462 848815800 55867542 1031218412 -305944587 -18688365 -1577135685 1653961705 1750540541 337220280 -1091294344 -1793055695 -1193427225 1939893118 -479334411 -62892107 -9063534 459027452 -801259484 894452028 1278757790
REM
CELL 1.54180   50.00000   50.00000   50.00000   90.00000   90.00000   90.00000
LATT -1
SFAC C  
C      1  0.5723920000000  0.4964370000000  0.4669710000000 1.0
C      1  0.4703320000000  0.4671040000000  0.5768240000000 1.0
C      1  0.4839120000000  0.5534500000000  0.4387890000000 1.0
C      1  0.5553910000000  0.4520230000000  0.4991290000000 1.0
C      1  0.5601290000000  0.4331200000000  0.4723910000000 1.0
C      1  0.5256530000000  0.4603110000000  0.5512850000000 1.0
C      1  0.4555530000000  0.4384450000000  0.4537200000000 1.0
C      1  0.4784390000000  0.4279720000000  0.4681570000000 1.0
C      1  0.4246160000000  0.4592840000000  0.5159860000000 1.0
C      1  0.5352470000000  0.5371640000000  0.5517740000000 1.0
C      1  0.4359620000000  0.4486420000000  0.4726890000000 1.0
C      1  0.5286380000000  0.5289970000000  0.4398980000000 1.0
C      1  0.4685840000000  0.4341460000000  0.4979910000000 1.0
C      1  0.4811940000000  0.5071630000000  0.5032310000000 1.0
C      1  0.5201960000000  0.4924320000000  0.4764470000000 1.0
C      1  0.5591800000000  0.5230170000000  0.5231680000000 1.0
C      1  0.4350720000000  0.4843550000000  0.5269730000000 1.0
C      1  0.4420690000000  0.4832520000000  0.4441990000000 1.0
C      1  0.4665400000000  0.4170530000000  0.5271890000000 1.0
C      1  0.5076610000000  0.5172440000000  0.5221000000000 1.0
C      1  0.4800300000000  0.5097940000000  0.4634180000000 1.0
C      1  0.5151320000000  0.4783440000000  0.5253420000000 1.0
C      1  0.5617990000000  0.4842520000000  0.4961220000000 1.0
C      1  0.5076590000000  0.4864910000000  0.4467610000000 1.0
C      1  0.5046800000000  0.5101850000000  0.4319820000000 1.0
C      1  0.4558430000000  0.4957060000000  0.5783190000000 1.0
C      1  0.5032540000000  0.5256520000000  0.5515510000000 1.0
C      1  0.5187470000000  0.5441840000000  0.5084070000000 1.0
C      1  0.4662910000000  0.4833800000000  0.5224280000000 1.0
C      1  0.4788840000000  0.4830080000000  0.5485750000000 1.0
C      1  0.5443990000000  0.4783680000000  0.4596840000000 1.0
C      1  0.4498350000000  0.5217390000000  0.5568280000000 1.0
C      1  0.5117010000000  0.5569430000000  0.4313790000000 1.0
C      1  0.5089490000000  0.4392750000000  0.4642190000000 1.0
C      1  0.5373120000000  0.5006530000000  0.5233580000000 1.0
C      1  0.5262790000000  0.4354130000000  0.4933730000000 1.0
C      1  0.5193530000000  0.5442890000000  0.4684200000000 1.0
C      1  0.5108610000000  0.6193080000000  0.5031300000000 1.0
C      1  0.4725560000000  0.5652470000000  0.4619580000000 1.0
C      1  0.4313600000000  0.5118060000000  0.5329400000000 1.0
C      1  0.5392790000000  0.4336500000000  0.5423540000000 1.0
C      1  0.5543640000000  0.5390760000000  0.4868950000000 1.0
C      1  0.4785830000000  0.5252560000000  0.4348700000000 1.0
C      1  0.4865110000000  0.5605590000000  0.5416260000000 1.0
C      1  0.4599170000000  0.4626970000000  0.4366750000000 1.0
C      1  0.4501260000000  0.5092970000000  0.4894520000000 1.0
C      1  0.4815210000000  0.5118100000000  0.5628490000000 1.0
C      1  0.5543020000000  0.4713050000000  0.5258880000000 1.0
C      1  0.5458030000000  0.5520070000000  0.5236860000000 1.0
C      1  0.4990060000000  0.4788790000000  0.4969040000000 1.0
C      1  0.4988930000000  0.4469320000000  0.5021580000000 1.0
C      1  0.4968690000000  0.5658270000000  0.5123130000000 1.0
C      1  0.4363160000000  0.5268620000000  0.5096390000000 1.0
C      1  0.5415700000000  0.5677180000000  0.4730390000000 1.0
C      1  0.5391310000000  0.4221390000000  0.5200180000000 1.0
C      1  0.4721300000000  0.5575560000000  0.4937040000000 1.0
C      1  0.4608130000000  0.5498130000000  0.5413320000000 1.0
C      1  0.5503670000000  0.5083950000000  0.4448810000000 1.0
C      1  0.5042290000000  0.5952600000000  0.5085370000000 1.0
C      1  0.5093210000000  0.5570400000000  0.5613670000000 1.0
C      1  0.5502020000000  0.4832290000000  0.5568700000000 1.0
C      1  0.5397480000000  0.4483950000000  0.4580430000000 1.0
C      1  0.4531560000000  0.4644490000000  0.4974160000000 1.0
C      1  0.5560020000000  0.5121820000000  0.5566060000000 1.0
C      1  0.4949760000000  0.4562690000000  0.5555410000000 1.0
C      1  0.4907390000000  0.5323660000000  0.4824690000000 1.0
C      1  0.4900040000000  0.4616790000000  0.4502810000000 1.0
C      1  0.5744830000000  0.5153690000000  0.4951570000000 1.0
C      1  0.4506330000000  0.5499850000000  0.5146570000000 1.0
C      1  0.5583260000000  0.5699750000000  0.5005330000000 1.0
C      1  0.5278310000000  0.5187580000000  0.4877230000000 1.0
C      1  0.4488580000000  0.5111250000000  0.4555030000000 1.0
C      1  0.4878150000000  0.4376910000000  0.5324630000000 1.0
C      1  0.4738370000000  0.4780680000000  0.4740830000000 1.0
C      1  0.4326560000000  0.4827310000000  0.4773630000000 1.0
END
