TITL C-2848499-1157-207 0.00322366053720434 125000 -357.176190004099 0 0 63 (C1) n - 1
REM
REM in /home/bkarasulu/work/CARBON/AIRSS/Generating-Clusters/AIREBO/with-SteepDescent/Only-C1/SD-CG-opt/Try1-1.4A-POS3A/HFTN-CG
REM
REM
REM
REM
REM
REM ./C.cell (11c1c37f851c82e70ff6c80c92926a4b)
REM
REM compiler GCC version 9.2.1 20190827 (Red Hat 9.2.1-1)
REM options -cpp -mtune=generic -march=x86-64 -g -O0 -fpre-include=/usr/include/finclude/math-vector-fortran.h
REM seed -1969397447 -594919395 -187584012 1013289479 146761642 1123932104 569137938 1863381238 -1382068113 -1980124858 -1247154614 -381914292 54649767 592547099 -274133283 1325527387 636459942 -1585825364 885006087 276149528 774866071 -1112444733 -1424702141 241158212 -1218924213 -595928500 -1866490053 -1659350894 1653760587 -1556620025 1636672805 581101873 -1657251425
REM
CELL 1.54180   50.00000   50.00000   50.00000   90.00000   90.00000   90.00000
LATT -1
SFAC C  
C      1  0.5249210000000  0.5236790000000  0.5675840000000 1.0
C      1  0.5582830000000  0.4356030000000  0.4817770000000 1.0
C      1  0.5717510000000  0.5263300000000  0.5281970000000 1.0
C      1  0.5490060000000  0.4412090000000  0.5174680000000 1.0
C      1  0.5069220000000  0.4572150000000  0.4538150000000 1.0
C      1  0.4955910000000  0.4716540000000  0.5485860000000 1.0
C      1  0.5362520000000  0.5440610000000  0.5235350000000 1.0
C      1  0.5074680000000  0.4575800000000  0.4842430000000 1.0
C      1  0.5106280000000  0.4768560000000  0.5120740000000 1.0
C      1  0.4647420000000  0.4469600000000  0.4972260000000 1.0
C      1  0.4758070000000  0.4236990000000  0.4834380000000 1.0
C      1  0.5311420000000  0.5308220000000  0.4777050000000 1.0
C      1  0.5172280000000  0.5252550000000  0.5073630000000 1.0
C      1  0.4516920000000  0.4486230000000  0.5216290000000 1.0
C      1  0.5625000000000  0.5078110000000  0.4493890000000 1.0
C      1  0.5011000000000  0.5271440000000  0.5737860000000 1.0
C      1  0.4846580000000  0.5392350000000  0.4694160000000 1.0
C      1  0.4719720000000  0.5793120000000  0.5197630000000 1.0
C      1  0.5267060000000  0.4322000000000  0.4939160000000 1.0
C      1  0.5102040000000  0.4993950000000  0.4904560000000 1.0
C      1  0.4446950000000  0.4771690000000  0.5254140000000 1.0
C      1  0.4897520000000  0.5520260000000  0.4969880000000 1.0
C      1  0.5707150000000  0.5393550000000  0.5038870000000 1.0
C      1  0.4530720000000  0.5751100000000  0.4984740000000 1.0
C      1  0.4204570000000  0.5246930000000  0.5228510000000 1.0
C      1  0.5577180000000  0.5662310000000  0.5069290000000 1.0
C      1  0.5124310000000  0.5354020000000  0.4568020000000 1.0
C      1  0.4594730000000  0.5574550000000  0.4714470000000 1.0
C      1  0.4668480000000  0.4538950000000  0.5489100000000 1.0
C      1  0.4404070000000  0.5442070000000  0.4942650000000 1.0
C      1  0.4862130000000  0.5282080000000  0.5210070000000 1.0
C      1  0.5685520000000  0.4626690000000  0.4954420000000 1.0
C      1  0.4524170000000  0.4926760000000  0.4998220000000 1.0
C      1  0.5430320000000  0.5186320000000  0.5425870000000 1.0
C      1  0.4786410000000  0.4752030000000  0.4882520000000 1.0
C      1  0.4417900000000  0.4831110000000  0.4516830000000 1.0
C      1  0.5614960000000  0.5236880000000  0.4795500000000 1.0
C      1  0.4674230000000  0.4765640000000  0.4398370000000 1.0
C      1  0.5402930000000  0.5015720000000  0.4333530000000 1.0
C      1  0.4322810000000  0.4946850000000  0.4756410000000 1.0
C      1  0.4725530000000  0.4260700000000  0.4551720000000 1.0
C      1  0.4573840000000  0.5206230000000  0.5083280000000 1.0
C      1  0.4734910000000  0.5567040000000  0.5372760000000 1.0
C      1  0.5116380000000  0.5150090000000  0.4366580000000 1.0
C      1  0.4588040000000  0.4863790000000  0.5502410000000 1.0
C      1  0.4858820000000  0.5040750000000  0.5449850000000 1.0
C      1  0.4836240000000  0.5054200000000  0.4732900000000 1.0
C      1  0.4873430000000  0.4983420000000  0.4421340000000 1.0
C      1  0.5281660000000  0.5751710000000  0.5145440000000 1.0
C      1  0.5228540000000  0.4776550000000  0.4448050000000 1.0
C      1  0.4809890000000  0.4511460000000  0.4441090000000 1.0
C      1  0.5328110000000  0.4901320000000  0.4706980000000 1.0
C      1  0.5718880000000  0.4913850000000  0.4773450000000 1.0
C      1  0.4460720000000  0.5274240000000  0.5387220000000 1.0
C      1  0.5267590000000  0.4684580000000  0.5475080000000 1.0
C      1  0.5014300000000  0.5780050000000  0.5080790000000 1.0
C      1  0.5471890000000  0.4881000000000  0.5004800000000 1.0
C      1  0.4973650000000  0.4253690000000  0.5052410000000 1.0
C      1  0.4728550000000  0.5324580000000  0.5584280000000 1.0
C      1  0.4954780000000  0.4489140000000  0.5233030000000 1.0
C      1  0.5361500000000  0.4921520000000  0.5291300000000 1.0
C      1  0.5418970000000  0.4463280000000  0.5430150000000 1.0
C      1  0.4210980000000  0.5174850000000  0.4920060000000 1.0
END
