TITL C-2848495-5024-592 -0.00950055853509013 125000 -872.670204623068 0 0 164 (C1) n - 1
REM
REM in /home/bkarasulu/work/CARBON/AIRSS/Generating-Clusters/AIREBO/with-SteepDescent/Only-C1/SD-CG-opt/Try1-1.4A-POS3A/HFTN-CG
REM
REM
REM
REM
REM
REM ./C.cell (11c1c37f851c82e70ff6c80c92926a4b)
REM
REM compiler GCC version 9.2.1 20190827 (Red Hat 9.2.1-1)
REM options -cpp -mtune=generic -march=x86-64 -g -O0 -fpre-include=/usr/include/finclude/math-vector-fortran.h
REM seed 1789988621 -578503934 -1675459146 2000213773 712703984 -1997774583 -494759522 1961638011 1016631691 1860407831 -21135014 -1270562071 1269062845 773117820 1882247026 -617848263 295535150 850191392 366596283 -1525559569 1438004955 -801358489 1417365000 1359430075 -1645938905 -828911623 -1729785778 -648505324 187486551 -1413271261 768706688 -951030310 -1969528519
REM
CELL 1.54180   50.00000   50.00000   50.00000   90.00000   90.00000   90.00000
LATT -1
SFAC C  
C      1  0.5737170000000  0.5731420000000  0.5093680000000 1.0
C      1  0.4447290000000  0.5617930000000  0.5215800000000 1.0
C      1  0.5724660000000  0.4501790000000  0.5609230000000 1.0
C      1  0.4069760000000  0.5134920000000  0.5220730000000 1.0
C      1  0.4986330000000  0.5838500000000  0.4289270000000 1.0
C      1  0.4653770000000  0.4849890000000  0.4589240000000 1.0
C      1  0.4044050000000  0.4838030000000  0.4558230000000 1.0
C      1  0.4416660000000  0.5933190000000  0.5163410000000 1.0
C      1  0.5390090000000  0.5185980000000  0.4233150000000 1.0
C      1  0.4375830000000  0.4849440000000  0.4785150000000 1.0
C      1  0.4784570000000  0.4638020000000  0.3902640000000 1.0
C      1  0.4681650000000  0.4735520000000  0.5010060000000 1.0
C      1  0.5614000000000  0.5281980000000  0.5395730000000 1.0
C      1  0.4135460000000  0.4510990000000  0.4530520000000 1.0
C      1  0.5656710000000  0.4204630000000  0.5464460000000 1.0
C      1  0.5312510000000  0.5203630000000  0.4738440000000 1.0
C      1  0.4722170000000  0.5871870000000  0.5640730000000 1.0
C      1  0.5323050000000  0.5974480000000  0.4807240000000 1.0
C      1  0.4226920000000  0.4834950000000  0.5251510000000 1.0
C      1  0.5065660000000  0.6152140000000  0.4954100000000 1.0
C      1  0.5464910000000  0.5085160000000  0.4513500000000 1.0
C      1  0.5123410000000  0.5486580000000  0.6074340000000 1.0
C      1  0.4199230000000  0.5605830000000  0.4273290000000 1.0
C      1  0.4306050000000  0.5045230000000  0.4515980000000 1.0
C      1  0.5318090000000  0.4592110000000  0.4272220000000 1.0
C      1  0.5261950000000  0.5075870000000  0.3873010000000 1.0
C      1  0.3964180000000  0.4961530000000  0.4864900000000 1.0
C      1  0.5053300000000  0.5223510000000  0.4409630000000 1.0
C      1  0.4933870000000  0.4308800000000  0.5493300000000 1.0
C      1  0.4581660000000  0.4686450000000  0.4299800000000 1.0
C      1  0.4415200000000  0.4903220000000  0.4012060000000 1.0
C      1  0.5549950000000  0.5040680000000  0.5984180000000 1.0
C      1  0.5533200000000  0.5488520000000  0.5004260000000 1.0
C      1  0.5233470000000  0.5474050000000  0.5745580000000 1.0
C      1  0.5696730000000  0.4482870000000  0.4337060000000 1.0
C      1  0.5792860000000  0.5671200000000  0.4763530000000 1.0
C      1  0.4882570000000  0.4019430000000  0.4818540000000 1.0
C      1  0.4450250000000  0.4248240000000  0.5144710000000 1.0
C      1  0.5768640000000  0.5195190000000  0.4535400000000 1.0
C      1  0.5356920000000  0.4984690000000  0.5491750000000 1.0
C      1  0.5670000000000  0.5219750000000  0.4043010000000 1.0
C      1  0.4875270000000  0.4103060000000  0.4514200000000 1.0
C      1  0.4751670000000  0.5160190000000  0.5515240000000 1.0
C      1  0.4383700000000  0.5739810000000  0.4726960000000 1.0
C      1  0.5689330000000  0.5186720000000  0.5016270000000 1.0
C      1  0.5601050000000  0.4741930000000  0.4166310000000 1.0
C      1  0.4536670000000  0.5333050000000  0.4954130000000 1.0
C      1  0.5377780000000  0.4052260000000  0.5343580000000 1.0
C      1  0.4306370000000  0.4788700000000  0.5876850000000 1.0
C      1  0.4910630000000  0.4025770000000  0.5373870000000 1.0
C      1  0.5406740000000  0.4855640000000  0.5800920000000 1.0
C      1  0.5531680000000  0.4162520000000  0.4857860000000 1.0
C      1  0.4426220000000  0.5082380000000  0.5766970000000 1.0
C      1  0.4736970000000  0.4944760000000  0.5781220000000 1.0
C      1  0.4475210000000  0.4407210000000  0.5560680000000 1.0
C      1  0.5516180000000  0.5917750000000  0.5554660000000 1.0
C      1  0.4484420000000  0.4548270000000  0.5848460000000 1.0
C      1  0.5461110000000  0.4438800000000  0.5313540000000 1.0
C      1  0.4513670000000  0.5406410000000  0.5765080000000 1.0
C      1  0.3940980000000  0.4746170000000  0.5412690000000 1.0
C      1  0.5485570000000  0.5064760000000  0.6248300000000 1.0
C      1  0.5255740000000  0.5808540000000  0.5688790000000 1.0
C      1  0.5250460000000  0.4822370000000  0.4489690000000 1.0
C      1  0.4903450000000  0.5368700000000  0.4799450000000 1.0
C      1  0.5326630000000  0.5004710000000  0.4984000000000 1.0
C      1  0.5199180000000  0.5491370000000  0.4705450000000 1.0
C      1  0.5257730000000  0.4251920000000  0.5123170000000 1.0
C      1  0.5153660000000  0.3896160000000  0.5405240000000 1.0
C      1  0.4359980000000  0.4903860000000  0.3762340000000 1.0
C      1  0.5864840000000  0.4022500000000  0.5489260000000 1.0
C      1  0.4703540000000  0.5744630000000  0.4253610000000 1.0
C      1  0.4918290000000  0.5725490000000  0.4978060000000 1.0
C      1  0.4331780000000  0.4280860000000  0.4590680000000 1.0
C      1  0.4389960000000  0.5417370000000  0.5461490000000 1.0
C      1  0.4834540000000  0.4519760000000  0.6035050000000 1.0
C      1  0.5767800000000  0.5158280000000  0.5855550000000 1.0
C      1  0.5042650000000  0.4493170000000  0.5228850000000 1.0
C      1  0.4465080000000  0.4965900000000  0.5082640000000 1.0
C      1  0.4509100000000  0.5990130000000  0.4902940000000 1.0
C      1  0.4652590000000  0.4690250000000  0.5572160000000 1.0
C      1  0.4443500000000  0.5592760000000  0.4426120000000 1.0
C      1  0.3923270000000  0.4493780000000  0.5185510000000 1.0
C      1  0.4950570000000  0.5483190000000  0.5389350000000 1.0
C      1  0.4751950000000  0.4762290000000  0.6058980000000 1.0
C      1  0.5589610000000  0.4476000000000  0.4838510000000 1.0
C      1  0.4644050000000  0.5166920000000  0.4712180000000 1.0
C      1  0.5029040000000  0.5068870000000  0.4711640000000 1.0
C      1  0.4267320000000  0.4806430000000  0.4297720000000 1.0
C      1  0.5023490000000  0.5220460000000  0.5802140000000 1.0
C      1  0.5238570000000  0.5743530000000  0.5294800000000 1.0
C      1  0.4823410000000  0.4365990000000  0.5000660000000 1.0
C      1  0.5071950000000  0.4892820000000  0.5752900000000 1.0
C      1  0.4279730000000  0.5509090000000  0.4936950000000 1.0
C      1  0.5934180000000  0.4670480000000  0.5184650000000 1.0
C      1  0.5530910000000  0.4579320000000  0.5796220000000 1.0
C      1  0.4162160000000  0.4380910000000  0.5019520000000 1.0
C      1  0.5233520000000  0.4358300000000  0.5553040000000 1.0
C      1  0.4998110000000  0.5749270000000  0.5902750000000 1.0
C      1  0.5573550000000  0.4234600000000  0.4317270000000 1.0
C      1  0.5248430000000  0.5833780000000  0.4506620000000 1.0
C      1  0.5193600000000  0.4104600000000  0.4838780000000 1.0
C      1  0.4552690000000  0.5216350000000  0.5261250000000 1.0
C      1  0.5978650000000  0.4966720000000  0.5443020000000 1.0
C      1  0.5178780000000  0.4698670000000  0.4994570000000 1.0
C      1  0.5472980000000  0.5637300000000  0.4393720000000 1.0
C      1  0.5336460000000  0.5356830000000  0.3876340000000 1.0
C      1  0.5089210000000  0.5187550000000  0.5484620000000 1.0
C      1  0.5180800000000  0.4312130000000  0.3855840000000 1.0
C      1  0.4922520000000  0.4390800000000  0.4488160000000 1.0
C      1  0.4960860000000  0.5876690000000  0.4685870000000 1.0
C      1  0.4927480000000  0.4863890000000  0.4387840000000 1.0
C      1  0.5411350000000  0.5501410000000  0.4154720000000 1.0
C      1  0.5780860000000  0.4550450000000  0.4594080000000 1.0
C      1  0.4824710000000  0.5456890000000  0.5892770000000 1.0
C      1  0.4952070000000  0.4880360000000  0.4919550000000 1.0
C      1  0.5615630000000  0.4660530000000  0.5123130000000 1.0
C      1  0.4227820000000  0.4594870000000  0.4812500000000 1.0
C      1  0.3869180000000  0.4800620000000  0.5077380000000 1.0
C      1  0.4561800000000  0.5732710000000  0.5773060000000 1.0
C      1  0.4701360000000  0.5577800000000  0.4647350000000 1.0
C      1  0.4786290000000  0.4570780000000  0.4731430000000 1.0
C      1  0.4222590000000  0.4438790000000  0.5408940000000 1.0
C      1  0.4196910000000  0.4905770000000  0.5582850000000 1.0
C      1  0.4677180000000  0.5897300000000  0.4533490000000 1.0
C      1  0.5929920000000  0.4654350000000  0.5496360000000 1.0
C      1  0.4772620000000  0.6081870000000  0.4872890000000 1.0
C      1  0.5877690000000  0.5536400000000  0.5256660000000 1.0
C      1  0.4299540000000  0.4113340000000  0.4876150000000 1.0
C      1  0.5019890000000  0.5321790000000  0.5116180000000 1.0
C      1  0.4540210000000  0.5267150000000  0.4408630000000 1.0
C      1  0.5254540000000  0.5678270000000  0.4959560000000 1.0
C      1  0.4659340000000  0.5007700000000  0.4223870000000 1.0
C      1  0.5357320000000  0.4786130000000  0.3928530000000 1.0
C      1  0.5585330000000  0.5939580000000  0.5281920000000 1.0
C      1  0.5808540000000  0.5138840000000  0.5581310000000 1.0
C      1  0.4734540000000  0.4062630000000  0.5125900000000 1.0
C      1  0.6010310000000  0.4970650000000  0.5115910000000 1.0
C      1  0.5118860000000  0.4555630000000  0.4004130000000 1.0
C      1  0.5594890000000  0.4966100000000  0.5271280000000 1.0
C      1  0.5701910000000  0.5529490000000  0.4543940000000 1.0
C      1  0.4608890000000  0.4218200000000  0.4781650000000 1.0
C      1  0.4102300000000  0.5304510000000  0.5432340000000 1.0
C      1  0.4852530000000  0.4513280000000  0.4211620000000 1.0
C      1  0.5750030000000  0.5013640000000  0.4245940000000 1.0
C      1  0.4898690000000  0.5041190000000  0.5165290000000 1.0
C      1  0.5218870000000  0.4425900000000  0.4512790000000 1.0
C      1  0.4748280000000  0.4351730000000  0.5755570000000 1.0
C      1  0.5318040000000  0.4608220000000  0.4747540000000 1.0
C      1  0.5852980000000  0.4805420000000  0.4687620000000 1.0
C      1  0.5350510000000  0.5487270000000  0.5456040000000 1.0
C      1  0.4772410000000  0.5630930000000  0.5169230000000 1.0
C      1  0.5136400000000  0.4732300000000  0.5451980000000 1.0
C      1  0.5386030000000  0.4167880000000  0.4565660000000 1.0
C      1  0.5126160000000  0.5011930000000  0.4160730000000 1.0
C      1  0.4860560000000  0.4861520000000  0.5411280000000 1.0
C      1  0.5948190000000  0.5106550000000  0.4810350000000 1.0
C      1  0.5327220000000  0.6029350000000  0.5133290000000 1.0
C      1  0.5331680000000  0.4382670000000  0.5806410000000 1.0
C      1  0.4451840000000  0.4583030000000  0.5204220000000 1.0
C      1  0.5341530000000  0.5276890000000  0.5188940000000 1.0
C      1  0.4979480000000  0.5785200000000  0.5505880000000 1.0
C      1  0.4055870000000  0.5253210000000  0.4948700000000 1.0
C      1  0.5618170000000  0.4897420000000  0.4879240000000 1.0
C      1  0.4835860000000  0.5382960000000  0.4326090000000 1.0
END
