TITL C-2847952-8118-87 0.00338467828330908 125000 -1018.99103961408 0 0 195 (C1) n - 1
REM
REM in /home/bkarasulu/work/CARBON/AIRSS/Generating-Clusters/AIREBO/with-SteepDescent/Only-C1/SD-CG-opt/Try1-1.4A-POS3A/HFTN-CG
REM
REM
REM
REM
REM
REM ./C.cell (11c1c37f851c82e70ff6c80c92926a4b)
REM
REM compiler GCC version 9.2.1 20190827 (Red Hat 9.2.1-1)
REM options -cpp -mtune=generic -march=x86-64 -g -O0 -fpre-include=/usr/include/finclude/math-vector-fortran.h
REM seed 1181187818 260800234 -1780937895 -1070274202 395608529 919551042 1539060916 820563032 2005815319 -218740227 1784611139 -2110706845 -147140052 1535268586 -418855994 -852729803 364049751 -518195095 -1015760434 1650952064 -1308300928 741586115 -1588548710 -2050546217 187733322 1373225000 -955386874 -1482394699 -928709274 -1879608135 81098211 -1019191771 1087097286
REM
CELL 1.54180   50.00000   50.00000   50.00000   90.00000   90.00000   90.00000
LATT -1
SFAC C  
C      1  0.4544360000000  0.5544340000000  0.4777210000000 1.0
C      1  0.4351620000000  0.4272440000000  0.4603200000000 1.0
C      1  0.5478560000000  0.3970750000000  0.4808590000000 1.0
C      1  0.4867340000000  0.4136620000000  0.4835980000000 1.0
C      1  0.4777370000000  0.3911390000000  0.5151850000000 1.0
C      1  0.4658390000000  0.4595280000000  0.4977660000000 1.0
C      1  0.5142100000000  0.5959230000000  0.5574360000000 1.0
C      1  0.5213560000000  0.4775690000000  0.4665980000000 1.0
C      1  0.4709310000000  0.5021170000000  0.4366360000000 1.0
C      1  0.4031140000000  0.4713930000000  0.4581490000000 1.0
C      1  0.5454130000000  0.4666310000000  0.5553440000000 1.0
C      1  0.4055640000000  0.4928130000000  0.4348660000000 1.0
C      1  0.4691960000000  0.5153050000000  0.5317340000000 1.0
C      1  0.4524230000000  0.4950320000000  0.5101800000000 1.0
C      1  0.4818750000000  0.5992290000000  0.4932550000000 1.0
C      1  0.5826020000000  0.4531220000000  0.5611190000000 1.0
C      1  0.3874840000000  0.4628520000000  0.4841020000000 1.0
C      1  0.4637650000000  0.4213820000000  0.4461690000000 1.0
C      1  0.5244450000000  0.3925200000000  0.4965520000000 1.0
C      1  0.5196320000000  0.4857880000000  0.5574350000000 1.0
C      1  0.5093250000000  0.4371500000000  0.4833060000000 1.0
C      1  0.5099720000000  0.4933590000000  0.5139920000000 1.0
C      1  0.3863580000000  0.5194170000000  0.4437860000000 1.0
C      1  0.5739320000000  0.5603450000000  0.4350170000000 1.0
C      1  0.5132660000000  0.4067410000000  0.5510600000000 1.0
C      1  0.4831890000000  0.4943210000000  0.5947690000000 1.0
C      1  0.5007420000000  0.4395810000000  0.4164170000000 1.0
C      1  0.4405370000000  0.5102790000000  0.4120240000000 1.0
C      1  0.5344320000000  0.5786930000000  0.4716520000000 1.0
C      1  0.5393320000000  0.4797650000000  0.5143270000000 1.0
C      1  0.4698140000000  0.5757020000000  0.6000650000000 1.0
C      1  0.5835160000000  0.5797390000000  0.4824940000000 1.0
C      1  0.5196650000000  0.5375540000000  0.4810670000000 1.0
C      1  0.4488240000000  0.4508920000000  0.5659230000000 1.0
C      1  0.4853000000000  0.5650630000000  0.4681780000000 1.0
C      1  0.4987600000000  0.4837400000000  0.4419120000000 1.0
C      1  0.4546450000000  0.5294020000000  0.4457470000000 1.0
C      1  0.4557480000000  0.5234750000000  0.4917890000000 1.0
C      1  0.4355070000000  0.5755430000000  0.5489550000000 1.0
C      1  0.4893890000000  0.4552490000000  0.4537720000000 1.0
C      1  0.3914200000000  0.5352460000000  0.5342440000000 1.0
C      1  0.4528870000000  0.5741840000000  0.5740030000000 1.0
C      1  0.5709880000000  0.4975150000000  0.4094780000000 1.0
C      1  0.5537360000000  0.5859930000000  0.4446270000000 1.0
C      1  0.5145790000000  0.4388620000000  0.4538400000000 1.0
C      1  0.5892780000000  0.5445090000000  0.5048940000000 1.0
C      1  0.4230840000000  0.4786390000000  0.5153970000000 1.0
C      1  0.4558920000000  0.4631630000000  0.4209150000000 1.0
C      1  0.5385870000000  0.4462080000000  0.5088650000000 1.0
C      1  0.4240820000000  0.4741270000000  0.4159780000000 1.0
C      1  0.5039610000000  0.5465840000000  0.4383710000000 1.0
C      1  0.4513570000000  0.5966250000000  0.5320110000000 1.0
C      1  0.5541260000000  0.5796140000000  0.5214670000000 1.0
C      1  0.5619260000000  0.5426130000000  0.5768350000000 1.0
C      1  0.4600320000000  0.5053660000000  0.5608460000000 1.0
C      1  0.4806880000000  0.5078450000000  0.4748960000000 1.0
C      1  0.4615610000000  0.4871610000000  0.3999250000000 1.0
C      1  0.4265620000000  0.5259110000000  0.5634600000000 1.0
C      1  0.5744380000000  0.5125450000000  0.4379030000000 1.0
C      1  0.4745280000000  0.4785810000000  0.4730950000000 1.0
C      1  0.5500290000000  0.5361580000000  0.4349910000000 1.0
C      1  0.3858280000000  0.5363970000000  0.5061960000000 1.0
C      1  0.5001940000000  0.4699330000000  0.5344760000000 1.0
C      1  0.4531620000000  0.5884110000000  0.4784510000000 1.0
C      1  0.5982610000000  0.4922700000000  0.4512310000000 1.0
C      1  0.5082840000000  0.5170650000000  0.6159340000000 1.0
C      1  0.6123430000000  0.4979950000000  0.5203100000000 1.0
C      1  0.4992250000000  0.4703280000000  0.6127810000000 1.0
C      1  0.5228050000000  0.5135380000000  0.5458420000000 1.0
C      1  0.4921900000000  0.5679370000000  0.4166510000000 1.0
C      1  0.5317970000000  0.5566540000000  0.5840060000000 1.0
C      1  0.6080440000000  0.4652980000000  0.4694880000000 1.0
C      1  0.5658930000000  0.4775200000000  0.5343950000000 1.0
C      1  0.5919570000000  0.4577850000000  0.4237320000000 1.0
C      1  0.5947290000000  0.5061660000000  0.4960610000000 1.0
C      1  0.5867510000000  0.4257290000000  0.4834590000000 1.0
C      1  0.4246230000000  0.5364230000000  0.4969570000000 1.0
C      1  0.4641940000000  0.6186250000000  0.5152660000000 1.0
C      1  0.4972870000000  0.5721670000000  0.5460630000000 1.0
C      1  0.4202720000000  0.5797910000000  0.4782400000000 1.0
C      1  0.5935710000000  0.5377890000000  0.4473940000000 1.0
C      1  0.4942660000000  0.4517920000000  0.5695730000000 1.0
C      1  0.5636000000000  0.4362790000000  0.4639380000000 1.0
C      1  0.4078490000000  0.5302980000000  0.4680000000000 1.0
C      1  0.4683280000000  0.4252360000000  0.5548760000000 1.0
C      1  0.4268630000000  0.5558600000000  0.4570120000000 1.0
C      1  0.5559850000000  0.5623280000000  0.4922440000000 1.0
C      1  0.4795700000000  0.5568290000000  0.5667690000000 1.0
C      1  0.4939780000000  0.5409390000000  0.4002220000000 1.0
C      1  0.5466020000000  0.4863210000000  0.4019230000000 1.0
C      1  0.5748210000000  0.4825570000000  0.4828020000000 1.0
C      1  0.4549780000000  0.5825810000000  0.4478510000000 1.0
C      1  0.4159530000000  0.4940410000000  0.5581130000000 1.0
C      1  0.5272550000000  0.4190750000000  0.4222910000000 1.0
C      1  0.4279340000000  0.4538340000000  0.4562530000000 1.0
C      1  0.4373850000000  0.4900930000000  0.4800530000000 1.0
C      1  0.5385520000000  0.4422030000000  0.5999500000000 1.0
C      1  0.5502310000000  0.4683580000000  0.6052560000000 1.0
C      1  0.4930440000000  0.5263350000000  0.5888410000000 1.0
C      1  0.4986250000000  0.5210770000000  0.5233310000000 1.0
C      1  0.4667390000000  0.4760700000000  0.5345580000000 1.0
C      1  0.4885150000000  0.4464280000000  0.5157550000000 1.0
C      1  0.5636210000000  0.5082990000000  0.5767980000000 1.0
C      1  0.4065990000000  0.4980970000000  0.4784380000000 1.0
C      1  0.5693230000000  0.5060570000000  0.5162310000000 1.0
C      1  0.5773320000000  0.4655540000000  0.4534310000000 1.0
C      1  0.4640620000000  0.5595140000000  0.4325240000000 1.0
C      1  0.4670230000000  0.5587890000000  0.5090090000000 1.0
C      1  0.5680160000000  0.4083750000000  0.4974340000000 1.0
C      1  0.4830900000000  0.5350130000000  0.4577680000000 1.0
C      1  0.4539890000000  0.4057740000000  0.5321640000000 1.0
C      1  0.4313000000000  0.4140690000000  0.4841570000000 1.0
C      1  0.5270360000000  0.5932200000000  0.5135450000000 1.0
C      1  0.5181570000000  0.5284170000000  0.3949250000000 1.0
C      1  0.4946590000000  0.5849050000000  0.4449050000000 1.0
C      1  0.5475970000000  0.4797820000000  0.4450800000000 1.0
C      1  0.4933000000000  0.6081730000000  0.4625010000000 1.0
C      1  0.4804360000000  0.5829250000000  0.5230700000000 1.0
C      1  0.3927470000000  0.5573910000000  0.4819640000000 1.0
C      1  0.4430850000000  0.5440800000000  0.4106480000000 1.0
C      1  0.3894420000000  0.5076850000000  0.5434860000000 1.0
C      1  0.5072760000000  0.4668010000000  0.4154850000000 1.0
C      1  0.4259200000000  0.5191710000000  0.4414220000000 1.0
C      1  0.6035670000000  0.5088530000000  0.5454660000000 1.0
C      1  0.4383250000000  0.4565060000000  0.5965350000000 1.0
C      1  0.3831470000000  0.5097190000000  0.4969290000000 1.0
C      1  0.5355160000000  0.4911600000000  0.5853080000000 1.0
C      1  0.4496020000000  0.4793290000000  0.4501750000000 1.0
C      1  0.5288530000000  0.5517270000000  0.4538980000000 1.0
C      1  0.5793880000000  0.4230990000000  0.5480080000000 1.0
C      1  0.4103780000000  0.4363200000000  0.5348220000000 1.0
C      1  0.5530600000000  0.5138520000000  0.5449510000000 1.0
C      1  0.4665110000000  0.5121320000000  0.6156250000000 1.0
C      1  0.5565900000000  0.5054860000000  0.4659870000000 1.0
C      1  0.4382790000000  0.5552800000000  0.5217510000000 1.0
C      1  0.4785840000000  0.4779610000000  0.5664970000000 1.0
C      1  0.4704160000000  0.4391770000000  0.4743670000000 1.0
C      1  0.5424550000000  0.5087460000000  0.4967510000000 1.0
C      1  0.5117720000000  0.4056730000000  0.4529500000000 1.0
C      1  0.4494170000000  0.4488850000000  0.5237150000000 1.0
C      1  0.5398680000000  0.4200510000000  0.5505390000000 1.0
C      1  0.5374530000000  0.5851490000000  0.5697320000000 1.0
C      1  0.5567660000000  0.4216080000000  0.5227970000000 1.0
C      1  0.4992550000000  0.5593000000000  0.5943850000000 1.0
C      1  0.5165880000000  0.4982830000000  0.4066170000000 1.0
C      1  0.5070650000000  0.5763970000000  0.4917150000000 1.0
C      1  0.5695780000000  0.5340380000000  0.4791390000000 1.0
C      1  0.3961660000000  0.4737040000000  0.5082980000000 1.0
C      1  0.5058400000000  0.4671010000000  0.4949930000000 1.0
C      1  0.5461530000000  0.4591750000000  0.4059680000000 1.0
C      1  0.5893980000000  0.4550460000000  0.5278390000000 1.0
C      1  0.5130670000000  0.5105290000000  0.4678300000000 1.0
C      1  0.4920240000000  0.4176540000000  0.5309740000000 1.0
C      1  0.4661260000000  0.3878050000000  0.4838770000000 1.0
C      1  0.4830840000000  0.4246020000000  0.5853240000000 1.0
C      1  0.5368030000000  0.5399080000000  0.5091580000000 1.0
C      1  0.6173650000000  0.4697010000000  0.5191300000000 1.0
C      1  0.4722270000000  0.4369980000000  0.4216120000000 1.0
C      1  0.4407720000000  0.4822460000000  0.5767260000000 1.0
C      1  0.4243860000000  0.5593750000000  0.4287740000000 1.0
C      1  0.5448640000000  0.4130560000000  0.4508850000000 1.0
C      1  0.6034790000000  0.5325790000000  0.4769460000000 1.0
C      1  0.5480990000000  0.4616690000000  0.4804050000000 1.0
C      1  0.5523890000000  0.5613340000000  0.5500950000000 1.0
C      1  0.5923480000000  0.4789660000000  0.4058100000000 1.0
C      1  0.5259600000000  0.5121700000000  0.4364030000000 1.0
C      1  0.5181990000000  0.6101020000000  0.5329640000000 1.0
C      1  0.4714390000000  0.5243380000000  0.4101480000000 1.0
C      1  0.4977990000000  0.5466880000000  0.5054590000000 1.0
C      1  0.5192440000000  0.4463760000000  0.5516730000000 1.0
C      1  0.4544060000000  0.5319860000000  0.6058670000000 1.0
C      1  0.5833470000000  0.5851940000000  0.4556680000000 1.0
C      1  0.6012890000000  0.4498510000000  0.4965610000000 1.0
C      1  0.4323620000000  0.4215970000000  0.5145180000000 1.0
C      1  0.4116230000000  0.5681940000000  0.5068970000000 1.0
C      1  0.5414190000000  0.5408080000000  0.4026050000000 1.0
C      1  0.5790010000000  0.5567760000000  0.5293560000000 1.0
C      1  0.5192000000000  0.4925540000000  0.6118580000000 1.0
C      1  0.4822780000000  0.3959120000000  0.4549280000000 1.0
C      1  0.4268690000000  0.4646400000000  0.5438900000000 1.0
C      1  0.5139470000000  0.5366640000000  0.5652780000000 1.0
C      1  0.4873280000000  0.4935470000000  0.3899300000000 1.0
C      1  0.5174130000000  0.4195730000000  0.5084170000000 1.0
C      1  0.5528520000000  0.4401980000000  0.5723140000000 1.0
C      1  0.5370280000000  0.4489680000000  0.4352360000000 1.0
C      1  0.3780560000000  0.4926350000000  0.5215560000000 1.0
C      1  0.5040300000000  0.3751790000000  0.5035300000000 1.0
C      1  0.5387350000000  0.6108690000000  0.4800280000000 1.0
C      1  0.4554880000000  0.5343240000000  0.5751290000000 1.0
C      1  0.4157350000000  0.5475510000000  0.5460020000000 1.0
C      1  0.5701330000000  0.4905840000000  0.6053400000000 1.0
C      1  0.5802080000000  0.5326930000000  0.5499340000000 1.0
C      1  0.5227980000000  0.5519450000000  0.5362120000000 1.0
C      1  0.5850810000000  0.4874440000000  0.5606510000000 1.0
C      1  0.5074490000000  0.4437990000000  0.5994940000000 1.0
END
