TITL C-2848509-3138-233 -0.00123720359176791 125000 -918.678194235894 0 0 169 (C1) n - 1
REM
REM in /home/bkarasulu/work/CARBON/AIRSS/Generating-Clusters/AIREBO/with-SteepDescent/Only-C1/SD-CG-opt/Try1-1.4A-POS3A/HFTN-CG
REM
REM
REM
REM
REM
REM ./C.cell (11c1c37f851c82e70ff6c80c92926a4b)
REM
REM compiler GCC version 9.2.1 20190827 (Red Hat 9.2.1-1)
REM options -cpp -mtune=generic -march=x86-64 -g -O0 -fpre-include=/usr/include/finclude/math-vector-fortran.h
REM seed -499054406 1744894095 1522546347 680451987 2044777192 -1557162794 1826434484 1533859747 -1635920018 -1196916675 -1475412828 -1575838230 -308087377 241364714 -1948489950 549300528 1021551159 451087489 -246497914 1673582603 1462442509 1298015861 773677334 1932528453 -1341300678 611991896 -1447453757 979076554 853636453 -2085089040 -1282235655 -928969516 -1107874426
REM
CELL 1.54180   50.00000   50.00000   50.00000   90.00000   90.00000   90.00000
LATT -1
SFAC C  
C      1  0.4254230000000  0.5190430000000  0.4744000000000 1.0
C      1  0.5485310000000  0.4513130000000  0.4925150000000 1.0
C      1  0.4801870000000  0.4241680000000  0.4973830000000 1.0
C      1  0.4431390000000  0.5285220000000  0.4045660000000 1.0
C      1  0.5763240000000  0.4231670000000  0.4816030000000 1.0
C      1  0.4519690000000  0.4397600000000  0.5755730000000 1.0
C      1  0.4476780000000  0.4568440000000  0.5179090000000 1.0
C      1  0.5500960000000  0.5400850000000  0.5813830000000 1.0
C      1  0.5005310000000  0.4449530000000  0.4832690000000 1.0
C      1  0.5112910000000  0.5668600000000  0.4363030000000 1.0
C      1  0.4745320000000  0.5855120000000  0.5569660000000 1.0
C      1  0.5029630000000  0.4220520000000  0.5755980000000 1.0
C      1  0.4832430000000  0.4821870000000  0.5496330000000 1.0
C      1  0.4738920000000  0.4874510000000  0.5191380000000 1.0
C      1  0.5284560000000  0.4310310000000  0.4817920000000 1.0
C      1  0.5291020000000  0.5367040000000  0.5991920000000 1.0
C      1  0.3973690000000  0.5206720000000  0.5444410000000 1.0
C      1  0.5528520000000  0.4517930000000  0.4262500000000 1.0
C      1  0.4285610000000  0.4370530000000  0.4764830000000 1.0
C      1  0.5121850000000  0.6090990000000  0.4965700000000 1.0
C      1  0.4999990000000  0.3941630000000  0.5354820000000 1.0
C      1  0.4718180000000  0.5598710000000  0.5169270000000 1.0
C      1  0.5065690000000  0.5499920000000  0.5917580000000 1.0
C      1  0.4009840000000  0.5335060000000  0.5208200000000 1.0
C      1  0.4850640000000  0.4710790000000  0.5817290000000 1.0
C      1  0.4424120000000  0.5632370000000  0.5164950000000 1.0
C      1  0.5734610000000  0.5110220000000  0.4846700000000 1.0
C      1  0.5641760000000  0.5028720000000  0.5764170000000 1.0
C      1  0.4608350000000  0.4681890000000  0.4677490000000 1.0
C      1  0.4406580000000  0.4683740000000  0.4067940000000 1.0
C      1  0.5590750000000  0.4033310000000  0.4918680000000 1.0
C      1  0.4138520000000  0.4943050000000  0.4452840000000 1.0
C      1  0.5308070000000  0.5928450000000  0.4337580000000 1.0
C      1  0.4700290000000  0.4215580000000  0.4485770000000 1.0
C      1  0.4794610000000  0.5652760000000  0.5817250000000 1.0
C      1  0.4796010000000  0.5283100000000  0.4386310000000 1.0
C      1  0.5697700000000  0.4260120000000  0.5574390000000 1.0
C      1  0.4553510000000  0.4114360000000  0.5274210000000 1.0
C      1  0.5081840000000  0.5318490000000  0.5127980000000 1.0
C      1  0.5748990000000  0.4896580000000  0.4613910000000 1.0
C      1  0.4126010000000  0.5511700000000  0.4546330000000 1.0
C      1  0.4489400000000  0.5691250000000  0.5552820000000 1.0
C      1  0.4786210000000  0.5297990000000  0.5304460000000 1.0
C      1  0.5065170000000  0.5757330000000  0.4998350000000 1.0
C      1  0.4316950000000  0.5277890000000  0.5820560000000 1.0
C      1  0.4839930000000  0.4986690000000  0.3986200000000 1.0
C      1  0.4617310000000  0.4880200000000  0.6000560000000 1.0
C      1  0.5083560000000  0.5308430000000  0.4731800000000 1.0
C      1  0.4345370000000  0.4474410000000  0.4265810000000 1.0
C      1  0.4990230000000  0.5134580000000  0.5748570000000 1.0
C      1  0.5977330000000  0.4699370000000  0.4879390000000 1.0
C      1  0.6022560000000  0.5100970000000  0.5294580000000 1.0
C      1  0.4584430000000  0.6005940000000  0.4828510000000 1.0
C      1  0.4697110000000  0.5501370000000  0.4627660000000 1.0
C      1  0.5030630000000  0.4256820000000  0.5225000000000 1.0
C      1  0.5347090000000  0.4922080000000  0.4010460000000 1.0
C      1  0.4402220000000  0.4951200000000  0.5607420000000 1.0
C      1  0.5144730000000  0.5363230000000  0.3980950000000 1.0
C      1  0.5650200000000  0.5062690000000  0.4377780000000 1.0
C      1  0.5779980000000  0.5172540000000  0.5519370000000 1.0
C      1  0.4914530000000  0.5848460000000  0.5290820000000 1.0
C      1  0.5403020000000  0.5357280000000  0.5521510000000 1.0
C      1  0.4038440000000  0.4952570000000  0.4778580000000 1.0
C      1  0.5464260000000  0.5610110000000  0.4761180000000 1.0
C      1  0.4963930000000  0.4513450000000  0.5438590000000 1.0
C      1  0.4798190000000  0.4931930000000  0.4681950000000 1.0
C      1  0.4491020000000  0.5718360000000  0.4741930000000 1.0
C      1  0.4940560000000  0.4910040000000  0.6073590000000 1.0
C      1  0.5347450000000  0.4246270000000  0.4489270000000 1.0
C      1  0.4286800000000  0.5570180000000  0.4285390000000 1.0
C      1  0.5265080000000  0.4372620000000  0.4184290000000 1.0
C      1  0.5025970000000  0.4697180000000  0.4435880000000 1.0
C      1  0.5637110000000  0.4916790000000  0.5200730000000 1.0
C      1  0.5419220000000  0.5087070000000  0.4721420000000 1.0
C      1  0.5298460000000  0.5666290000000  0.5172090000000 1.0
C      1  0.5348990000000  0.5360860000000  0.4585710000000 1.0
C      1  0.5612160000000  0.5771750000000  0.5174040000000 1.0
C      1  0.4607490000000  0.4506240000000  0.4428300000000 1.0
C      1  0.4324910000000  0.4339890000000  0.5380670000000 1.0
C      1  0.5263730000000  0.4630300000000  0.5517240000000 1.0
C      1  0.4962400000000  0.3987700000000  0.4827160000000 1.0
C      1  0.4803980000000  0.6076870000000  0.5064490000000 1.0
C      1  0.5010550000000  0.5948570000000  0.4626750000000 1.0
C      1  0.4706970000000  0.4323020000000  0.5494810000000 1.0
C      1  0.5136270000000  0.4707270000000  0.4944640000000 1.0
C      1  0.4374090000000  0.4651060000000  0.5483140000000 1.0
C      1  0.5205940000000  0.5061010000000  0.6001160000000 1.0
C      1  0.4532480000000  0.5176270000000  0.5986910000000 1.0
C      1  0.4732630000000  0.5078370000000  0.4929060000000 1.0
C      1  0.4739510000000  0.4103360000000  0.5752350000000 1.0
C      1  0.4825530000000  0.5401610000000  0.4920520000000 1.0
C      1  0.5508470000000  0.5833250000000  0.5466640000000 1.0
C      1  0.5114450000000  0.3862590000000  0.5047630000000 1.0
C      1  0.4399730000000  0.4882610000000  0.5158540000000 1.0
C      1  0.5497950000000  0.5735140000000  0.4446550000000 1.0
C      1  0.5077090000000  0.4820360000000  0.4122790000000 1.0
C      1  0.4590290000000  0.5051650000000  0.4326350000000 1.0
C      1  0.4476410000000  0.6092300000000  0.5141500000000 1.0
C      1  0.5116840000000  0.4997240000000  0.5464470000000 1.0
C      1  0.4075970000000  0.4520690000000  0.4972420000000 1.0
C      1  0.4135390000000  0.5118830000000  0.5650080000000 1.0
C      1  0.5815730000000  0.4630160000000  0.5241260000000 1.0
C      1  0.4737600000000  0.4662420000000  0.3990410000000 1.0
C      1  0.5393980000000  0.5401650000000  0.5021290000000 1.0
C      1  0.5857800000000  0.5503510000000  0.5552600000000 1.0
C      1  0.4118460000000  0.4793290000000  0.4995520000000 1.0
C      1  0.4506080000000  0.5192860000000  0.5142570000000 1.0
C      1  0.4693890000000  0.5970400000000  0.4509660000000 1.0
C      1  0.5417420000000  0.5028530000000  0.5435740000000 1.0
C      1  0.5064230000000  0.4980130000000  0.5128960000000 1.0
C      1  0.4642240000000  0.5528110000000  0.4112090000000 1.0
C      1  0.5318450000000  0.5082770000000  0.4302740000000 1.0
C      1  0.5429050000000  0.4868100000000  0.5923730000000 1.0
C      1  0.4402540000000  0.4901760000000  0.4642500000000 1.0
C      1  0.4231640000000  0.4248100000000  0.5081220000000 1.0
C      1  0.4363230000000  0.5883620000000  0.5302350000000 1.0
C      1  0.5725250000000  0.4112960000000  0.5286470000000 1.0
C      1  0.5583590000000  0.4416500000000  0.5226140000000 1.0
C      1  0.5320460000000  0.4127470000000  0.5102520000000 1.0
C      1  0.5294120000000  0.5419190000000  0.4259020000000 1.0
C      1  0.4231270000000  0.5613350000000  0.4782870000000 1.0
C      1  0.5069980000000  0.5624660000000  0.4697540000000 1.0
C      1  0.5668800000000  0.4357710000000  0.4521090000000 1.0
C      1  0.5061890000000  0.4484090000000  0.5834680000000 1.0
C      1  0.5904890000000  0.4414280000000  0.4992840000000 1.0
C      1  0.5182320000000  0.4066520000000  0.5581240000000 1.0
C      1  0.5771280000000  0.5363170000000  0.4425330000000 1.0
C      1  0.5777780000000  0.5502810000000  0.4684550000000 1.0
C      1  0.4290640000000  0.4266670000000  0.4472200000000 1.0
C      1  0.5787490000000  0.5655050000000  0.4988570000000 1.0
C      1  0.4717540000000  0.3926540000000  0.5476240000000 1.0
C      1  0.5388610000000  0.5062170000000  0.5041210000000 1.0
C      1  0.5608660000000  0.5340590000000  0.5278190000000 1.0
C      1  0.4692750000000  0.5128040000000  0.5583850000000 1.0
C      1  0.5325110000000  0.4622450000000  0.5842800000000 1.0
C      1  0.5289380000000  0.5173840000000  0.3829980000000 1.0
C      1  0.6009420000000  0.5418960000000  0.5308080000000 1.0
C      1  0.5200850000000  0.5919250000000  0.5460900000000 1.0
C      1  0.5326800000000  0.5921640000000  0.4753540000000 1.0
C      1  0.4499970000000  0.4087490000000  0.4946970000000 1.0
C      1  0.5572850000000  0.4788930000000  0.4191510000000 1.0
C      1  0.4922350000000  0.5500110000000  0.5541580000000 1.0
C      1  0.4358940000000  0.5274750000000  0.4437460000000 1.0
C      1  0.5040620000000  0.5089150000000  0.4502620000000 1.0
C      1  0.4513880000000  0.5413220000000  0.5633650000000 1.0
C      1  0.4264610000000  0.5386240000000  0.5021860000000 1.0
C      1  0.4492520000000  0.4055650000000  0.4634370000000 1.0
C      1  0.4310230000000  0.4989530000000  0.4162890000000 1.0
C      1  0.4502560000000  0.5799250000000  0.4266790000000 1.0
C      1  0.4980640000000  0.4396190000000  0.4515520000000 1.0
C      1  0.5611200000000  0.5534660000000  0.4259360000000 1.0
C      1  0.5633720000000  0.5652230000000  0.5660080000000 1.0
C      1  0.5026930000000  0.4501860000000  0.4090830000000 1.0
C      1  0.5820680000000  0.5333040000000  0.5038930000000 1.0
C      1  0.5426510000000  0.4109860000000  0.5425350000000 1.0
C      1  0.5338240000000  0.4641250000000  0.5203830000000 1.0
C      1  0.4857170000000  0.5281200000000  0.4055690000000 1.0
C      1  0.4452040000000  0.4688360000000  0.5806580000000 1.0
C      1  0.4779270000000  0.5327510000000  0.5919480000000 1.0
C      1  0.5780400000000  0.4529720000000  0.5554540000000 1.0
C      1  0.4567320000000  0.4480120000000  0.4912400000000 1.0
C      1  0.5690580000000  0.4611890000000  0.4721110000000 1.0
C      1  0.5068720000000  0.4074090000000  0.4579670000000 1.0
C      1  0.4805080000000  0.5681710000000  0.4368230000000 1.0
C      1  0.5199840000000  0.5579200000000  0.5460200000000 1.0
C      1  0.5199470000000  0.4841650000000  0.4673330000000 1.0
C      1  0.5936170000000  0.4951000000000  0.5042520000000 1.0
C      1  0.4727880000000  0.4780790000000  0.4309010000000 1.0
C      1  0.5574390000000  0.4760370000000  0.5566430000000 1.0
END
