TITL C-2848503-6230-429 -0.00136997689771529 125000 -1043.71312424208 0 0 189 (C1) n - 1
REM
REM in /home/bkarasulu/work/CARBON/AIRSS/Generating-Clusters/AIREBO/with-SteepDescent/Only-C1/SD-CG-opt/Try1-1.4A-POS3A/HFTN-CG
REM
REM
REM
REM
REM
REM ./C.cell (11c1c37f851c82e70ff6c80c92926a4b)
REM
REM compiler GCC version 9.2.1 20190827 (Red Hat 9.2.1-1)
REM options -cpp -mtune=generic -march=x86-64 -g -O0 -fpre-include=/usr/include/finclude/math-vector-fortran.h
REM seed 353555104 434003136 -1335443952 1889587479 -1516415493 634045913 -144693493 117822190 665467535 -1266925175 -1059257108 2069144722 87421169 1733009443 -1635072775 -1672480218 1225224765 353064757 1140809239 -1080305754 -2081847369 508479657 -704497179 -997794906 1170569895 291591487 -362377747 -1195342769 683100560 91470075 1291158139 -1686324224 -1148009210
REM
CELL 1.54180   50.00000   50.00000   50.00000   90.00000   90.00000   90.00000
LATT -1
SFAC C  
C      1  0.5415210000000  0.4777640000000  0.5095790000000 1.0
C      1  0.5793330000000  0.5578150000000  0.5138220000000 1.0
C      1  0.4810350000000  0.5866650000000  0.5382570000000 1.0
C      1  0.5581380000000  0.4538360000000  0.5974950000000 1.0
C      1  0.4237540000000  0.5607710000000  0.4237140000000 1.0
C      1  0.4978160000000  0.4922480000000  0.5763640000000 1.0
C      1  0.5504630000000  0.5505830000000  0.5236250000000 1.0
C      1  0.5014770000000  0.5608120000000  0.4133440000000 1.0
C      1  0.4512050000000  0.5223070000000  0.5447070000000 1.0
C      1  0.4616190000000  0.5994730000000  0.5588470000000 1.0
C      1  0.5233660000000  0.5053610000000  0.5113770000000 1.0
C      1  0.4843410000000  0.4907470000000  0.4854440000000 1.0
C      1  0.5903030000000  0.5235410000000  0.4649350000000 1.0
C      1  0.5428830000000  0.4115400000000  0.4699650000000 1.0
C      1  0.4003100000000  0.4723630000000  0.4887020000000 1.0
C      1  0.3904090000000  0.4369500000000  0.5174640000000 1.0
C      1  0.4346680000000  0.4486580000000  0.5726920000000 1.0
C      1  0.5431660000000  0.4442110000000  0.4681980000000 1.0
C      1  0.5287380000000  0.4860560000000  0.5635960000000 1.0
C      1  0.5299240000000  0.4686690000000  0.3876690000000 1.0
C      1  0.4946410000000  0.5323900000000  0.4924720000000 1.0
C      1  0.5511700000000  0.4121640000000  0.5624260000000 1.0
C      1  0.5205640000000  0.4232330000000  0.5219990000000 1.0
C      1  0.3963850000000  0.5226280000000  0.4893280000000 1.0
C      1  0.5382640000000  0.5811300000000  0.5230310000000 1.0
C      1  0.4189650000000  0.4883830000000  0.5547940000000 1.0
C      1  0.5661250000000  0.4082840000000  0.5321150000000 1.0
C      1  0.4678210000000  0.3970470000000  0.4542520000000 1.0
C      1  0.4224110000000  0.4958860000000  0.6033430000000 1.0
C      1  0.4214880000000  0.4404190000000  0.4408040000000 1.0
C      1  0.4559350000000  0.5837930000000  0.5779590000000 1.0
C      1  0.4881420000000  0.3830720000000  0.4568770000000 1.0
C      1  0.5334200000000  0.3608400000000  0.5104790000000 1.0
C      1  0.5151350000000  0.4622520000000  0.4412110000000 1.0
C      1  0.5741360000000  0.5771430000000  0.4906690000000 1.0
C      1  0.5044110000000  0.4683200000000  0.4987950000000 1.0
C      1  0.5200440000000  0.6089740000000  0.4524400000000 1.0
C      1  0.5156140000000  0.3927480000000  0.4727110000000 1.0
C      1  0.4738520000000  0.5545680000000  0.4135510000000 1.0
C      1  0.4970420000000  0.5427510000000  0.4538220000000 1.0
C      1  0.4617050000000  0.5322450000000  0.6067870000000 1.0
C      1  0.4678700000000  0.5071720000000  0.5702080000000 1.0
C      1  0.4321630000000  0.4099230000000  0.5070790000000 1.0
C      1  0.4758150000000  0.5976770000000  0.5092260000000 1.0
C      1  0.5129130000000  0.5080960000000  0.4791150000000 1.0
C      1  0.5163810000000  0.5742230000000  0.4715920000000 1.0
C      1  0.4925530000000  0.4221620000000  0.5091900000000 1.0
C      1  0.4646090000000  0.4701940000000  0.5792950000000 1.0
C      1  0.4667620000000  0.5544320000000  0.5742720000000 1.0
C      1  0.4761600000000  0.5531530000000  0.5415190000000 1.0
C      1  0.5503940000000  0.5832900000000  0.5751040000000 1.0
C      1  0.5767440000000  0.5426240000000  0.4409970000000 1.0
C      1  0.5731480000000  0.4315210000000  0.4385560000000 1.0
C      1  0.4508960000000  0.5150380000000  0.4248310000000 1.0
C      1  0.6015580000000  0.5085100000000  0.5308480000000 1.0
C      1  0.4492350000000  0.6414090000000  0.5167170000000 1.0
C      1  0.5196880000000  0.4893610000000  0.6022700000000 1.0
C      1  0.4695140000000  0.4836430000000  0.3901380000000 1.0
C      1  0.5187820000000  0.5481310000000  0.5850920000000 1.0
C      1  0.5870250000000  0.4597760000000  0.5261410000000 1.0
C      1  0.4200460000000  0.4980070000000  0.4864110000000 1.0
C      1  0.4940700000000  0.5720580000000  0.4968370000000 1.0
C      1  0.3907660000000  0.5310980000000  0.5140200000000 1.0
C      1  0.5481260000000  0.5561890000000  0.5772050000000 1.0
C      1  0.5678770000000  0.4905760000000  0.4825250000000 1.0
C      1  0.4573730000000  0.5391380000000  0.5168550000000 1.0
C      1  0.5106130000000  0.5209880000000  0.6022810000000 1.0
C      1  0.4432870000000  0.4567590000000  0.4706680000000 1.0
C      1  0.4562670000000  0.4109750000000  0.6091250000000 1.0
C      1  0.4296120000000  0.4263470000000  0.4773210000000 1.0
C      1  0.4613320000000  0.5627860000000  0.4961910000000 1.0
C      1  0.5303500000000  0.5508100000000  0.4031010000000 1.0
C      1  0.5428430000000  0.5571550000000  0.4758070000000 1.0
C      1  0.4349810000000  0.5026180000000  0.5783540000000 1.0
C      1  0.4931060000000  0.4126090000000  0.4832900000000 1.0
C      1  0.4608630000000  0.4443330000000  0.4461330000000 1.0
C      1  0.5663500000000  0.4980310000000  0.5152480000000 1.0
C      1  0.4590420000000  0.4996920000000  0.4497780000000 1.0
C      1  0.5327970000000  0.5182490000000  0.3988030000000 1.0
C      1  0.4837480000000  0.5095540000000  0.3953200000000 1.0
C      1  0.4889600000000  0.5465160000000  0.5988420000000 1.0
C      1  0.4468050000000  0.4709510000000  0.5503260000000 1.0
C      1  0.5346060000000  0.6003570000000  0.4774660000000 1.0
C      1  0.4028650000000  0.4573860000000  0.4608730000000 1.0
C      1  0.4326660000000  0.5268260000000  0.4735150000000 1.0
C      1  0.4721930000000  0.5244970000000  0.4681710000000 1.0
C      1  0.4917350000000  0.4672530000000  0.5303470000000 1.0
C      1  0.5802930000000  0.4631680000000  0.5844670000000 1.0
C      1  0.4557980000000  0.5992390000000  0.4491680000000 1.0
C      1  0.4371010000000  0.4233120000000  0.5313260000000 1.0
C      1  0.4533950000000  0.5673770000000  0.4375170000000 1.0
C      1  0.6106050000000  0.5317090000000  0.4836810000000 1.0
C      1  0.4419720000000  0.5346180000000  0.5812930000000 1.0
C      1  0.5416650000000  0.6124650000000  0.5357820000000 1.0
C      1  0.5891400000000  0.5352700000000  0.5477650000000 1.0
C      1  0.5128410000000  0.4377090000000  0.5930740000000 1.0
C      1  0.5340580000000  0.4013300000000  0.5369320000000 1.0
C      1  0.4674350000000  0.5284600000000  0.4071780000000 1.0
C      1  0.5143810000000  0.5504780000000  0.5529370000000 1.0
C      1  0.4774670000000  0.4868920000000  0.6030860000000 1.0
C      1  0.4707580000000  0.6087190000000  0.4782430000000 1.0
C      1  0.5742190000000  0.4677620000000  0.5538010000000 1.0
C      1  0.6031750000000  0.5611680000000  0.5372670000000 1.0
C      1  0.5599960000000  0.4083350000000  0.4440320000000 1.0
C      1  0.4250820000000  0.4625700000000  0.4151700000000 1.0
C      1  0.4660840000000  0.4632550000000  0.4891690000000 1.0
C      1  0.4659140000000  0.5070750000000  0.6169880000000 1.0
C      1  0.5086950000000  0.5072400000000  0.4122020000000 1.0
C      1  0.4045490000000  0.5340960000000  0.4583730000000 1.0
C      1  0.5597420000000  0.5072370000000  0.4049580000000 1.0
C      1  0.5906220000000  0.4922910000000  0.4589880000000 1.0
C      1  0.4332230000000  0.4840880000000  0.4604980000000 1.0
C      1  0.4763280000000  0.4176490000000  0.3968000000000 1.0
C      1  0.4592840000000  0.4246680000000  0.5856930000000 1.0
C      1  0.4987630000000  0.4586670000000  0.4668510000000 1.0
C      1  0.4224250000000  0.5355070000000  0.5545380000000 1.0
C      1  0.4909280000000  0.6024590000000  0.4541250000000 1.0
C      1  0.5026630000000  0.4745830000000  0.3900420000000 1.0
C      1  0.5356070000000  0.4817720000000  0.4272140000000 1.0
C      1  0.5290450000000  0.4604920000000  0.6050940000000 1.0
C      1  0.4109950000000  0.5594450000000  0.4801130000000 1.0
C      1  0.4921010000000  0.4995730000000  0.5235220000000 1.0
C      1  0.4960560000000  0.4784860000000  0.4205330000000 1.0
C      1  0.5727940000000  0.5656240000000  0.4627960000000 1.0
C      1  0.4266160000000  0.5985520000000  0.5050690000000 1.0
C      1  0.5327710000000  0.5388310000000  0.3715410000000 1.0
C      1  0.5389400000000  0.3787040000000  0.4910100000000 1.0
C      1  0.5523710000000  0.5939230000000  0.4973960000000 1.0
C      1  0.5590280000000  0.4750630000000  0.4042530000000 1.0
C      1  0.5342060000000  0.4527520000000  0.5272910000000 1.0
C      1  0.4896510000000  0.4635360000000  0.5594510000000 1.0
C      1  0.4103710000000  0.5363400000000  0.4283600000000 1.0
C      1  0.4870160000000  0.4091460000000  0.5617530000000 1.0
C      1  0.3893840000000  0.4670930000000  0.5185340000000 1.0
C      1  0.5545540000000  0.4563120000000  0.4392820000000 1.0
C      1  0.4428560000000  0.4548690000000  0.5206230000000 1.0
C      1  0.4396710000000  0.4214460000000  0.5586870000000 1.0
C      1  0.4384050000000  0.4856110000000  0.4010660000000 1.0
C      1  0.5404390000000  0.4361680000000  0.5757060000000 1.0
C      1  0.3972750000000  0.4816360000000  0.5409780000000 1.0
C      1  0.5143790000000  0.5172640000000  0.5603310000000 1.0
C      1  0.5306840000000  0.5930270000000  0.4314550000000 1.0
C      1  0.4113040000000  0.4783450000000  0.4382460000000 1.0
C      1  0.4689580000000  0.4334420000000  0.4155490000000 1.0
C      1  0.4303340000000  0.5740850000000  0.4916670000000 1.0
C      1  0.4429760000000  0.4154230000000  0.4480240000000 1.0
C      1  0.4519470000000  0.5508800000000  0.4673260000000 1.0
C      1  0.6024030000000  0.4809790000000  0.5139170000000 1.0
C      1  0.4847220000000  0.4314710000000  0.4652450000000 1.0
C      1  0.5252710000000  0.4441350000000  0.4955970000000 1.0
C      1  0.4846860000000  0.5722160000000  0.4475800000000 1.0
C      1  0.5470960000000  0.5065910000000  0.6009320000000 1.0
C      1  0.5612890000000  0.5152390000000  0.6208870000000 1.0
C      1  0.5610240000000  0.5347690000000  0.5586950000000 1.0
C      1  0.5371730000000  0.5093140000000  0.4398700000000 1.0
C      1  0.5715930000000  0.4339950000000  0.5125000000000 1.0
C      1  0.4608210000000  0.5120360000000  0.4977040000000 1.0
C      1  0.5959640000000  0.4376070000000  0.4539690000000 1.0
C      1  0.4627470000000  0.4946310000000  0.5334960000000 1.0
C      1  0.4957040000000  0.5316350000000  0.5237830000000 1.0
C      1  0.6029830000000  0.5353110000000  0.5109010000000 1.0
C      1  0.5733990000000  0.4985750000000  0.5458180000000 1.0
C      1  0.4748550000000  0.4461540000000  0.5138000000000 1.0
C      1  0.5453380000000  0.5383760000000  0.4309800000000 1.0
C      1  0.5787110000000  0.5250480000000  0.4135940000000 1.0
C      1  0.5923500000000  0.4555950000000  0.4748130000000 1.0
C      1  0.5222430000000  0.5613930000000  0.4406330000000 1.0
C      1  0.5742830000000  0.4834160000000  0.4336070000000 1.0
C      1  0.5376690000000  0.5222390000000  0.5373920000000 1.0
C      1  0.5432860000000  0.5054960000000  0.4694630000000 1.0
C      1  0.5532950000000  0.5064700000000  0.5708810000000 1.0
C      1  0.4034650000000  0.5396910000000  0.5366150000000 1.0
C      1  0.5041720000000  0.5122090000000  0.4455690000000 1.0
C      1  0.5267560000000  0.3717890000000  0.5346770000000 1.0
C      1  0.4488000000000  0.6148310000000  0.5105180000000 1.0
C      1  0.4181030000000  0.4465980000000  0.5000130000000 1.0
C      1  0.5390750000000  0.5329520000000  0.4991960000000 1.0
C      1  0.6059680000000  0.4790850000000  0.4864390000000 1.0
C      1  0.5622540000000  0.5296030000000  0.4759020000000 1.0
C      1  0.5590670000000  0.4050040000000  0.4990110000000 1.0
C      1  0.5313670000000  0.5969870000000  0.5590650000000 1.0
C      1  0.5624570000000  0.4580500000000  0.4908300000000 1.0
C      1  0.5084180000000  0.5823240000000  0.5534650000000 1.0
C      1  0.4414640000000  0.4875770000000  0.5090360000000 1.0
C      1  0.5423190000000  0.4602180000000  0.5549520000000 1.0
C      1  0.5119580000000  0.5605760000000  0.5205180000000 1.0
C      1  0.4774180000000  0.4740180000000  0.4448540000000 1.0
C      1  0.4232140000000  0.5126050000000  0.4152290000000 1.0
C      1  0.4882600000000  0.4352280000000  0.5765750000000 1.0
END
