TITL C-2848495-5024-261 0.000996040074018235 125000 -374.296950369265 0 0 68 (C1) n - 1
REM
REM in /home/bkarasulu/work/CARBON/AIRSS/Generating-Clusters/AIREBO/with-SteepDescent/Only-C1/SD-CG-opt/Try1-1.4A-POS3A/HFTN-CG
REM
REM
REM
REM
REM
REM ./C.cell (11c1c37f851c82e70ff6c80c92926a4b)
REM
REM compiler GCC version 9.2.1 20190827 (Red Hat 9.2.1-1)
REM options -cpp -mtune=generic -march=x86-64 -g -O0 -fpre-include=/usr/include/finclude/math-vector-fortran.h
REM seed 614737473 1263372251 -1819109109 282163972 -768616957 1228943124 1255629599 1224517376 1840987325 -867242481 116008167 -1151915091 255895442 1267714149 -2102597880 -1654055971 -1534707752 1393880362 1777427879 -1026105508 1548772340 -536154521 -1709927902 -1166067574 -1753170899 -747337592 780691667 304589258 69515344 -1547533419 -1003146606 -471379294 -1498634282
REM
CELL 1.54180   50.00000   50.00000   50.00000   90.00000   90.00000   90.00000
LATT -1
SFAC C  
C      1  0.4425410000000  0.5050120000000  0.5329100000000 1.0
C      1  0.4837840000000  0.5525260000000  0.4678520000000 1.0
C      1  0.4846930000000  0.4104960000000  0.5121040000000 1.0
C      1  0.5142730000000  0.5568420000000  0.5621240000000 1.0
C      1  0.5333510000000  0.5620950000000  0.5418470000000 1.0
C      1  0.5224350000000  0.5098960000000  0.4250890000000 1.0
C      1  0.4362560000000  0.4724010000000  0.5290700000000 1.0
C      1  0.5315590000000  0.4945980000000  0.5743090000000 1.0
C      1  0.4718130000000  0.5840270000000  0.5360110000000 1.0
C      1  0.4907100000000  0.4147200000000  0.4848370000000 1.0
C      1  0.5222750000000  0.5796390000000  0.5228080000000 1.0
C      1  0.4543910000000  0.5506180000000  0.4734200000000 1.0
C      1  0.4463520000000  0.5063490000000  0.5654430000000 1.0
C      1  0.4892340000000  0.4870450000000  0.4534090000000 1.0
C      1  0.5084430000000  0.4491990000000  0.4510650000000 1.0
C      1  0.4401470000000  0.5334550000000  0.5222440000000 1.0
C      1  0.4695820000000  0.4912060000000  0.5175680000000 1.0
C      1  0.5014230000000  0.5482480000000  0.4967440000000 1.0
C      1  0.5278870000000  0.5688210000000  0.4946550000000 1.0
C      1  0.5668850000000  0.5292990000000  0.4830480000000 1.0
C      1  0.5027190000000  0.5111870000000  0.4821530000000 1.0
C      1  0.5416180000000  0.4443010000000  0.5341220000000 1.0
C      1  0.4868210000000  0.5376420000000  0.5251070000000 1.0
C      1  0.4846630000000  0.4509910000000  0.4370530000000 1.0
C      1  0.4977420000000  0.5063420000000  0.5291550000000 1.0
C      1  0.4948440000000  0.5110410000000  0.4341100000000 1.0
C      1  0.4736540000000  0.4993450000000  0.5719810000000 1.0
C      1  0.5658220000000  0.4452420000000  0.4859200000000 1.0
C      1  0.5787210000000  0.5385430000000  0.5456320000000 1.0
C      1  0.4409720000000  0.5220750000000  0.4661870000000 1.0
C      1  0.5567460000000  0.5431240000000  0.5295030000000 1.0
C      1  0.4205470000000  0.4627950000000  0.5095120000000 1.0
C      1  0.4365760000000  0.5358240000000  0.4952160000000 1.0
C      1  0.5265150000000  0.5108440000000  0.4582410000000 1.0
C      1  0.4890100000000  0.5526730000000  0.5538060000000 1.0
C      1  0.5447690000000  0.5203320000000  0.4118460000000 1.0
C      1  0.5545060000000  0.5270170000000  0.4561820000000 1.0
C      1  0.4559970000000  0.4508190000000  0.5436130000000 1.0
C      1  0.4257790000000  0.4495620000000  0.4855550000000 1.0
C      1  0.4862880000000  0.5362680000000  0.4404560000000 1.0
C      1  0.4972360000000  0.5910660000000  0.5285160000000 1.0
C      1  0.5005280000000  0.4932020000000  0.5774920000000 1.0
C      1  0.5877320000000  0.4609020000000  0.4856660000000 1.0
C      1  0.4071700000000  0.4383000000000  0.4690250000000 1.0
C      1  0.5464610000000  0.5186950000000  0.5080790000000 1.0
C      1  0.4585610000000  0.4979030000000  0.4635450000000 1.0
C      1  0.4714040000000  0.4310460000000  0.5232290000000 1.0
C      1  0.4770780000000  0.5030150000000  0.4877810000000 1.0
C      1  0.5929250000000  0.5127370000000  0.4849750000000 1.0
C      1  0.5168240000000  0.5197060000000  0.5071180000000 1.0
C      1  0.4705650000000  0.4791880000000  0.5490190000000 1.0
C      1  0.5441580000000  0.4295750000000  0.4835530000000 1.0
C      1  0.5138740000000  0.4349410000000  0.4799240000000 1.0
C      1  0.5621630000000  0.5317820000000  0.4304300000000 1.0
C      1  0.4718410000000  0.4595980000000  0.5047710000000 1.0
C      1  0.5131520000000  0.4867080000000  0.5465970000000 1.0
C      1  0.5143080000000  0.4742640000000  0.4730010000000 1.0
C      1  0.4601150000000  0.5532480000000  0.5355190000000 1.0
C      1  0.5387540000000  0.4945860000000  0.4851200000000 1.0
C      1  0.5152680000000  0.4587630000000  0.5308020000000 1.0
C      1  0.5070540000000  0.5769050000000  0.4701420000000 1.0
C      1  0.5964640000000  0.4861570000000  0.4812860000000 1.0
C      1  0.4549500000000  0.4496920000000  0.4783610000000 1.0
C      1  0.4620030000000  0.4667050000000  0.4543500000000 1.0
C      1  0.4899390000000  0.4534060000000  0.5491920000000 1.0
C      1  0.5040220000000  0.4583300000000  0.5012680000000 1.0
C      1  0.5553850000000  0.5557960000000  0.4982400000000 1.0
C      1  0.4677270000000  0.4213240000000  0.4710910000000 1.0
END
