TITL C-2848502-4955-492 0.000289520236055241 125000 -478.228200780388 0 0 86 (C1) n - 1
REM
REM in /home/bkarasulu/work/CARBON/AIRSS/Generating-Clusters/AIREBO/with-SteepDescent/Only-C1/SD-CG-opt/Try1-1.4A-POS3A/HFTN-CG
REM
REM
REM
REM
REM
REM ./C.cell (11c1c37f851c82e70ff6c80c92926a4b)
REM
REM compiler GCC version 9.2.1 20190827 (Red Hat 9.2.1-1)
REM options -cpp -mtune=generic -march=x86-64 -g -O0 -fpre-include=/usr/include/finclude/math-vector-fortran.h
REM seed 1941873166 474586814 108336203 116756993 1620186290 1264861021 112190013 1383503148 -931630646 731985695 -630056293 85021727 205551784 -2012553685 -2090403934 -301416513 417143456 1167130726 -743047331 1137710748 1526068718 1055777001 -265156199 1673063489 646098416 -685318245 -636903765 -329755922 1927428204 -753468734 -829349936 -158842930 1268111770
REM
CELL 1.54180   50.00000   50.00000   50.00000   90.00000   90.00000   90.00000
LATT -1
SFAC C  
C      1  0.5205180000000  0.5627450000000  0.4575650000000 1.0
C      1  0.5306750000000  0.4178460000000  0.4771460000000 1.0
C      1  0.4810800000000  0.4919560000000  0.5501000000000 1.0
C      1  0.4877080000000  0.4914410000000  0.4654260000000 1.0
C      1  0.5809240000000  0.5461790000000  0.4776560000000 1.0
C      1  0.5000250000000  0.4560330000000  0.5782150000000 1.0
C      1  0.5227550000000  0.5429750000000  0.4343270000000 1.0
C      1  0.4884620000000  0.4672650000000  0.4266300000000 1.0
C      1  0.4333690000000  0.4985090000000  0.5346800000000 1.0
C      1  0.4868790000000  0.4408370000000  0.4725780000000 1.0
C      1  0.4784370000000  0.4751740000000  0.5709310000000 1.0
C      1  0.5663170000000  0.4476930000000  0.4912330000000 1.0
C      1  0.3998850000000  0.4671850000000  0.5495530000000 1.0
C      1  0.5395970000000  0.5494630000000  0.5603310000000 1.0
C      1  0.5237170000000  0.4832930000000  0.5454650000000 1.0
C      1  0.4705360000000  0.4699570000000  0.5098820000000 1.0
C      1  0.4797970000000  0.5077830000000  0.4934110000000 1.0
C      1  0.5175770000000  0.5388170000000  0.5075620000000 1.0
C      1  0.5178060000000  0.4391720000000  0.4606240000000 1.0
C      1  0.4694680000000  0.5261160000000  0.5172790000000 1.0
C      1  0.4548100000000  0.4839360000000  0.4603040000000 1.0
C      1  0.5448130000000  0.5440920000000  0.5271620000000 1.0
C      1  0.5393330000000  0.4846340000000  0.4721340000000 1.0
C      1  0.5234200000000  0.5344180000000  0.4742460000000 1.0
C      1  0.5172010000000  0.5818930000000  0.4781130000000 1.0
C      1  0.4398740000000  0.5627750000000  0.5021670000000 1.0
C      1  0.5459390000000  0.4866530000000  0.4327670000000 1.0
C      1  0.4509550000000  0.5129060000000  0.4761510000000 1.0
C      1  0.5577940000000  0.5120900000000  0.5028250000000 1.0
C      1  0.5107220000000  0.4367830000000  0.5328990000000 1.0
C      1  0.4140810000000  0.4785010000000  0.5296230000000 1.0
C      1  0.4559520000000  0.5635990000000  0.5320600000000 1.0
C      1  0.5094220000000  0.5092140000000  0.5018930000000 1.0
C      1  0.5166410000000  0.4832810000000  0.4158130000000 1.0
C      1  0.5804060000000  0.4450630000000  0.5439600000000 1.0
C      1  0.5270340000000  0.4638540000000  0.5203250000000 1.0
C      1  0.4829470000000  0.4390920000000  0.4411820000000 1.0
C      1  0.5353060000000  0.5102250000000  0.4535200000000 1.0
C      1  0.5494970000000  0.5756770000000  0.5179750000000 1.0
C      1  0.5593670000000  0.4559520000000  0.5195700000000 1.0
C      1  0.5589100000000  0.4964410000000  0.5588810000000 1.0
C      1  0.4770790000000  0.4171350000000  0.4283350000000 1.0
C      1  0.5349570000000  0.5039410000000  0.5777510000000 1.0
C      1  0.5199220000000  0.5151970000000  0.4252780000000 1.0
C      1  0.4731720000000  0.5400580000000  0.4570020000000 1.0
C      1  0.4641700000000  0.4838530000000  0.4283110000000 1.0
C      1  0.5576780000000  0.4219710000000  0.4835800000000 1.0
C      1  0.4927140000000  0.5823120000000  0.4919190000000 1.0
C      1  0.5015140000000  0.4627040000000  0.4978710000000 1.0
C      1  0.4947460000000  0.5231170000000  0.4598800000000 1.0
C      1  0.4508280000000  0.4953640000000  0.4092230000000 1.0
C      1  0.4933560000000  0.5374870000000  0.5671360000000 1.0
C      1  0.5649440000000  0.4666270000000  0.4713220000000 1.0
C      1  0.5680230000000  0.4733250000000  0.5482690000000 1.0
C      1  0.4970960000000  0.4222850000000  0.5131240000000 1.0
C      1  0.5336430000000  0.4917870000000  0.5020880000000 1.0
C      1  0.4537230000000  0.4597210000000  0.4841520000000 1.0
C      1  0.4100540000000  0.4715640000000  0.5026310000000 1.0
C      1  0.4731440000000  0.5568860000000  0.5031890000000 1.0
C      1  0.4625690000000  0.4940770000000  0.5265330000000 1.0
C      1  0.4719930000000  0.4366780000000  0.5012250000000 1.0
C      1  0.4220280000000  0.5374210000000  0.5108980000000 1.0
C      1  0.5054920000000  0.5094950000000  0.5416690000000 1.0
C      1  0.4283860000000  0.5263340000000  0.5363770000000 1.0
C      1  0.4175570000000  0.5328440000000  0.4609230000000 1.0
C      1  0.5568230000000  0.5311610000000  0.4796960000000 1.0
C      1  0.4861120000000  0.5733810000000  0.5371110000000 1.0
C      1  0.5069350000000  0.4351840000000  0.5606080000000 1.0
C      1  0.4461410000000  0.5464750000000  0.4736730000000 1.0
C      1  0.4206290000000  0.5200400000000  0.4890960000000 1.0
C      1  0.4221350000000  0.4764760000000  0.4518110000000 1.0
C      1  0.5116880000000  0.4715250000000  0.4689330000000 1.0
C      1  0.4242740000000  0.4664950000000  0.4793370000000 1.0
C      1  0.5189670000000  0.4544020000000  0.4335810000000 1.0
C      1  0.5932910000000  0.5459460000000  0.5031360000000 1.0
C      1  0.5668820000000  0.4725790000000  0.4425220000000 1.0
C      1  0.4650800000000  0.5397050000000  0.5729450000000 1.0
C      1  0.4955140000000  0.5409210000000  0.5333680000000 1.0
C      1  0.5385590000000  0.5132570000000  0.5391690000000 1.0
C      1  0.5125740000000  0.4061870000000  0.4956200000000 1.0
C      1  0.5397620000000  0.5868680000000  0.4948300000000 1.0
C      1  0.4941920000000  0.5921760000000  0.5195340000000 1.0
C      1  0.5220190000000  0.5305700000000  0.5735170000000 1.0
C      1  0.4466290000000  0.5426580000000  0.5510960000000 1.0
C      1  0.5176630000000  0.4792890000000  0.5774950000000 1.0
C      1  0.5753830000000  0.5310030000000  0.5200780000000 1.0
END
