TITL C-2847948-6138-51 -0.00166746144999147 125000 -854.655893879423 0 0 155 (C1) n - 1
REM
REM in /home/bkarasulu/work/CARBON/AIRSS/Generating-Clusters/AIREBO/with-SteepDescent/Only-C1/SD-CG-opt/Try1-1.4A-POS3A/HFTN-CG
REM
REM
REM
REM
REM
REM ./C.cell (11c1c37f851c82e70ff6c80c92926a4b)
REM
REM compiler GCC version 9.2.1 20190827 (Red Hat 9.2.1-1)
REM options -cpp -mtune=generic -march=x86-64 -g -O0 -fpre-include=/usr/include/finclude/math-vector-fortran.h
REM seed 1728662169 1451536678 -1724096108 -1736941145 959252358 1054765223 2056861388 -1489553337 -1110986957 -1433630808 -462473167 -1539901868 -1369344227 -424778639 -1077511048 -279622917 740892267 418369274 -1918324666 1124058422 368496816 -1192728396 513149850 2040664880 1889647258 -1640360218 1825558523 2071301643 -923706260 -1800639615 2003606527 -499108456 -2073371083
REM
CELL 1.54180   50.00000   50.00000   50.00000   90.00000   90.00000   90.00000
LATT -1
SFAC C  
C      1  0.4607060000000  0.4698180000000  0.4611770000000 1.0
C      1  0.4166910000000  0.4136910000000  0.4913570000000 1.0
C      1  0.5692050000000  0.5531820000000  0.5397970000000 1.0
C      1  0.4760030000000  0.4719010000000  0.4034270000000 1.0
C      1  0.4989830000000  0.5171950000000  0.4086520000000 1.0
C      1  0.4777720000000  0.4998610000000  0.5101800000000 1.0
C      1  0.4722370000000  0.5537850000000  0.5782970000000 1.0
C      1  0.4292570000000  0.4184810000000  0.4656630000000 1.0
C      1  0.4806920000000  0.4019230000000  0.5050660000000 1.0
C      1  0.5402580000000  0.4639830000000  0.4420440000000 1.0
C      1  0.4826060000000  0.5015220000000  0.3894310000000 1.0
C      1  0.4935980000000  0.4691210000000  0.4704950000000 1.0
C      1  0.4257660000000  0.5526150000000  0.5307300000000 1.0
C      1  0.4423320000000  0.5775730000000  0.5447910000000 1.0
C      1  0.5354640000000  0.6019930000000  0.5242090000000 1.0
C      1  0.5037000000000  0.4497790000000  0.5491700000000 1.0
C      1  0.4878000000000  0.6019630000000  0.4745700000000 1.0
C      1  0.5627440000000  0.4381450000000  0.4917020000000 1.0
C      1  0.5159900000000  0.5394670000000  0.5255600000000 1.0
C      1  0.4263230000000  0.4613010000000  0.4277010000000 1.0
C      1  0.5431640000000  0.5126890000000  0.5426280000000 1.0
C      1  0.4213530000000  0.5613910000000  0.4584780000000 1.0
C      1  0.5389270000000  0.4619790000000  0.4962740000000 1.0
C      1  0.4225760000000  0.5333610000000  0.5081980000000 1.0
C      1  0.3980240000000  0.5093710000000  0.4365210000000 1.0
C      1  0.5037970000000  0.5772270000000  0.5303810000000 1.0
C      1  0.4623780000000  0.5363600000000  0.5055630000000 1.0
C      1  0.5305860000000  0.4743540000000  0.4183040000000 1.0
C      1  0.5255140000000  0.5008150000000  0.4960750000000 1.0
C      1  0.4496070000000  0.4848720000000  0.5367590000000 1.0
C      1  0.4315090000000  0.4340000000000  0.5393180000000 1.0
C      1  0.5780610000000  0.4453370000000  0.4663490000000 1.0
C      1  0.4267660000000  0.4712490000000  0.4595660000000 1.0
C      1  0.4443780000000  0.5075410000000  0.5042680000000 1.0
C      1  0.4007550000000  0.5163620000000  0.4880520000000 1.0
C      1  0.6053320000000  0.4808840000000  0.5169240000000 1.0
C      1  0.4926930000000  0.5644770000000  0.4267040000000 1.0
C      1  0.4880670000000  0.5280520000000  0.5248710000000 1.0
C      1  0.4941400000000  0.4715710000000  0.4388570000000 1.0
C      1  0.5541320000000  0.5538280000000  0.5659740000000 1.0
C      1  0.5409780000000  0.5579440000000  0.4792100000000 1.0
C      1  0.4368550000000  0.5071190000000  0.4737200000000 1.0
C      1  0.5583330000000  0.4993270000000  0.5733420000000 1.0
C      1  0.4515680000000  0.5266650000000  0.4561910000000 1.0
C      1  0.4316610000000  0.5422250000000  0.4391870000000 1.0
C      1  0.4087240000000  0.4972340000000  0.4631660000000 1.0
C      1  0.5473640000000  0.6300080000000  0.4401570000000 1.0
C      1  0.5818720000000  0.4637010000000  0.5300850000000 1.0
C      1  0.4919740000000  0.4012070000000  0.5299760000000 1.0
C      1  0.4777760000000  0.4333000000000  0.5803020000000 1.0
C      1  0.4250370000000  0.4622500000000  0.5444050000000 1.0
C      1  0.4577910000000  0.4575190000000  0.4928370000000 1.0
C      1  0.5547920000000  0.5979670000000  0.4863580000000 1.0
C      1  0.5718270000000  0.4710800000000  0.5600660000000 1.0
C      1  0.4560870000000  0.5262540000000  0.5374200000000 1.0
C      1  0.3863740000000  0.4967620000000  0.5070740000000 1.0
C      1  0.5150920000000  0.6147010000000  0.5381430000000 1.0
C      1  0.5122680000000  0.5316480000000  0.5584400000000 1.0
C      1  0.5625580000000  0.5525230000000  0.4268100000000 1.0
C      1  0.5059560000000  0.5762360000000  0.4986180000000 1.0
C      1  0.5199470000000  0.5008270000000  0.5623270000000 1.0
C      1  0.5948990000000  0.5295520000000  0.5914150000000 1.0
C      1  0.4611170000000  0.4253360000000  0.4994290000000 1.0
C      1  0.5363320000000  0.4194930000000  0.5211000000000 1.0
C      1  0.5193160000000  0.4469880000000  0.5197040000000 1.0
C      1  0.4361810000000  0.4749140000000  0.5083030000000 1.0
C      1  0.5310830000000  0.5642720000000  0.5432480000000 1.0
C      1  0.5604720000000  0.5306140000000  0.5250640000000 1.0
C      1  0.5948670000000  0.5497570000000  0.4841090000000 1.0
C      1  0.5712010000000  0.5566150000000  0.4652160000000 1.0
C      1  0.6048600000000  0.4884370000000  0.4885870000000 1.0
C      1  0.4604650000000  0.5984070000000  0.5398260000000 1.0
C      1  0.4769420000000  0.5742300000000  0.4883060000000 1.0
C      1  0.4329410000000  0.4224410000000  0.5136530000000 1.0
C      1  0.5431670000000  0.6133130000000  0.4604220000000 1.0
C      1  0.4883250000000  0.6007570000000  0.5401440000000 1.0
C      1  0.5180210000000  0.5042770000000  0.4527140000000 1.0
C      1  0.4926710000000  0.5313380000000  0.6137860000000 1.0
C      1  0.4728030000000  0.5008660000000  0.5498360000000 1.0
C      1  0.5306730000000  0.5197530000000  0.4029940000000 1.0
C      1  0.5243340000000  0.4484150000000  0.5739820000000 1.0
C      1  0.5682900000000  0.5279320000000  0.5833260000000 1.0
C      1  0.5153860000000  0.5442980000000  0.4210090000000 1.0
C      1  0.4633670000000  0.4713100000000  0.5881820000000 1.0
C      1  0.5213570000000  0.5984300000000  0.4799670000000 1.0
C      1  0.5612410000000  0.4808760000000  0.5136480000000 1.0
C      1  0.5858560000000  0.4562490000000  0.5793990000000 1.0
C      1  0.5369980000000  0.5532160000000  0.4457260000000 1.0
C      1  0.4642240000000  0.4998050000000  0.4455320000000 1.0
C      1  0.4344330000000  0.5074320000000  0.4053830000000 1.0
C      1  0.4506630000000  0.5009670000000  0.5863940000000 1.0
C      1  0.4879000000000  0.4078060000000  0.4538530000000 1.0
C      1  0.4984760000000  0.4833210000000  0.5511820000000 1.0
C      1  0.5522260000000  0.4207320000000  0.4572840000000 1.0
C      1  0.5234080000000  0.5515480000000  0.5803830000000 1.0
C      1  0.5339130000000  0.4228030000000  0.4906820000000 1.0
C      1  0.4698660000000  0.5460200000000  0.4741710000000 1.0
C      1  0.5782240000000  0.5092770000000  0.5097600000000 1.0
C      1  0.4174700000000  0.5242930000000  0.4217570000000 1.0
C      1  0.5317580000000  0.4903860000000  0.5889290000000 1.0
C      1  0.5677580000000  0.4942350000000  0.4582580000000 1.0
C      1  0.5892020000000  0.4741180000000  0.4687160000000 1.0
C      1  0.4946570000000  0.5269490000000  0.4755910000000 1.0
C      1  0.4354630000000  0.5863390000000  0.4599280000000 1.0
C      1  0.5030020000000  0.4057150000000  0.4234480000000 1.0
C      1  0.4104220000000  0.5480450000000  0.4803840000000 1.0
C      1  0.4363990000000  0.5130590000000  0.5618380000000 1.0
C      1  0.5779030000000  0.5298260000000  0.4245470000000 1.0
C      1  0.5404160000000  0.4073520000000  0.5517350000000 1.0
C      1  0.5399280000000  0.4663790000000  0.5522550000000 1.0
C      1  0.4843980000000  0.4223470000000  0.5488010000000 1.0
C      1  0.4522040000000  0.4237900000000  0.5596430000000 1.0
C      1  0.4601010000000  0.5987060000000  0.4617440000000 1.0
C      1  0.5668620000000  0.5042760000000  0.4290850000000 1.0
C      1  0.4583150000000  0.4161640000000  0.4684160000000 1.0
C      1  0.4644640000000  0.4554660000000  0.5580830000000 1.0
C      1  0.5131090000000  0.4483800000000  0.4788170000000 1.0
C      1  0.5456130000000  0.4973300000000  0.4109180000000 1.0
C      1  0.4525830000000  0.4910780000000  0.3878740000000 1.0
C      1  0.4771820000000  0.5635650000000  0.4459800000000 1.0
C      1  0.5184450000000  0.4208190000000  0.4614070000000 1.0
C      1  0.4826780000000  0.5224670000000  0.5718090000000 1.0
C      1  0.4996370000000  0.4752840000000  0.5188220000000 1.0
C      1  0.5307570000000  0.4866670000000  0.5265450000000 1.0
C      1  0.5996540000000  0.5220030000000  0.4866260000000 1.0
C      1  0.5049360000000  0.4570710000000  0.4100500000000 1.0
C      1  0.4699530000000  0.4264480000000  0.4317760000000 1.0
C      1  0.5753120000000  0.5788170000000  0.4870890000000 1.0
C      1  0.4146950000000  0.4934930000000  0.5534220000000 1.0
C      1  0.5459220000000  0.5420960000000  0.6026970000000 1.0
C      1  0.5373950000000  0.5711290000000  0.5103710000000 1.0
C      1  0.5376970000000  0.4831760000000  0.4696720000000 1.0
C      1  0.5601680000000  0.5140180000000  0.4815450000000 1.0
C      1  0.5380650000000  0.4206790000000  0.5748650000000 1.0
C      1  0.5068480000000  0.4262380000000  0.4094130000000 1.0
C      1  0.4901150000000  0.4731870000000  0.6034420000000 1.0
C      1  0.4064140000000  0.4813740000000  0.5234120000000 1.0
C      1  0.4278840000000  0.5434630000000  0.5594760000000 1.0
C      1  0.5377790000000  0.5322290000000  0.5004030000000 1.0
C      1  0.4876620000000  0.3886340000000  0.4819350000000 1.0
C      1  0.5186300000000  0.3946670000000  0.5324710000000 1.0
C      1  0.5163700000000  0.4675560000000  0.5965870000000 1.0
C      1  0.4201380000000  0.4398260000000  0.4507520000000 1.0
C      1  0.6037670000000  0.5066920000000  0.5320710000000 1.0
C      1  0.4472650000000  0.5626420000000  0.5720350000000 1.0
C      1  0.5171620000000  0.5332070000000  0.4593120000000 1.0
C      1  0.4696050000000  0.4604890000000  0.5247950000000 1.0
C      1  0.5595940000000  0.4447840000000  0.4412910000000 1.0
C      1  0.4962520000000  0.5516720000000  0.5954770000000 1.0
C      1  0.4961220000000  0.4968160000000  0.4853310000000 1.0
C      1  0.4428460000000  0.4859410000000  0.4260360000000 1.0
C      1  0.4810530000000  0.5046730000000  0.6007370000000 1.0
C      1  0.4670320000000  0.4545510000000  0.4314520000000 1.0
C      1  0.4933060000000  0.5021240000000  0.4342930000000 1.0
C      1  0.5784140000000  0.4359570000000  0.5161990000000 1.0
END
