TITL C-2848503-6230-433 0.000604274906130722 125000 -469.8244355704 0 0 86 (C1) n - 1
REM
REM in /home/bkarasulu/work/CARBON/AIRSS/Generating-Clusters/AIREBO/with-SteepDescent/Only-C1/SD-CG-opt/Try1-1.4A-POS3A/HFTN-CG
REM
REM
REM
REM
REM
REM ./C.cell (11c1c37f851c82e70ff6c80c92926a4b)
REM
REM compiler GCC version 9.2.1 20190827 (Red Hat 9.2.1-1)
REM options -cpp -mtune=generic -march=x86-64 -g -O0 -fpre-include=/usr/include/finclude/math-vector-fortran.h
REM seed 155510882 -719152888 -1096227804 229373319 16908573 -2122331185 1808668907 1137064841 -871405436 -1807966224 1639221498 -1907583775 1506639657 1057896637 739409277 -1165024537 1382958631 468618345 -28701459 -1229460832 -324852942 385763641 -1010188429 -1266724242 1799986691 -1043993115 -1622573670 2108991885 -783151618 1375573481 -285964964 922417578 1354144568
REM
CELL 1.54180   50.00000   50.00000   50.00000   90.00000   90.00000   90.00000
LATT -1
SFAC C  
C      1  0.4537080000000  0.4561980000000  0.4382480000000 1.0
C      1  0.5464810000000  0.5427160000000  0.5378460000000 1.0
C      1  0.5136650000000  0.4651600000000  0.4843420000000 1.0
C      1  0.5901470000000  0.4529950000000  0.5018520000000 1.0
C      1  0.4663700000000  0.5869430000000  0.4693230000000 1.0
C      1  0.5711860000000  0.4968030000000  0.4950090000000 1.0
C      1  0.4777520000000  0.5338210000000  0.4689210000000 1.0
C      1  0.5038410000000  0.4791940000000  0.4450300000000 1.0
C      1  0.4752450000000  0.4306030000000  0.5208900000000 1.0
C      1  0.4434970000000  0.5149350000000  0.4369770000000 1.0
C      1  0.4504160000000  0.4771910000000  0.5602920000000 1.0
C      1  0.5833980000000  0.4760460000000  0.5152060000000 1.0
C      1  0.5058500000000  0.5334060000000  0.5504470000000 1.0
C      1  0.4789650000000  0.5111920000000  0.5127270000000 1.0
C      1  0.4717480000000  0.5654560000000  0.5380450000000 1.0
C      1  0.4906160000000  0.5042020000000  0.5419850000000 1.0
C      1  0.5281090000000  0.5339420000000  0.5719280000000 1.0
C      1  0.5469520000000  0.4221860000000  0.4905400000000 1.0
C      1  0.4097820000000  0.4889510000000  0.5107680000000 1.0
C      1  0.4891620000000  0.4899470000000  0.4094440000000 1.0
C      1  0.5213170000000  0.5557100000000  0.3970600000000 1.0
C      1  0.4936180000000  0.4224240000000  0.5464550000000 1.0
C      1  0.5262810000000  0.5311700000000  0.4884720000000 1.0
C      1  0.5223560000000  0.4923310000000  0.5450490000000 1.0
C      1  0.5694840000000  0.5112940000000  0.4402670000000 1.0
C      1  0.4558410000000  0.5147090000000  0.4880450000000 1.0
C      1  0.4630890000000  0.5406190000000  0.5054930000000 1.0
C      1  0.5300040000000  0.4876950000000  0.5778540000000 1.0
C      1  0.4998120000000  0.4861070000000  0.5803730000000 1.0
C      1  0.5331330000000  0.4819240000000  0.4283210000000 1.0
C      1  0.5214380000000  0.5590610000000  0.5242030000000 1.0
C      1  0.4448960000000  0.4377610000000  0.5118810000000 1.0
C      1  0.4822140000000  0.5502240000000  0.5593280000000 1.0
C      1  0.4889220000000  0.4715920000000  0.5516160000000 1.0
C      1  0.5078290000000  0.4437000000000  0.5561640000000 1.0
C      1  0.5002700000000  0.5130670000000  0.4216900000000 1.0
C      1  0.5556570000000  0.4871790000000  0.4439730000000 1.0
C      1  0.4393670000000  0.4877680000000  0.4984630000000 1.0
C      1  0.5656710000000  0.5149340000000  0.5418850000000 1.0
C      1  0.4476040000000  0.4713680000000  0.4746210000000 1.0
C      1  0.5460130000000  0.4409720000000  0.4553560000000 1.0
C      1  0.5418880000000  0.5715840000000  0.5028500000000 1.0
C      1  0.5347550000000  0.4739150000000  0.4020520000000 1.0
C      1  0.4625100000000  0.4513410000000  0.5446350000000 1.0
C      1  0.4911090000000  0.5675640000000  0.5147100000000 1.0
C      1  0.5212610000000  0.4526390000000  0.4571790000000 1.0
C      1  0.4980750000000  0.5118180000000  0.4527950000000 1.0
C      1  0.5461860000000  0.4710210000000  0.5455820000000 1.0
C      1  0.5700560000000  0.5267430000000  0.5102710000000 1.0
C      1  0.4693890000000  0.4858280000000  0.5834280000000 1.0
C      1  0.4938440000000  0.4685190000000  0.5186670000000 1.0
C      1  0.5122230000000  0.5343020000000  0.4091330000000 1.0
C      1  0.5356970000000  0.4475700000000  0.5570100000000 1.0
C      1  0.5154370000000  0.5264610000000  0.5185600000000 1.0
C      1  0.4573690000000  0.5382740000000  0.4439600000000 1.0
C      1  0.5413420000000  0.4805990000000  0.4966670000000 1.0
C      1  0.5050790000000  0.4984640000000  0.4800590000000 1.0
C      1  0.5668790000000  0.5601990000000  0.5049300000000 1.0
C      1  0.4615280000000  0.5102610000000  0.5968840000000 1.0
C      1  0.5085160000000  0.5473930000000  0.4740290000000 1.0
C      1  0.5255830000000  0.4210820000000  0.5029920000000 1.0
C      1  0.4376090000000  0.5332990000000  0.5455120000000 1.0
C      1  0.4743330000000  0.4809590000000  0.4618290000000 1.0
C      1  0.4068350000000  0.4937610000000  0.5353870000000 1.0
C      1  0.4680820000000  0.5364050000000  0.5823890000000 1.0
C      1  0.5655870000000  0.5312380000000  0.4586370000000 1.0
C      1  0.5684170000000  0.4440660000000  0.4807470000000 1.0
C      1  0.4800990000000  0.4655160000000  0.4248800000000 1.0
C      1  0.5151770000000  0.4937560000000  0.5121970000000 1.0
C      1  0.4557100000000  0.5629280000000  0.4321360000000 1.0
C      1  0.4313900000000  0.5014760000000  0.5513450000000 1.0
C      1  0.4798070000000  0.4837320000000  0.4947250000000 1.0
C      1  0.4737750000000  0.5631380000000  0.4857010000000 1.0
C      1  0.5606720000000  0.4748880000000  0.4705890000000 1.0
C      1  0.4415790000000  0.4444460000000  0.4650770000000 1.0
C      1  0.5699450000000  0.4836860000000  0.5388510000000 1.0
C      1  0.4351380000000  0.4289090000000  0.4878060000000 1.0
C      1  0.4402810000000  0.4683220000000  0.5263520000000 1.0
C      1  0.5526730000000  0.5300000000000  0.4831720000000 1.0
C      1  0.4470850000000  0.5527820000000  0.5285930000000 1.0
C      1  0.5459540000000  0.5130230000000  0.5695710000000 1.0
C      1  0.4522450000000  0.5870580000000  0.4225120000000 1.0
C      1  0.4622970000000  0.5151580000000  0.5573030000000 1.0
C      1  0.4504760000000  0.4884070000000  0.4387720000000 1.0
C      1  0.5123850000000  0.5730470000000  0.4882570000000 1.0
C      1  0.5020180000000  0.4409280000000  0.5048760000000 1.0
END
