TITL C-2847957-7266-437 0.000797912068106884 125000 -269.02280424288 0 0 47 (C1) n - 1
REM
REM in /home/bkarasulu/work/CARBON/AIRSS/Generating-Clusters/AIREBO/with-SteepDescent/Only-C1/SD-CG-opt/Try1-1.4A-POS3A/HFTN-CG
REM
REM
REM
REM
REM
REM ./C.cell (11c1c37f851c82e70ff6c80c92926a4b)
REM
REM compiler GCC version 9.2.1 20190827 (Red Hat 9.2.1-1)
REM options -cpp -mtune=generic -march=x86-64 -g -O0 -fpre-include=/usr/include/finclude/math-vector-fortran.h
REM seed 1059454596 800513464 -1792750451 1412013774 -1551354979 -142922601 -1055719004 1697741798 625430355 -1129865357 486537895 -63473752 207739724 -1299477730 -1848774027 1420853143 -1400954693 1367217094 149581007 -1422984575 1074191358 -16053588 1593154223 1973761048 788507449 -1474754131 728820276 -1451974610 -342660718 1068520470 955667334 602228096 -267184845
REM
CELL 1.54180   50.00000   50.00000   50.00000   90.00000   90.00000   90.00000
LATT -1
SFAC C  
C      1  0.5195250000000  0.5238010000000  0.4622270000000 1.0
C      1  0.5193520000000  0.5214550000000  0.5586390000000 1.0
C      1  0.4587010000000  0.4668670000000  0.4894150000000 1.0
C      1  0.4985260000000  0.5393890000000  0.5601650000000 1.0
C      1  0.5394340000000  0.4557870000000  0.4801940000000 1.0
C      1  0.5649180000000  0.4833240000000  0.4918020000000 1.0
C      1  0.5029240000000  0.4509540000000  0.4955070000000 1.0
C      1  0.5099980000000  0.5275280000000  0.4914200000000 1.0
C      1  0.5616550000000  0.5501610000000  0.5201500000000 1.0
C      1  0.5752310000000  0.5072690000000  0.5010670000000 1.0
C      1  0.5152240000000  0.4570400000000  0.5541170000000 1.0
C      1  0.5452930000000  0.4646350000000  0.5125090000000 1.0
C      1  0.5319740000000  0.4749260000000  0.5402120000000 1.0
C      1  0.4734320000000  0.5351710000000  0.5479140000000 1.0
C      1  0.4539070000000  0.5199420000000  0.5081260000000 1.0
C      1  0.5469410000000  0.4822970000000  0.4655120000000 1.0
C      1  0.4734890000000  0.4551980000000  0.5348890000000 1.0
C      1  0.4516750000000  0.4982660000000  0.5285770000000 1.0
C      1  0.4627780000000  0.5084390000000  0.5526120000000 1.0
C      1  0.5126500000000  0.4307810000000  0.5402290000000 1.0
C      1  0.5560960000000  0.5252720000000  0.5103650000000 1.0
C      1  0.4735260000000  0.4884260000000  0.5698360000000 1.0
C      1  0.5257410000000  0.4973450000000  0.4542670000000 1.0
C      1  0.4681580000000  0.5196120000000  0.4591230000000 1.0
C      1  0.4792500000000  0.5298310000000  0.4225830000000 1.0
C      1  0.4423510000000  0.5199090000000  0.4782850000000 1.0
C      1  0.5113190000000  0.4488330000000  0.4421980000000 1.0
C      1  0.4854570000000  0.4867160000000  0.4962560000000 1.0
C      1  0.4855250000000  0.4629890000000  0.4688840000000 1.0
C      1  0.4763200000000  0.5502110000000  0.4500180000000 1.0
C      1  0.4684560000000  0.5682100000000  0.4751290000000 1.0
C      1  0.4805570000000  0.5152820000000  0.4889140000000 1.0
C      1  0.5170630000000  0.4810610000000  0.5030460000000 1.0
C      1  0.5260810000000  0.5752130000000  0.5019330000000 1.0
C      1  0.4872030000000  0.4664430000000  0.5582380000000 1.0
C      1  0.4921040000000  0.4381480000000  0.5202990000000 1.0
C      1  0.5065010000000  0.5563750000000  0.4997420000000 1.0
C      1  0.4813680000000  0.5016320000000  0.4349680000000 1.0
C      1  0.4786360000000  0.5617970000000  0.5015690000000 1.0
C      1  0.5086400000000  0.5430230000000  0.4459950000000 1.0
C      1  0.5262690000000  0.5018500000000  0.5401060000000 1.0
C      1  0.4353040000000  0.4577720000000  0.4779360000000 1.0
C      1  0.5008500000000  0.4805270000000  0.4445520000000 1.0
C      1  0.4571680000000  0.4723950000000  0.5204040000000 1.0
C      1  0.5185960000000  0.4399800000000  0.4673970000000 1.0
C      1  0.5281520000000  0.5124980000000  0.5113450000000 1.0
C      1  0.4656810000000  0.5454210000000  0.5213300000000 1.0
END
