TITL C-2848498-1409-217 -0.00133668169456786 125000 -418.819813826786 0 0 77 (C1) n - 1
REM
REM in /home/bkarasulu/work/CARBON/AIRSS/Generating-Clusters/AIREBO/with-SteepDescent/Only-C1/SD-CG-opt/Try1-1.4A-POS3A/HFTN-CG
REM
REM
REM
REM
REM
REM ./C.cell (11c1c37f851c82e70ff6c80c92926a4b)
REM
REM compiler GCC version 9.2.1 20190827 (Red Hat 9.2.1-1)
REM options -cpp -mtune=generic -march=x86-64 -g -O0 -fpre-include=/usr/include/finclude/math-vector-fortran.h
REM seed 1656247081 1491223886 877435390 -2057239588 -1592371461 -1108989427 799331905 1495090756 -1882479705 2012595345 -1584857993 -1281228322 -883931314 1403123923 630025261 343328136 152101889 -574696442 461160513 114496345 -75547044 1839752183 1429894247 -1023160196 1421061316 -192030266 884994633 1365370642 1865978531 -1532880964 400375021 -1661792776 -1438738490
REM
CELL 1.54180   50.00000   50.00000   50.00000   90.00000   90.00000   90.00000
LATT -1
SFAC C  
C      1  0.5634290000000  0.5431220000000  0.4888490000000 1.0
C      1  0.5013590000000  0.5849050000000  0.4840670000000 1.0
C      1  0.4451140000000  0.5556520000000  0.5478400000000 1.0
C      1  0.5021950000000  0.4372560000000  0.4443920000000 1.0
C      1  0.4850280000000  0.5645250000000  0.4745160000000 1.0
C      1  0.4523680000000  0.4339700000000  0.4732710000000 1.0
C      1  0.4812660000000  0.4885720000000  0.4920460000000 1.0
C      1  0.4866710000000  0.4674710000000  0.5337090000000 1.0
C      1  0.5247160000000  0.4474100000000  0.5219350000000 1.0
C      1  0.5000300000000  0.5737290000000  0.5333420000000 1.0
C      1  0.5147570000000  0.5995640000000  0.4611910000000 1.0
C      1  0.4370770000000  0.5137630000000  0.5085300000000 1.0
C      1  0.5220930000000  0.4322060000000  0.4205530000000 1.0
C      1  0.5031580000000  0.4604270000000  0.4194700000000 1.0
C      1  0.5262730000000  0.4674450000000  0.4792110000000 1.0
C      1  0.5070650000000  0.5468590000000  0.5816940000000 1.0
C      1  0.5136350000000  0.5596400000000  0.5535970000000 1.0
C      1  0.5226890000000  0.5002610000000  0.5189690000000 1.0
C      1  0.5602320000000  0.5346630000000  0.4631400000000 1.0
C      1  0.4688950000000  0.5087540000000  0.5124410000000 1.0
C      1  0.4816000000000  0.4339120000000  0.5009850000000 1.0
C      1  0.5526340000000  0.4753570000000  0.4693770000000 1.0
C      1  0.5118360000000  0.5299180000000  0.5101950000000 1.0
C      1  0.4597770000000  0.4511560000000  0.5466190000000 1.0
C      1  0.5563150000000  0.4028250000000  0.5079000000000 1.0
C      1  0.4808130000000  0.4281380000000  0.5322080000000 1.0
C      1  0.4857440000000  0.5379360000000  0.4898980000000 1.0
C      1  0.4953500000000  0.4677310000000  0.4691860000000 1.0
C      1  0.5586430000000  0.4914130000000  0.5054190000000 1.0
C      1  0.5060080000000  0.4737860000000  0.5570860000000 1.0
C      1  0.4831280000000  0.4610310000000  0.4000740000000 1.0
C      1  0.5426870000000  0.5015360000000  0.4309120000000 1.0
C      1  0.5147660000000  0.5687880000000  0.4483680000000 1.0
C      1  0.5021830000000  0.4236670000000  0.5911730000000 1.0
C      1  0.4682680000000  0.5087470000000  0.4456350000000 1.0
C      1  0.5134580000000  0.5780690000000  0.5088110000000 1.0
C      1  0.5210140000000  0.5022460000000  0.5497670000000 1.0
C      1  0.4627690000000  0.5364120000000  0.4455540000000 1.0
C      1  0.5129840000000  0.4869200000000  0.4287890000000 1.0
C      1  0.5351140000000  0.5538620000000  0.5040650000000 1.0
C      1  0.5040810000000  0.5262850000000  0.5547890000000 1.0
C      1  0.4425140000000  0.4538320000000  0.4894770000000 1.0
C      1  0.4607330000000  0.4570740000000  0.5141940000000 1.0
C      1  0.5488830000000  0.4266760000000  0.5119410000000 1.0
C      1  0.5498580000000  0.4817330000000  0.5814040000000 1.0
C      1  0.5480050000000  0.5037970000000  0.5641640000000 1.0
C      1  0.4424740000000  0.5433090000000  0.4647480000000 1.0
C      1  0.3945390000000  0.5025250000000  0.4845520000000 1.0
C      1  0.5100980000000  0.4407160000000  0.5714930000000 1.0
C      1  0.4240380000000  0.5133340000000  0.5350340000000 1.0
C      1  0.4355270000000  0.5316420000000  0.5575670000000 1.0
C      1  0.4968510000000  0.4974470000000  0.4527170000000 1.0
C      1  0.4849560000000  0.5299000000000  0.5290200000000 1.0
C      1  0.4829940000000  0.5570390000000  0.4453280000000 1.0
C      1  0.5071770000000  0.4724530000000  0.5070470000000 1.0
C      1  0.4367020000000  0.4782670000000  0.4767050000000 1.0
C      1  0.5665870000000  0.5232710000000  0.5600560000000 1.0
C      1  0.4737690000000  0.5587460000000  0.5315240000000 1.0
C      1  0.5552600000000  0.4586500000000  0.5138530000000 1.0
C      1  0.5524600000000  0.5053640000000  0.4587860000000 1.0
C      1  0.4520820000000  0.5400060000000  0.4948510000000 1.0
C      1  0.4209220000000  0.4974270000000  0.4892960000000 1.0
C      1  0.4365510000000  0.4969630000000  0.5588200000000 1.0
C      1  0.5441000000000  0.5536450000000  0.4462800000000 1.0
C      1  0.5306020000000  0.4638820000000  0.5771520000000 1.0
C      1  0.5776650000000  0.4672200000000  0.4909000000000 1.0
C      1  0.4605890000000  0.4894750000000  0.4670720000000 1.0
C      1  0.5071590000000  0.4336480000000  0.5422310000000 1.0
C      1  0.4838040000000  0.4369940000000  0.4687370000000 1.0
C      1  0.5794560000000  0.4571730000000  0.4587000000000 1.0
C      1  0.5483680000000  0.5574370000000  0.5313810000000 1.0
C      1  0.5262640000000  0.5069960000000  0.4045910000000 1.0
C      1  0.5234310000000  0.5468920000000  0.4728930000000 1.0
C      1  0.4451960000000  0.5626400000000  0.5157460000000 1.0
C      1  0.4410530000000  0.4699620000000  0.5623370000000 1.0
C      1  0.5341040000000  0.5057420000000  0.4874130000000 1.0
C      1  0.5080100000000  0.5181910000000  0.4724190000000 1.0
END
