TITL C-2848495-5024-45 -0.00142052643224946 125000 -851.221553897417 0 0 156 (C1) n - 1
REM
REM in /home/bkarasulu/work/CARBON/AIRSS/Generating-Clusters/AIREBO/with-SteepDescent/Only-C1/SD-CG-opt/Try1-1.4A-POS3A/HFTN-CG
REM
REM
REM
REM
REM
REM ./C.cell (11c1c37f851c82e70ff6c80c92926a4b)
REM
REM compiler GCC version 9.2.1 20190827 (Red Hat 9.2.1-1)
REM options -cpp -mtune=generic -march=x86-64 -g -O0 -fpre-include=/usr/include/finclude/math-vector-fortran.h
REM seed -857718215 -329088668 475710594 -376681326 -653270255 -1541533086 1504809270 -2093589323 -2013300707 -568954357 894799121 1844618151 793617414 931319655 -784546711 -825290681 674573350 599352104 1234424386 -2079437122 -651118588 129489043 -1962229834 904612689 -848049655 -1511994473 -274928026 -1154070560 15577533 1655761399 78360425 1910221212 1150957270
REM
CELL 1.54180   50.00000   50.00000   50.00000   90.00000   90.00000   90.00000
LATT -1
SFAC C  
C      1  0.5083270000000  0.4691900000000  0.5554050000000 1.0
C      1  0.5425870000000  0.4067110000000  0.5013460000000 1.0
C      1  0.5099250000000  0.4661760000000  0.4017870000000 1.0
C      1  0.4930930000000  0.4136840000000  0.4742230000000 1.0
C      1  0.5735090000000  0.5557960000000  0.4763600000000 1.0
C      1  0.4851620000000  0.5060030000000  0.3892330000000 1.0
C      1  0.5200820000000  0.4402760000000  0.4864420000000 1.0
C      1  0.4134680000000  0.5364560000000  0.5665660000000 1.0
C      1  0.4657200000000  0.4731330000000  0.4196970000000 1.0
C      1  0.4432650000000  0.5872070000000  0.5220610000000 1.0
C      1  0.5695330000000  0.5125110000000  0.5285880000000 1.0
C      1  0.3912940000000  0.4746640000000  0.5067950000000 1.0
C      1  0.5285220000000  0.5623020000000  0.5365030000000 1.0
C      1  0.5351950000000  0.5239340000000  0.4922450000000 1.0
C      1  0.5286940000000  0.5173320000000  0.4517430000000 1.0
C      1  0.4686510000000  0.4723770000000  0.5848480000000 1.0
C      1  0.5256970000000  0.4335530000000  0.5253540000000 1.0
C      1  0.4870010000000  0.4936190000000  0.5656360000000 1.0
C      1  0.5838280000000  0.5394410000000  0.4338140000000 1.0
C      1  0.4851040000000  0.5496470000000  0.4073900000000 1.0
C      1  0.5495250000000  0.4768350000000  0.4551560000000 1.0
C      1  0.5564880000000  0.5079150000000  0.5711070000000 1.0
C      1  0.5626580000000  0.5117860000000  0.4765770000000 1.0
C      1  0.5383670000000  0.4819210000000  0.5650010000000 1.0
C      1  0.4255060000000  0.5439300000000  0.4777660000000 1.0
C      1  0.4913890000000  0.4335630000000  0.5256110000000 1.0
C      1  0.4325100000000  0.4374140000000  0.5640340000000 1.0
C      1  0.4830700000000  0.4779330000000  0.3986430000000 1.0
C      1  0.4427180000000  0.5743780000000  0.4451160000000 1.0
C      1  0.4422210000000  0.5260630000000  0.4072430000000 1.0
C      1  0.4022350000000  0.5221480000000  0.5150410000000 1.0
C      1  0.6031780000000  0.4954800000000  0.4316530000000 1.0
C      1  0.5556040000000  0.5442560000000  0.5266060000000 1.0
C      1  0.5458590000000  0.4560370000000  0.4325130000000 1.0
C      1  0.4677940000000  0.5678630000000  0.5309570000000 1.0
C      1  0.4557390000000  0.5119780000000  0.5537730000000 1.0
C      1  0.5691270000000  0.5596170000000  0.4486140000000 1.0
C      1  0.4220340000000  0.4716880000000  0.4763720000000 1.0
C      1  0.5485920000000  0.5551460000000  0.4932310000000 1.0
C      1  0.5373580000000  0.4044940000000  0.5349250000000 1.0
C      1  0.4190990000000  0.4829270000000  0.4275950000000 1.0
C      1  0.6008790000000  0.4896060000000  0.4638720000000 1.0
C      1  0.4211580000000  0.5554370000000  0.4494820000000 1.0
C      1  0.5037910000000  0.4381360000000  0.5685100000000 1.0
C      1  0.4755070000000  0.5951440000000  0.5132670000000 1.0
C      1  0.4328000000000  0.4563350000000  0.5202390000000 1.0
C      1  0.5132900000000  0.3914580000000  0.5481990000000 1.0
C      1  0.4883910000000  0.5311340000000  0.5094460000000 1.0
C      1  0.4625390000000  0.4020610000000  0.4746010000000 1.0
C      1  0.4331180000000  0.5198470000000  0.5855840000000 1.0
C      1  0.5798420000000  0.4426910000000  0.5638200000000 1.0
C      1  0.5624490000000  0.4319330000000  0.4403090000000 1.0
C      1  0.4361180000000  0.4680580000000  0.5509490000000 1.0
C      1  0.5856260000000  0.4638540000000  0.4683650000000 1.0
C      1  0.5272240000000  0.6070490000000  0.4734440000000 1.0
C      1  0.5329530000000  0.4208360000000  0.4441110000000 1.0
C      1  0.4628290000000  0.4283390000000  0.5530100000000 1.0
C      1  0.4249930000000  0.4988870000000  0.5600590000000 1.0
C      1  0.5076630000000  0.5436540000000  0.5648530000000 1.0
C      1  0.5146090000000  0.4692710000000  0.4728760000000 1.0
C      1  0.5506990000000  0.4402720000000  0.5474100000000 1.0
C      1  0.4462720000000  0.4175010000000  0.4948360000000 1.0
C      1  0.5136800000000  0.4457390000000  0.4287010000000 1.0
C      1  0.4313060000000  0.4388870000000  0.4741000000000 1.0
C      1  0.5149280000000  0.4825810000000  0.5251770000000 1.0
C      1  0.4927760000000  0.4112090000000  0.5511930000000 1.0
C      1  0.4675250000000  0.4505740000000  0.4424380000000 1.0
C      1  0.5581790000000  0.5057550000000  0.4434850000000 1.0
C      1  0.5323340000000  0.4234150000000  0.5662350000000 1.0
C      1  0.5672650000000  0.4262850000000  0.5143470000000 1.0
C      1  0.4251000000000  0.5470910000000  0.5409220000000 1.0
C      1  0.4433460000000  0.5253000000000  0.5279110000000 1.0
C      1  0.4819220000000  0.5636050000000  0.5550690000000 1.0
C      1  0.4819560000000  0.4885280000000  0.6077030000000 1.0
C      1  0.5227810000000  0.4882340000000  0.4375090000000 1.0
C      1  0.5267930000000  0.4700040000000  0.5923890000000 1.0
C      1  0.4313070000000  0.5144750000000  0.4731880000000 1.0
C      1  0.4541750000000  0.5097910000000  0.4525740000000 1.0
C      1  0.4948260000000  0.5886690000000  0.4380630000000 1.0
C      1  0.4670330000000  0.5123180000000  0.5858510000000 1.0
C      1  0.4622110000000  0.5438290000000  0.5130860000000 1.0
C      1  0.5280400000000  0.5741090000000  0.4822660000000 1.0
C      1  0.5653380000000  0.5384020000000  0.5586630000000 1.0
C      1  0.4958230000000  0.4691910000000  0.4457150000000 1.0
C      1  0.5477860000000  0.4791350000000  0.5321880000000 1.0
C      1  0.6045490000000  0.5129690000000  0.4885410000000 1.0
C      1  0.4703750000000  0.4814750000000  0.5022890000000 1.0
C      1  0.5913770000000  0.5265720000000  0.5677040000000 1.0
C      1  0.4555830000000  0.5818700000000  0.4716770000000 1.0
C      1  0.5041870000000  0.5387780000000  0.5330800000000 1.0
C      1  0.5432170000000  0.5683660000000  0.4400760000000 1.0
C      1  0.4166980000000  0.5152400000000  0.4172780000000 1.0
C      1  0.6161450000000  0.5035980000000  0.5146720000000 1.0
C      1  0.4480770000000  0.4105620000000  0.5279400000000 1.0
C      1  0.4795660000000  0.4952130000000  0.4608860000000 1.0
C      1  0.5008980000000  0.4714270000000  0.5026060000000 1.0
C      1  0.5455540000000  0.4468060000000  0.5010400000000 1.0
C      1  0.5168650000000  0.5970620000000  0.5038410000000 1.0
C      1  0.4389160000000  0.4769780000000  0.5836490000000 1.0
C      1  0.5237810000000  0.5432620000000  0.4365140000000 1.0
C      1  0.4575380000000  0.5326010000000  0.4318830000000 1.0
C      1  0.5103550000000  0.4897170000000  0.6064030000000 1.0
C      1  0.4123720000000  0.4240610000000  0.5728830000000 1.0
C      1  0.5074670000000  0.5834980000000  0.5630760000000 1.0
C      1  0.4625370000000  0.4431120000000  0.5102880000000 1.0
C      1  0.5913070000000  0.4725730000000  0.5523390000000 1.0
C      1  0.4955750000000  0.6030010000000  0.4650910000000 1.0
C      1  0.4477230000000  0.4923780000000  0.4277890000000 1.0
C      1  0.5285050000000  0.5213220000000  0.5744160000000 1.0
C      1  0.5111140000000  0.5392890000000  0.4099770000000 1.0
C      1  0.5593090000000  0.4686280000000  0.4848930000000 1.0
C      1  0.5145950000000  0.5175800000000  0.6008130000000 1.0
C      1  0.5038440000000  0.5848920000000  0.5292840000000 1.0
C      1  0.5876720000000  0.4972930000000  0.5718280000000 1.0
C      1  0.5151900000000  0.5004260000000  0.4779900000000 1.0
C      1  0.5126900000000  0.5140800000000  0.3967300000000 1.0
C      1  0.5065280000000  0.5406060000000  0.4857820000000 1.0
C      1  0.4725560000000  0.4193120000000  0.4476990000000 1.0
C      1  0.4753280000000  0.5975730000000  0.4826010000000 1.0
C      1  0.5878670000000  0.5515130000000  0.5186700000000 1.0
C      1  0.5337470000000  0.4427860000000  0.5941480000000 1.0
C      1  0.4748050000000  0.4429920000000  0.5812650000000 1.0
C      1  0.5381580000000  0.5808140000000  0.5610920000000 1.0
C      1  0.4896880000000  0.4244230000000  0.4214080000000 1.0
C      1  0.4029260000000  0.4536700000000  0.5161730000000 1.0
C      1  0.4927960000000  0.5638110000000  0.5874070000000 1.0
C      1  0.5360290000000  0.5165350000000  0.5244000000000 1.0
C      1  0.5124860000000  0.5081430000000  0.5474740000000 1.0
C      1  0.4527760000000  0.4630910000000  0.4845590000000 1.0
C      1  0.4733750000000  0.5623070000000  0.4366900000000 1.0
C      1  0.5964780000000  0.4976450000000  0.5330390000000 1.0
C      1  0.4627910000000  0.4789630000000  0.5328850000000 1.0
C      1  0.5250040000000  0.4120440000000  0.4727090000000 1.0
C      1  0.4058640000000  0.5381280000000  0.4322960000000 1.0
C      1  0.4896690000000  0.5333360000000  0.5989280000000 1.0
C      1  0.4865380000000  0.5064610000000  0.4904310000000 1.0
C      1  0.5906920000000  0.5218430000000  0.4601530000000 1.0
C      1  0.4204980000000  0.5698570000000  0.5222060000000 1.0
C      1  0.5256520000000  0.4910030000000  0.4070990000000 1.0
C      1  0.4876520000000  0.4438520000000  0.4873810000000 1.0
C      1  0.5811280000000  0.5104020000000  0.4233040000000 1.0
C      1  0.4098480000000  0.5472650000000  0.5039960000000 1.0
C      1  0.4536440000000  0.5534920000000  0.4858620000000 1.0
C      1  0.5604770000000  0.4929110000000  0.5037450000000 1.0
C      1  0.4011720000000  0.5153970000000  0.5428390000000 1.0
C      1  0.4683540000000  0.5299680000000  0.3934810000000 1.0
C      1  0.4791710000000  0.5498540000000  0.4677930000000 1.0
C      1  0.5731590000000  0.4568750000000  0.5280220000000 1.0
C      1  0.5856980000000  0.4402640000000  0.4543670000000 1.0
C      1  0.4350240000000  0.4600370000000  0.4471900000000 1.0
C      1  0.4364220000000  0.4930090000000  0.5197910000000 1.0
C      1  0.4786520000000  0.4570860000000  0.5440400000000 1.0
C      1  0.5939500000000  0.5449250000000  0.4924760000000 1.0
C      1  0.5100890000000  0.5592050000000  0.4602260000000 1.0
C      1  0.4138830000000  0.4967000000000  0.4957220000000 1.0
C      1  0.5269390000000  0.5912650000000  0.4435950000000 1.0
END
