TITL C-2847949-8115-428 0.000704935966546362 125000 -387.582870323762 0 0 70 (C1) n - 1
REM
REM in /home/bkarasulu/work/CARBON/AIRSS/Generating-Clusters/AIREBO/with-SteepDescent/Only-C1/SD-CG-opt/Try1-1.4A-POS3A/HFTN-CG
REM
REM
REM
REM
REM
REM ./C.cell (11c1c37f851c82e70ff6c80c92926a4b)
REM
REM compiler GCC version 9.2.1 20190827 (Red Hat 9.2.1-1)
REM options -cpp -mtune=generic -march=x86-64 -g -O0 -fpre-include=/usr/include/finclude/math-vector-fortran.h
REM seed -2137568550 7855779 -1223699467 -537701031 -1421380275 -838859604 -1192190012 1090355152 -1063727248 -1050164495 -1803630607 -494838694 1234083662 -1195969732 852163747 902011558 -1408504755 1276460721 -2090451060 1832604568 1582450087 -1015350341 -309820688 -1246439640 -1985644045 1722330149 89865804 -579518987 -1770484488 1052287411 1363830756 466444030 -1890687507
REM
CELL 1.54180   50.00000   50.00000   50.00000   90.00000   90.00000   90.00000
LATT -1
SFAC C  
C      1  0.5279820000000  0.5612260000000  0.4533990000000 1.0
C      1  0.5348320000000  0.5342940000000  0.4487400000000 1.0
C      1  0.5253210000000  0.4735280000000  0.4190820000000 1.0
C      1  0.4516770000000  0.4889720000000  0.5703930000000 1.0
C      1  0.4706690000000  0.5127070000000  0.4807930000000 1.0
C      1  0.5399590000000  0.5348940000000  0.5643150000000 1.0
C      1  0.5443120000000  0.4601370000000  0.5163880000000 1.0
C      1  0.5530180000000  0.5582540000000  0.4953840000000 1.0
C      1  0.4664560000000  0.5407850000000  0.4995980000000 1.0
C      1  0.4696480000000  0.5094730000000  0.5762980000000 1.0
C      1  0.4829110000000  0.5422090000000  0.5387740000000 1.0
C      1  0.5643370000000  0.5125690000000  0.5547530000000 1.0
C      1  0.5572680000000  0.4645570000000  0.4876530000000 1.0
C      1  0.4782020000000  0.5948000000000  0.4949150000000 1.0
C      1  0.5244000000000  0.4588180000000  0.5690380000000 1.0
C      1  0.4179220000000  0.4977880000000  0.4575330000000 1.0
C      1  0.4418170000000  0.4782600000000  0.4516570000000 1.0
C      1  0.5414750000000  0.4815250000000  0.5641460000000 1.0
C      1  0.4419590000000  0.5093000000000  0.5254180000000 1.0
C      1  0.5062490000000  0.4989860000000  0.5401200000000 1.0
C      1  0.5710580000000  0.5014980000000  0.5095780000000 1.0
C      1  0.5099660000000  0.4304980000000  0.4790100000000 1.0
C      1  0.4566750000000  0.4810790000000  0.5376980000000 1.0
C      1  0.5189850000000  0.4794850000000  0.5185390000000 1.0
C      1  0.5286860000000  0.5059380000000  0.5740520000000 1.0
C      1  0.4930730000000  0.4992090000000  0.4590620000000 1.0
C      1  0.4495460000000  0.4541280000000  0.4626370000000 1.0
C      1  0.4867830000000  0.5633930000000  0.5051790000000 1.0
C      1  0.4699810000000  0.4661620000000  0.5101930000000 1.0
C      1  0.5568380000000  0.5265840000000  0.4956200000000 1.0
C      1  0.5463830000000  0.4717330000000  0.4379410000000 1.0
C      1  0.5136140000000  0.5095150000000  0.3875010000000 1.0
C      1  0.4977850000000  0.4997180000000  0.5714440000000 1.0
C      1  0.4267460000000  0.4547000000000  0.5355610000000 1.0
C      1  0.5041710000000  0.4691280000000  0.4704850000000 1.0
C      1  0.5319140000000  0.5099100000000  0.5104710000000 1.0
C      1  0.5043460000000  0.5640470000000  0.5342990000000 1.0
C      1  0.4489400000000  0.5115210000000  0.4552240000000 1.0
C      1  0.5371220000000  0.4734280000000  0.4674900000000 1.0
C      1  0.5074090000000  0.4517550000000  0.4218780000000 1.0
C      1  0.4521030000000  0.5556160000000  0.5451090000000 1.0
C      1  0.5785370000000  0.4817050000000  0.4917150000000 1.0
C      1  0.5346200000000  0.5714190000000  0.4808910000000 1.0
C      1  0.4478250000000  0.5365620000000  0.5205940000000 1.0
C      1  0.4515410000000  0.4917370000000  0.4996860000000 1.0
C      1  0.5255160000000  0.5613190000000  0.5516860000000 1.0
C      1  0.4470700000000  0.4449180000000  0.5516990000000 1.0
C      1  0.5326860000000  0.4339580000000  0.5747160000000 1.0
C      1  0.5436470000000  0.5253740000000  0.5332420000000 1.0
C      1  0.4961640000000  0.5190620000000  0.5256650000000 1.0
C      1  0.5020670000000  0.5770340000000  0.4790600000000 1.0
C      1  0.4977440000000  0.4680360000000  0.5003380000000 1.0
C      1  0.4834550000000  0.4155080000000  0.4717110000000 1.0
C      1  0.4471740000000  0.4532740000000  0.4899790000000 1.0
C      1  0.5013730000000  0.5123410000000  0.4957140000000 1.0
C      1  0.4989890000000  0.5652040000000  0.4474570000000 1.0
C      1  0.5160770000000  0.4995360000000  0.4128540000000 1.0
C      1  0.4913380000000  0.5438260000000  0.4320700000000 1.0
C      1  0.4676280000000  0.4351780000000  0.4533240000000 1.0
C      1  0.4972230000000  0.4673690000000  0.5673310000000 1.0
C      1  0.5241710000000  0.5029640000000  0.4722830000000 1.0
C      1  0.5269270000000  0.4373310000000  0.4981920000000 1.0
C      1  0.4620610000000  0.5311170000000  0.5621610000000 1.0
C      1  0.5097000000000  0.5167190000000  0.4368750000000 1.0
C      1  0.4301050000000  0.4675830000000  0.5110540000000 1.0
C      1  0.4985150000000  0.4453110000000  0.4505460000000 1.0
C      1  0.5555090000000  0.5258180000000  0.4638380000000 1.0
C      1  0.4732920000000  0.4585040000000  0.5569560000000 1.0
C      1  0.4516620000000  0.5320310000000  0.4367380000000 1.0
C      1  0.5548480000000  0.4871330000000  0.5342610000000 1.0
END
