TITL C-2848500-1637-302 -0.000249503357082999 125000 -497.466506328343 0 0 90 (C1) n - 1
REM
REM in /home/bkarasulu/work/CARBON/AIRSS/Generating-Clusters/AIREBO/with-SteepDescent/Only-C1/SD-CG-opt/Try1-1.4A-POS3A/HFTN-CG
REM
REM
REM
REM
REM
REM ./C.cell (11c1c37f851c82e70ff6c80c92926a4b)
REM
REM compiler GCC version 9.2.1 20190827 (Red Hat 9.2.1-1)
REM options -cpp -mtune=generic -march=x86-64 -g -O0 -fpre-include=/usr/include/finclude/math-vector-fortran.h
REM seed -1502307085 905743584 -291408395 -339580750 708579496 378692246 578161336 1812912205 -1105188523 -281387928 -170705544 1901383821 -761920678 -1021094168 1097849460 -1349897633 1865276124 1280402311 -577278634 -737634496 108665946 155313330 1679286654 -300275287 1285839872 79339739 -986446733 -279745313 517569193 222430404 -911551343 -1485111693 -1802257075
REM
CELL 1.54180   50.00000   50.00000   50.00000   90.00000   90.00000   90.00000
LATT -1
SFAC C  
C      1  0.4817790000000  0.4947000000000  0.4737600000000 1.0
C      1  0.4716190000000  0.5044840000000  0.4262380000000 1.0
C      1  0.5464190000000  0.4183910000000  0.5138790000000 1.0
C      1  0.5553930000000  0.4816300000000  0.5189980000000 1.0
C      1  0.4892730000000  0.5452140000000  0.5093720000000 1.0
C      1  0.4714570000000  0.5381090000000  0.5848920000000 1.0
C      1  0.5270250000000  0.5289700000000  0.5270170000000 1.0
C      1  0.4574900000000  0.5411760000000  0.5328190000000 1.0
C      1  0.5297480000000  0.4389000000000  0.4535980000000 1.0
C      1  0.5105370000000  0.5696570000000  0.4717040000000 1.0
C      1  0.4756730000000  0.4653150000000  0.5475390000000 1.0
C      1  0.4745430000000  0.5165120000000  0.5201090000000 1.0
C      1  0.4759200000000  0.5476990000000  0.4406410000000 1.0
C      1  0.5053090000000  0.4692370000000  0.5329030000000 1.0
C      1  0.4708280000000  0.4873980000000  0.5039790000000 1.0
C      1  0.5609460000000  0.5668390000000  0.5267300000000 1.0
C      1  0.4353650000000  0.4809270000000  0.5825450000000 1.0
C      1  0.4946410000000  0.4246560000000  0.5019250000000 1.0
C      1  0.4960990000000  0.4702850000000  0.5731210000000 1.0
C      1  0.5604200000000  0.5208850000000  0.4599900000000 1.0
C      1  0.4870760000000  0.4348720000000  0.5502110000000 1.0
C      1  0.4784720000000  0.4358000000000  0.4741690000000 1.0
C      1  0.4255900000000  0.5315900000000  0.4987780000000 1.0
C      1  0.5462490000000  0.4643900000000  0.5359560000000 1.0
C      1  0.5371210000000  0.4619990000000  0.4739510000000 1.0
C      1  0.5562110000000  0.5122600000000  0.5214970000000 1.0
C      1  0.5335580000000  0.5570120000000  0.4585110000000 1.0
C      1  0.4498590000000  0.5529600000000  0.4495520000000 1.0
C      1  0.4698450000000  0.4654030000000  0.3940680000000 1.0
C      1  0.4810390000000  0.4182950000000  0.5295340000000 1.0
C      1  0.4963580000000  0.5756960000000  0.4967570000000 1.0
C      1  0.4378140000000  0.4820800000000  0.5049380000000 1.0
C      1  0.5186660000000  0.5194480000000  0.4695280000000 1.0
C      1  0.4407410000000  0.4258260000000  0.4418100000000 1.0
C      1  0.5719900000000  0.5256750000000  0.4978970000000 1.0
C      1  0.4339290000000  0.4919870000000  0.5565050000000 1.0
C      1  0.4579020000000  0.5012540000000  0.4532800000000 1.0
C      1  0.4975600000000  0.5410950000000  0.4652700000000 1.0
C      1  0.5088300000000  0.4231870000000  0.4707940000000 1.0
C      1  0.4645250000000  0.5637360000000  0.4968660000000 1.0
C      1  0.5285360000000  0.4640880000000  0.5649890000000 1.0
C      1  0.5943090000000  0.5120430000000  0.4896290000000 1.0
C      1  0.4502300000000  0.4396360000000  0.4617590000000 1.0
C      1  0.4323700000000  0.4898560000000  0.4663000000000 1.0
C      1  0.4456230000000  0.5463470000000  0.4806290000000 1.0
C      1  0.4977620000000  0.5400900000000  0.5747380000000 1.0
C      1  0.4678200000000  0.4540480000000  0.4980350000000 1.0
C      1  0.4820690000000  0.5852880000000  0.5254780000000 1.0
C      1  0.5012370000000  0.5295830000000  0.3985210000000 1.0
C      1  0.5459780000000  0.5014410000000  0.4795500000000 1.0
C      1  0.5223140000000  0.4936850000000  0.5494310000000 1.0
C      1  0.5622650000000  0.4753240000000  0.4889640000000 1.0
C      1  0.4409470000000  0.4425100000000  0.5069560000000 1.0
C      1  0.5404590000000  0.4324870000000  0.5426010000000 1.0
C      1  0.5347160000000  0.4856100000000  0.4061570000000 1.0
C      1  0.4747060000000  0.5642020000000  0.5412900000000 1.0
C      1  0.4827780000000  0.4716390000000  0.5965710000000 1.0
C      1  0.5551880000000  0.5045600000000  0.4112550000000 1.0
C      1  0.4210540000000  0.5059420000000  0.4902400000000 1.0
C      1  0.4334060000000  0.4600220000000  0.4787960000000 1.0
C      1  0.5674680000000  0.5661590000000  0.5023660000000 1.0
C      1  0.4822180000000  0.4826580000000  0.4101130000000 1.0
C      1  0.5382630000000  0.5165370000000  0.5632880000000 1.0
C      1  0.4290760000000  0.5351050000000  0.5269640000000 1.0
C      1  0.5586000000000  0.5488990000000  0.4769790000000 1.0
C      1  0.4943060000000  0.5061080000000  0.5429260000000 1.0
C      1  0.5102860000000  0.4985590000000  0.4460170000000 1.0
C      1  0.4313590000000  0.5205010000000  0.5548110000000 1.0
C      1  0.5131780000000  0.4334140000000  0.5603910000000 1.0
C      1  0.5125640000000  0.4802950000000  0.4740540000000 1.0
C      1  0.5504890000000  0.5221630000000  0.4331890000000 1.0
C      1  0.4456690000000  0.5341860000000  0.5756310000000 1.0
C      1  0.5280760000000  0.5399730000000  0.4365580000000 1.0
C      1  0.5688640000000  0.5194160000000  0.5522370000000 1.0
C      1  0.4984440000000  0.5252630000000  0.4285790000000 1.0
C      1  0.4694590000000  0.5259890000000  0.4733470000000 1.0
C      1  0.5029120000000  0.4849580000000  0.5062920000000 1.0
C      1  0.5780680000000  0.5052770000000  0.3970420000000 1.0
C      1  0.5095940000000  0.4848070000000  0.4182520000000 1.0
C      1  0.4564730000000  0.4787630000000  0.5999620000000 1.0
C      1  0.5505150000000  0.5449710000000  0.5430050000000 1.0
C      1  0.4299010000000  0.5652130000000  0.4354410000000 1.0
C      1  0.5458800000000  0.4652110000000  0.5878240000000 1.0
C      1  0.5157530000000  0.4426790000000  0.5215910000000 1.0
C      1  0.4495300000000  0.4789730000000  0.5367140000000 1.0
C      1  0.5219190000000  0.5094160000000  0.5011780000000 1.0
C      1  0.5320190000000  0.4349160000000  0.4928770000000 1.0
C      1  0.4984320000000  0.5398420000000  0.5418820000000 1.0
C      1  0.5218310000000  0.5305080000000  0.5838730000000 1.0
C      1  0.5912680000000  0.4852940000000  0.4830960000000 1.0
END
