TITL C-2847953-8112-315 0.000225227294119683 125000 -853.940481544968 0 0 165 (C1) n - 1
REM
REM in /home/bkarasulu/work/CARBON/AIRSS/Generating-Clusters/AIREBO/with-SteepDescent/Only-C1/SD-CG-opt/Try1-1.4A-POS3A/HFTN-CG
REM
REM
REM
REM
REM
REM ./C.cell (11c1c37f851c82e70ff6c80c92926a4b)
REM
REM compiler GCC version 9.2.1 20190827 (Red Hat 9.2.1-1)
REM options -cpp -mtune=generic -march=x86-64 -g -O0 -fpre-include=/usr/include/finclude/math-vector-fortran.h
REM seed 963640187 -634819407 1745131222 -636911369 -1527333406 -1730951345 -1690471021 402161560 1768324015 1346641730 1220761909 -1336025580 1007747599 2029094558 393988896 1132043934 -2036295471 -1103100687 -1724389524 -1463498211 2055171612 -184080219 -1047565324 -2037766154 86702825 -404776125 958925995 1370172484 -1719883451 201901127 1501482401 -1590553698 -205495544
REM
CELL 1.54180   50.00000   50.00000   50.00000   90.00000   90.00000   90.00000
LATT -1
SFAC C  
C      1  0.5365970000000  0.5600020000000  0.4996460000000 1.0
C      1  0.5261390000000  0.5169360000000  0.4096690000000 1.0
C      1  0.4851130000000  0.5127080000000  0.4913160000000 1.0
C      1  0.5182860000000  0.4538680000000  0.5519150000000 1.0
C      1  0.5531710000000  0.4861080000000  0.5040210000000 1.0
C      1  0.4687870000000  0.5494250000000  0.5347840000000 1.0
C      1  0.4211100000000  0.4523750000000  0.5248650000000 1.0
C      1  0.5198600000000  0.6023370000000  0.5408920000000 1.0
C      1  0.5523440000000  0.5295650000000  0.5865600000000 1.0
C      1  0.5035090000000  0.5642150000000  0.4268460000000 1.0
C      1  0.5686310000000  0.5214670000000  0.4688230000000 1.0
C      1  0.5956870000000  0.4649190000000  0.4955530000000 1.0
C      1  0.4867950000000  0.5810050000000  0.5030070000000 1.0
C      1  0.5846210000000  0.5372830000000  0.4433180000000 1.0
C      1  0.5651770000000  0.5505220000000  0.5154990000000 1.0
C      1  0.4028640000000  0.5153060000000  0.5157460000000 1.0
C      1  0.4622010000000  0.5637700000000  0.5042670000000 1.0
C      1  0.5181640000000  0.4997900000000  0.4510630000000 1.0
C      1  0.5573010000000  0.5194960000000  0.4203180000000 1.0
C      1  0.5915420000000  0.5398770000000  0.4859460000000 1.0
C      1  0.4130750000000  0.5501690000000  0.4939830000000 1.0
C      1  0.4819830000000  0.4695960000000  0.4417770000000 1.0
C      1  0.4195260000000  0.4861700000000  0.5212740000000 1.0
C      1  0.4787400000000  0.5640450000000  0.4679490000000 1.0
C      1  0.4455030000000  0.4266100000000  0.4527140000000 1.0
C      1  0.4569680000000  0.5284330000000  0.5698000000000 1.0
C      1  0.4495210000000  0.4919500000000  0.4491160000000 1.0
C      1  0.4468440000000  0.5743540000000  0.5394970000000 1.0
C      1  0.5822660000000  0.4971510000000  0.4268780000000 1.0
C      1  0.5198600000000  0.4494350000000  0.4112730000000 1.0
C      1  0.4500310000000  0.4872380000000  0.5362820000000 1.0
C      1  0.4921330000000  0.5111840000000  0.5973630000000 1.0
C      1  0.5764110000000  0.4447870000000  0.4560410000000 1.0
C      1  0.5206300000000  0.5282320000000  0.5896660000000 1.0
C      1  0.5880510000000  0.4963680000000  0.4565720000000 1.0
C      1  0.5686170000000  0.5814230000000  0.4633340000000 1.0
C      1  0.5452360000000  0.4399800000000  0.5521550000000 1.0
C      1  0.4118720000000  0.4904660000000  0.4361970000000 1.0
C      1  0.4266980000000  0.5264780000000  0.4808460000000 1.0
C      1  0.4074620000000  0.4700610000000  0.4864070000000 1.0
C      1  0.5184700000000  0.5197120000000  0.5573760000000 1.0
C      1  0.4637420000000  0.4149790000000  0.5227790000000 1.0
C      1  0.4946720000000  0.4140480000000  0.4519140000000 1.0
C      1  0.5121080000000  0.5590280000000  0.5848870000000 1.0
C      1  0.5806470000000  0.5712150000000  0.4933840000000 1.0
C      1  0.4338230000000  0.5707440000000  0.4554280000000 1.0
C      1  0.5230880000000  0.4686760000000  0.4759940000000 1.0
C      1  0.5454850000000  0.5880830000000  0.4849640000000 1.0
C      1  0.4779840000000  0.4443530000000  0.5132610000000 1.0
C      1  0.4779580000000  0.4320210000000  0.4754580000000 1.0
C      1  0.5065490000000  0.5306850000000  0.4291350000000 1.0
C      1  0.5531830000000  0.4233860000000  0.5235600000000 1.0
C      1  0.5177650000000  0.5714770000000  0.5533550000000 1.0
C      1  0.5044440000000  0.4795220000000  0.5342400000000 1.0
C      1  0.4527810000000  0.4214640000000  0.4924890000000 1.0
C      1  0.5637550000000  0.5976710000000  0.5087860000000 1.0
C      1  0.5800320000000  0.4774810000000  0.5230030000000 1.0
C      1  0.5150490000000  0.4810610000000  0.4227960000000 1.0
C      1  0.4964800000000  0.6099140000000  0.4897400000000 1.0
C      1  0.5056810000000  0.3849740000000  0.5105790000000 1.0
C      1  0.4371480000000  0.4729420000000  0.4237740000000 1.0
C      1  0.5261730000000  0.5831780000000  0.4416520000000 1.0
C      1  0.4668370000000  0.5313400000000  0.5065500000000 1.0
C      1  0.5645320000000  0.5046930000000  0.5814350000000 1.0
C      1  0.4651490000000  0.4727660000000  0.5006920000000 1.0
C      1  0.4455990000000  0.5068460000000  0.4022470000000 1.0
C      1  0.4784700000000  0.5112260000000  0.5505400000000 1.0
C      1  0.4953280000000  0.5209520000000  0.4597580000000 1.0
C      1  0.5267530000000  0.4682510000000  0.5156650000000 1.0
C      1  0.5119410000000  0.4103550000000  0.5594730000000 1.0
C      1  0.5614770000000  0.5193060000000  0.5020050000000 1.0
C      1  0.4398190000000  0.3932070000000  0.4787210000000 1.0
C      1  0.4697680000000  0.4174370000000  0.5850720000000 1.0
C      1  0.4287220000000  0.5174970000000  0.3861930000000 1.0
C      1  0.4453560000000  0.5966810000000  0.4570680000000 1.0
C      1  0.5928380000000  0.5430450000000  0.5338180000000 1.0
C      1  0.4937500000000  0.6018310000000  0.5626810000000 1.0
C      1  0.5228690000000  0.4862080000000  0.5613750000000 1.0
C      1  0.4245360000000  0.4894900000000  0.5685030000000 1.0
C      1  0.5098450000000  0.4937040000000  0.6172710000000 1.0
C      1  0.5639330000000  0.4554180000000  0.5676820000000 1.0
C      1  0.4841010000000  0.5429310000000  0.5952010000000 1.0
C      1  0.4333030000000  0.5508090000000  0.5600340000000 1.0
C      1  0.5128040000000  0.4948110000000  0.3931650000000 1.0
C      1  0.5657430000000  0.5512490000000  0.4263580000000 1.0
C      1  0.4858640000000  0.3916690000000  0.4837290000000 1.0
C      1  0.4702680000000  0.4949190000000  0.4223270000000 1.0
C      1  0.4853770000000  0.4826610000000  0.3962550000000 1.0
C      1  0.5520650000000  0.5943440000000  0.5347660000000 1.0
C      1  0.5360560000000  0.4398900000000  0.5035700000000 1.0
C      1  0.6065980000000  0.5235480000000  0.5018090000000 1.0
C      1  0.4407050000000  0.5236850000000  0.5228700000000 1.0
C      1  0.4069210000000  0.5119450000000  0.4591790000000 1.0
C      1  0.5156590000000  0.5266160000000  0.4934180000000 1.0
C      1  0.4310310000000  0.4495570000000  0.4729290000000 1.0
C      1  0.4737270000000  0.4930100000000  0.5788830000000 1.0
C      1  0.4488060000000  0.5502260000000  0.4763660000000 1.0
C      1  0.5722550000000  0.4334370000000  0.4878250000000 1.0
C      1  0.5276000000000  0.5530950000000  0.5317020000000 1.0
C      1  0.5441590000000  0.4349790000000  0.4514360000000 1.0
C      1  0.5275630000000  0.4020930000000  0.5304210000000 1.0
C      1  0.4077170000000  0.5355250000000  0.5426790000000 1.0
C      1  0.4748570000000  0.5957400000000  0.4676490000000 1.0
C      1  0.4602750000000  0.4631800000000  0.4003180000000 1.0
C      1  0.4986930000000  0.6110140000000  0.4501730000000 1.0
C      1  0.4431880000000  0.4432460000000  0.5465690000000 1.0
C      1  0.5225860000000  0.6013910000000  0.4694980000000 1.0
C      1  0.4920210000000  0.5410120000000  0.5553910000000 1.0
C      1  0.4562610000000  0.4654710000000  0.5545630000000 1.0
C      1  0.4809380000000  0.4385710000000  0.5936370000000 1.0
C      1  0.4871450000000  0.5721700000000  0.5681230000000 1.0
C      1  0.4431750000000  0.5453020000000  0.4349370000000 1.0
C      1  0.5188160000000  0.4256620000000  0.4309580000000 1.0
C      1  0.4607690000000  0.5993800000000  0.5321120000000 1.0
C      1  0.4897740000000  0.4353770000000  0.5532490000000 1.0
C      1  0.5808540000000  0.4437020000000  0.5190770000000 1.0
C      1  0.5618390000000  0.5692690000000  0.5436900000000 1.0
C      1  0.5296550000000  0.4989580000000  0.4827870000000 1.0
C      1  0.4541450000000  0.4444350000000  0.4280170000000 1.0
C      1  0.4760000000000  0.5548760000000  0.4380890000000 1.0
C      1  0.4803010000000  0.4625730000000  0.4721760000000 1.0
C      1  0.4378200000000  0.5016000000000  0.4971190000000 1.0
C      1  0.5039540000000  0.5583820000000  0.4902490000000 1.0
C      1  0.4132960000000  0.5415280000000  0.4465400000000 1.0
C      1  0.5785020000000  0.5144700000000  0.5453920000000 1.0
C      1  0.4862650000000  0.4385890000000  0.4299350000000 1.0
C      1  0.4787490000000  0.4958060000000  0.5202160000000 1.0
C      1  0.5709920000000  0.4838720000000  0.5553170000000 1.0
C      1  0.5338950000000  0.4179560000000  0.4776810000000 1.0
C      1  0.4438070000000  0.4885830000000  0.5886670000000 1.0
C      1  0.5029670000000  0.4197160000000  0.4917030000000 1.0
C      1  0.4164580000000  0.4049740000000  0.4924920000000 1.0
C      1  0.5136890000000  0.4605080000000  0.4489960000000 1.0
C      1  0.5259370000000  0.5499770000000  0.4490170000000 1.0
C      1  0.4384900000000  0.5121420000000  0.5513640000000 1.0
C      1  0.5416280000000  0.5070320000000  0.5267370000000 1.0
C      1  0.4783970000000  0.3869560000000  0.5225430000000 1.0
C      1  0.5464160000000  0.4680090000000  0.4435900000000 1.0
C      1  0.4265210000000  0.5540760000000  0.5212710000000 1.0
C      1  0.5399570000000  0.5393040000000  0.4728780000000 1.0
C      1  0.5494120000000  0.5021310000000  0.4484760000000 1.0
C      1  0.5563050000000  0.5739000000000  0.4387620000000 1.0
C      1  0.5698560000000  0.4721440000000  0.4218060000000 1.0
C      1  0.5297750000000  0.4795420000000  0.6104510000000 1.0
C      1  0.5610720000000  0.5535080000000  0.5695150000000 1.0
C      1  0.5491050000000  0.5315150000000  0.5468030000000 1.0
C      1  0.5596550000000  0.4040880000000  0.4963140000000 1.0
C      1  0.4102510000000  0.4721800000000  0.5508500000000 1.0
C      1  0.5021010000000  0.4591790000000  0.4969390000000 1.0
C      1  0.4605310000000  0.4180640000000  0.5547090000000 1.0
C      1  0.4913210000000  0.6057010000000  0.5231890000000 1.0
C      1  0.5025820000000  0.4238790000000  0.5233710000000 1.0
C      1  0.5985500000000  0.5058760000000  0.5202920000000 1.0
C      1  0.4536640000000  0.5552900000000  0.5875690000000 1.0
C      1  0.3991650000000  0.4965300000000  0.4884840000000 1.0
C      1  0.4829700000000  0.4625190000000  0.5725990000000 1.0
C      1  0.5436230000000  0.4814200000000  0.5842160000000 1.0
C      1  0.4446380000000  0.4798880000000  0.4755380000000 1.0
C      1  0.4647320000000  0.3989540000000  0.4576190000000 1.0
C      1  0.5528530000000  0.4594450000000  0.4837710000000 1.0
C      1  0.4230230000000  0.4357070000000  0.5009910000000 1.0
C      1  0.5152430000000  0.3913090000000  0.4666080000000 1.0
C      1  0.5122370000000  0.5172380000000  0.5240440000000 1.0
C      1  0.4671450000000  0.5223090000000  0.4422460000000 1.0
C      1  0.5889730000000  0.4699030000000  0.4687200000000 1.0
END
