TITL C-2848508-1660-157 -0.00106946855794494 125000 -1006.42764958513 0 0 192 (C1) n - 1
REM
REM in /home/bkarasulu/work/CARBON/AIRSS/Generating-Clusters/AIREBO/with-SteepDescent/Only-C1/SD-CG-opt/Try1-1.4A-POS3A/HFTN-CG
REM
REM
REM
REM
REM
REM ./C.cell (11c1c37f851c82e70ff6c80c92926a4b)
REM
REM compiler GCC version 9.2.1 20190827 (Red Hat 9.2.1-1)
REM options -cpp -mtune=generic -march=x86-64 -g -O0 -fpre-include=/usr/include/finclude/math-vector-fortran.h
REM seed -295830749 -246148731 589666281 -186895030 -524637887 -337227078 -894611595 -1662700422 -1790387476 -300784960 -422720716 1132055322 177921406 1713365010 1233136891 -733859281 952488001 1933500229 -77692449 1149919496 -801850380 -751424825 -1484763046 -399937426 1603972673 865531216 -1445446169 -1182608502 1219814351 -1375828867 143123385 -856261974 1775821437
REM
CELL 1.54180   50.00000   50.00000   50.00000   90.00000   90.00000   90.00000
LATT -1
SFAC C  
C      1  0.6059070000000  0.4923600000000  0.5471600000000 1.0
C      1  0.4421770000000  0.4921300000000  0.5571260000000 1.0
C      1  0.4570950000000  0.4418770000000  0.5592830000000 1.0
C      1  0.5138370000000  0.5075260000000  0.5630450000000 1.0
C      1  0.5071950000000  0.4639510000000  0.6187020000000 1.0
C      1  0.4871290000000  0.4787300000000  0.5186870000000 1.0
C      1  0.5688310000000  0.5646340000000  0.5570060000000 1.0
C      1  0.4339440000000  0.5912230000000  0.4860860000000 1.0
C      1  0.5238130000000  0.4206160000000  0.5559550000000 1.0
C      1  0.5269570000000  0.4678650000000  0.4077830000000 1.0
C      1  0.5493440000000  0.5881650000000  0.5432750000000 1.0
C      1  0.4282830000000  0.5292480000000  0.5629550000000 1.0
C      1  0.5309930000000  0.4321650000000  0.4537890000000 1.0
C      1  0.5605020000000  0.4200130000000  0.4624380000000 1.0
C      1  0.5278450000000  0.4655970000000  0.4808720000000 1.0
C      1  0.4911330000000  0.5052270000000  0.4230180000000 1.0
C      1  0.6032220000000  0.5378400000000  0.5309390000000 1.0
C      1  0.4825830000000  0.4608140000000  0.4672260000000 1.0
C      1  0.4561440000000  0.4615950000000  0.4230060000000 1.0
C      1  0.5013260000000  0.4446350000000  0.4065200000000 1.0
C      1  0.5260780000000  0.6023540000000  0.4810400000000 1.0
C      1  0.4423110000000  0.3992020000000  0.4944560000000 1.0
C      1  0.5974400000000  0.4638120000000  0.4970300000000 1.0
C      1  0.4982950000000  0.5929370000000  0.4980880000000 1.0
C      1  0.4102170000000  0.5355250000000  0.5381000000000 1.0
C      1  0.5225390000000  0.5539150000000  0.5424310000000 1.0
C      1  0.5248930000000  0.5073660000000  0.4178460000000 1.0
C      1  0.4900010000000  0.4900320000000  0.5567220000000 1.0
C      1  0.4036520000000  0.5181830000000  0.4796820000000 1.0
C      1  0.5701910000000  0.4690770000000  0.4215410000000 1.0
C      1  0.3938410000000  0.4929710000000  0.4497810000000 1.0
C      1  0.4403290000000  0.5882500000000  0.5314070000000 1.0
C      1  0.5092670000000  0.4569770000000  0.5079720000000 1.0
C      1  0.4012340000000  0.4906350000000  0.5083560000000 1.0
C      1  0.4773340000000  0.5298170000000  0.4089910000000 1.0
C      1  0.4650960000000  0.4709770000000  0.5435590000000 1.0
C      1  0.4933660000000  0.3969960000000  0.4749230000000 1.0
C      1  0.5669150000000  0.4667590000000  0.5676280000000 1.0
C      1  0.5017870000000  0.5715160000000  0.4719000000000 1.0
C      1  0.5339700000000  0.4353880000000  0.4042670000000 1.0
C      1  0.4498040000000  0.4535830000000  0.5905310000000 1.0
C      1  0.4171690000000  0.4954140000000  0.4289350000000 1.0
C      1  0.4484670000000  0.5134990000000  0.4818250000000 1.0
C      1  0.4554600000000  0.4713390000000  0.4524470000000 1.0
C      1  0.4887000000000  0.4237980000000  0.4280100000000 1.0
C      1  0.4299530000000  0.4624500000000  0.4723660000000 1.0
C      1  0.5654200000000  0.5204470000000  0.5824840000000 1.0
C      1  0.4961070000000  0.5077130000000  0.5167270000000 1.0
C      1  0.4876630000000  0.5956910000000  0.5732370000000 1.0
C      1  0.5186770000000  0.4375080000000  0.5917950000000 1.0
C      1  0.4270950000000  0.5143920000000  0.4553420000000 1.0
C      1  0.5685530000000  0.4193760000000  0.4957670000000 1.0
C      1  0.4848050000000  0.4740340000000  0.4110390000000 1.0
C      1  0.4223160000000  0.4631540000000  0.5275090000000 1.0
C      1  0.5503630000000  0.4881910000000  0.4059530000000 1.0
C      1  0.6033190000000  0.4864330000000  0.4719360000000 1.0
C      1  0.4437160000000  0.4466900000000  0.4981170000000 1.0
C      1  0.5218800000000  0.4975940000000  0.4850200000000 1.0
C      1  0.5204030000000  0.5491150000000  0.4188020000000 1.0
C      1  0.5509270000000  0.5232430000000  0.4946360000000 1.0
C      1  0.4608370000000  0.5651230000000  0.5317660000000 1.0
C      1  0.5839560000000  0.4408760000000  0.4755080000000 1.0
C      1  0.5994400000000  0.5567470000000  0.5505290000000 1.0
C      1  0.5352540000000  0.4822950000000  0.6246540000000 1.0
C      1  0.5183370000000  0.5287320000000  0.5880210000000 1.0
C      1  0.5353750000000  0.4809090000000  0.4514260000000 1.0
C      1  0.5103440000000  0.5352450000000  0.4917190000000 1.0
C      1  0.4948330000000  0.4886480000000  0.4759800000000 1.0
C      1  0.5153530000000  0.4581280000000  0.5381300000000 1.0
C      1  0.5825190000000  0.4525720000000  0.5447150000000 1.0
C      1  0.4738660000000  0.3895340000000  0.5026500000000 1.0
C      1  0.4294100000000  0.5217960000000  0.4162910000000 1.0
C      1  0.6153750000000  0.5439650000000  0.5066190000000 1.0
C      1  0.5858690000000  0.5059230000000  0.5626350000000 1.0
C      1  0.4219790000000  0.5611710000000  0.5253380000000 1.0
C      1  0.4771950000000  0.4331330000000  0.5332800000000 1.0
C      1  0.4092910000000  0.4619260000000  0.5587240000000 1.0
C      1  0.4683560000000  0.4101930000000  0.5644330000000 1.0
C      1  0.4556520000000  0.5729620000000  0.4669400000000 1.0
C      1  0.4656030000000  0.5926740000000  0.4923840000000 1.0
C      1  0.5030980000000  0.5724900000000  0.5217790000000 1.0
C      1  0.5507450000000  0.5089680000000  0.4399010000000 1.0
C      1  0.4105870000000  0.4468290000000  0.4285540000000 1.0
C      1  0.4254410000000  0.4754440000000  0.5815820000000 1.0
C      1  0.4672870000000  0.5231040000000  0.5813840000000 1.0
C      1  0.4773660000000  0.4327480000000  0.4816110000000 1.0
C      1  0.4939790000000  0.5882290000000  0.4446080000000 1.0
C      1  0.5445550000000  0.4917640000000  0.5058120000000 1.0
C      1  0.4989990000000  0.5278990000000  0.6167740000000 1.0
C      1  0.4975580000000  0.4012450000000  0.5206030000000 1.0
C      1  0.4937960000000  0.6017460000000  0.5473540000000 1.0
C      1  0.5609080000000  0.4598340000000  0.4591980000000 1.0
C      1  0.5376650000000  0.6050060000000  0.4333700000000 1.0
C      1  0.4598610000000  0.5466500000000  0.5032360000000 1.0
C      1  0.5904550000000  0.5745670000000  0.5022010000000 1.0
C      1  0.4597820000000  0.4309530000000  0.4262120000000 1.0
C      1  0.4604510000000  0.3971160000000  0.5340150000000 1.0
C      1  0.4446180000000  0.4191670000000  0.4466110000000 1.0
C      1  0.4910460000000  0.5292530000000  0.5499850000000 1.0
C      1  0.4664680000000  0.4684650000000  0.4959070000000 1.0
C      1  0.5546610000000  0.5461930000000  0.5765090000000 1.0
C      1  0.4916140000000  0.3962600000000  0.4436950000000 1.0
C      1  0.3817520000000  0.5163110000000  0.5032340000000 1.0
C      1  0.4848460000000  0.4665340000000  0.5778880000000 1.0
C      1  0.5237430000000  0.4118020000000  0.4796480000000 1.0
C      1  0.5163850000000  0.6060930000000  0.4505920000000 1.0
C      1  0.4033090000000  0.4570630000000  0.5032700000000 1.0
C      1  0.5918240000000  0.5471410000000  0.4839060000000 1.0
C      1  0.4618720000000  0.4088630000000  0.4699370000000 1.0
C      1  0.5585680000000  0.5077790000000  0.5450110000000 1.0
C      1  0.4186330000000  0.5083320000000  0.5848690000000 1.0
C      1  0.5678750000000  0.5587860000000  0.5235230000000 1.0
C      1  0.5425460000000  0.4904190000000  0.5694930000000 1.0
C      1  0.4780400000000  0.5006430000000  0.6124750000000 1.0
C      1  0.4947240000000  0.5661320000000  0.5811250000000 1.0
C      1  0.5652990000000  0.4830630000000  0.4836470000000 1.0
C      1  0.4638040000000  0.5018240000000  0.4551900000000 1.0
C      1  0.5410090000000  0.4162840000000  0.5305610000000 1.0
C      1  0.3684000000000  0.4923890000000  0.4449580000000 1.0
C      1  0.4533310000000  0.5155760000000  0.5154230000000 1.0
C      1  0.5354920000000  0.5736310000000  0.4661660000000 1.0
C      1  0.4167300000000  0.5016490000000  0.5365950000000 1.0
C      1  0.5539220000000  0.5787340000000  0.4380460000000 1.0
C      1  0.4838730000000  0.5264640000000  0.4485670000000 1.0
C      1  0.5452730000000  0.4355510000000  0.5749710000000 1.0
C      1  0.5160500000000  0.5173120000000  0.3865480000000 1.0
C      1  0.4621480000000  0.4909050000000  0.5848480000000 1.0
C      1  0.4905590000000  0.5536630000000  0.4124630000000 1.0
C      1  0.4778620000000  0.4577790000000  0.6092820000000 1.0
C      1  0.4445080000000  0.5546890000000  0.5727370000000 1.0
C      1  0.5648980000000  0.5919110000000  0.5162170000000 1.0
C      1  0.5870550000000  0.5063290000000  0.4952980000000 1.0
C      1  0.5162500000000  0.5286080000000  0.4429630000000 1.0
C      1  0.4770700000000  0.5481340000000  0.4739060000000 1.0
C      1  0.5217830000000  0.5935710000000  0.5407480000000 1.0
C      1  0.4198250000000  0.4308930000000  0.4500060000000 1.0
C      1  0.5793670000000  0.5349970000000  0.4285780000000 1.0
C      1  0.4956360000000  0.6226610000000  0.5133510000000 1.0
C      1  0.5532020000000  0.4425340000000  0.4302120000000 1.0
C      1  0.3812520000000  0.5323060000000  0.5258190000000 1.0
C      1  0.4580570000000  0.5210000000000  0.5487270000000 1.0
C      1  0.4722860000000  0.4960370000000  0.3883300000000 1.0
C      1  0.4280560000000  0.4380350000000  0.5478860000000 1.0
C      1  0.5408480000000  0.4386670000000  0.4916870000000 1.0
C      1  0.4462890000000  0.4827120000000  0.5177730000000 1.0
C      1  0.5866360000000  0.4776120000000  0.4458550000000 1.0
C      1  0.5096990000000  0.4995220000000  0.6018670000000 1.0
C      1  0.5280280000000  0.5236040000000  0.4692830000000 1.0
C      1  0.5496450000000  0.4999570000000  0.6013600000000 1.0
C      1  0.4149740000000  0.5473560000000  0.4716240000000 1.0
C      1  0.4932760000000  0.4310550000000  0.5057830000000 1.0
C      1  0.5683460000000  0.4311140000000  0.5274010000000 1.0
C      1  0.4259360000000  0.4682180000000  0.4205250000000 1.0
C      1  0.4810720000000  0.5413670000000  0.5947000000000 1.0
C      1  0.4095410000000  0.4849380000000  0.4756480000000 1.0
C      1  0.4148730000000  0.4049900000000  0.4886940000000 1.0
C      1  0.5555100000000  0.4787760000000  0.5312450000000 1.0
C      1  0.5261900000000  0.5250370000000  0.5179070000000 1.0
C      1  0.5424200000000  0.4565150000000  0.5483510000000 1.0
C      1  0.5616620000000  0.5184110000000  0.4071910000000 1.0
C      1  0.5038540000000  0.4440490000000  0.4466260000000 1.0
C      1  0.5653110000000  0.4577020000000  0.5064210000000 1.0
C      1  0.4515970000000  0.5177420000000  0.3997580000000 1.0
C      1  0.4728860000000  0.5566650000000  0.5586960000000 1.0
C      1  0.4947690000000  0.5068920000000  0.3741950000000 1.0
C      1  0.4099400000000  0.4359980000000  0.4798810000000 1.0
C      1  0.5585610000000  0.5542780000000  0.4830010000000 1.0
C      1  0.5965940000000  0.5191040000000  0.4652580000000 1.0
C      1  0.5251330000000  0.4074250000000  0.5106590000000 1.0
C      1  0.5399030000000  0.5375920000000  0.3941850000000 1.0
C      1  0.4969810000000  0.4413650000000  0.5585170000000 1.0
C      1  0.5538390000000  0.5555330000000  0.4194860000000 1.0
C      1  0.4899260000000  0.5413420000000  0.5182190000000 1.0
C      1  0.5381140000000  0.5563850000000  0.5123000000000 1.0
C      1  0.5227230000000  0.4711760000000  0.5893260000000 1.0
C      1  0.6085930000000  0.5303740000000  0.4375690000000 1.0
C      1  0.5999650000000  0.4693660000000  0.5305180000000 1.0
C      1  0.5498730000000  0.6122170000000  0.4982350000000 1.0
C      1  0.5092140000000  0.4718830000000  0.4346430000000 1.0
C      1  0.4975750000000  0.4019220000000  0.5506920000000 1.0
C      1  0.5651650000000  0.5318120000000  0.4583200000000 1.0
C      1  0.5735260000000  0.5254160000000  0.5199920000000 1.0
C      1  0.4701260000000  0.6031490000000  0.5245220000000 1.0
C      1  0.5749790000000  0.5762090000000  0.4628550000000 1.0
C      1  0.4937670000000  0.4200450000000  0.5848220000000 1.0
C      1  0.4295510000000  0.5453260000000  0.4408350000000 1.0
C      1  0.4543350000000  0.4229170000000  0.5127280000000 1.0
C      1  0.4772640000000  0.5741880000000  0.4264350000000 1.0
C      1  0.4511230000000  0.5680050000000  0.4372650000000 1.0
C      1  0.4297330000000  0.5599740000000  0.4943680000000 1.0
C      1  0.4818080000000  0.5172580000000  0.4873890000000 1.0
C      1  0.5236160000000  0.5553760000000  0.5726610000000 1.0
END
