TITL C-2847944-5688-526 -0.00125714762083391 125000 -1044.7387188906 0 0 191 (C1) n - 1
REM
REM in /home/bkarasulu/work/CARBON/AIRSS/Generating-Clusters/AIREBO/with-SteepDescent/Only-C1/SD-CG-opt/Try1-1.4A-POS3A/HFTN-CG
REM
REM
REM
REM
REM
REM ./C.cell (11c1c37f851c82e70ff6c80c92926a4b)
REM
REM compiler GCC version 9.2.1 20190827 (Red Hat 9.2.1-1)
REM options -cpp -mtune=generic -march=x86-64 -g -O0 -fpre-include=/usr/include/finclude/math-vector-fortran.h
REM seed 344217776 -1110887288 -1523347558 -280535894 127037421 160836232 1085590249 -1413333222 317198304 282421722 -95110737 -1957354386 -831059170 -2056375154 405044611 1195551097 -1564234315 40452353 -461465491 1679094304 1662129003 -1575688175 2005280463 -1552101145 1165286517 2115769078 2099501879 780263669 -2124695111 -572207274 -1475576346 -2112371957 519094942
REM
CELL 1.54180   50.00000   50.00000   50.00000   90.00000   90.00000   90.00000
LATT -1
SFAC C  
C      1  0.5343980000000  0.4693670000000  0.6076190000000 1.0
C      1  0.5140110000000  0.4716840000000  0.4367750000000 1.0
C      1  0.5230550000000  0.6167930000000  0.4793650000000 1.0
C      1  0.5411570000000  0.5487880000000  0.4176390000000 1.0
C      1  0.5744090000000  0.4890160000000  0.4083470000000 1.0
C      1  0.4629180000000  0.4902970000000  0.4895040000000 1.0
C      1  0.5037660000000  0.5564100000000  0.5295200000000 1.0
C      1  0.4337960000000  0.4827680000000  0.4109880000000 1.0
C      1  0.4537820000000  0.5458620000000  0.4086620000000 1.0
C      1  0.5416200000000  0.5005190000000  0.4360160000000 1.0
C      1  0.4669190000000  0.4667870000000  0.6080720000000 1.0
C      1  0.5431700000000  0.5253930000000  0.6006160000000 1.0
C      1  0.5118200000000  0.4520080000000  0.6065460000000 1.0
C      1  0.4749750000000  0.5393310000000  0.5379620000000 1.0
C      1  0.6158630000000  0.4661680000000  0.4947720000000 1.0
C      1  0.4945890000000  0.4747390000000  0.5186930000000 1.0
C      1  0.5042030000000  0.4465330000000  0.5753670000000 1.0
C      1  0.4667360000000  0.5002850000000  0.6050960000000 1.0
C      1  0.5093100000000  0.4013770000000  0.5070080000000 1.0
C      1  0.4958170000000  0.4971430000000  0.4931380000000 1.0
C      1  0.5387500000000  0.5954830000000  0.4587450000000 1.0
C      1  0.5805510000000  0.5843180000000  0.4976070000000 1.0
C      1  0.4282170000000  0.5608820000000  0.4475010000000 1.0
C      1  0.5844720000000  0.5018790000000  0.5047990000000 1.0
C      1  0.5421530000000  0.5286980000000  0.3902200000000 1.0
C      1  0.5188890000000  0.5247120000000  0.5504590000000 1.0
C      1  0.5122180000000  0.5846270000000  0.5110990000000 1.0
C      1  0.4560280000000  0.4931350000000  0.4331010000000 1.0
C      1  0.5524820000000  0.4647350000000  0.4664080000000 1.0
C      1  0.4850430000000  0.5486620000000  0.4034160000000 1.0
C      1  0.5130920000000  0.4217380000000  0.4565350000000 1.0
C      1  0.4575370000000  0.4224300000000  0.5730360000000 1.0
C      1  0.4325580000000  0.5938580000000  0.4823630000000 1.0
C      1  0.4863340000000  0.5812630000000  0.5769580000000 1.0
C      1  0.4006150000000  0.4535570000000  0.4868550000000 1.0
C      1  0.5129550000000  0.5482440000000  0.4458360000000 1.0
C      1  0.4899420000000  0.4234740000000  0.5241470000000 1.0
C      1  0.4493060000000  0.5238550000000  0.4548830000000 1.0
C      1  0.5924500000000  0.4997340000000  0.4566790000000 1.0
C      1  0.4763560000000  0.4502910000000  0.4134500000000 1.0
C      1  0.4782040000000  0.5271030000000  0.4472610000000 1.0
C      1  0.4928610000000  0.6057840000000  0.5296390000000 1.0
C      1  0.5519080000000  0.5026510000000  0.3974900000000 1.0
C      1  0.4638100000000  0.4686360000000  0.5624260000000 1.0
C      1  0.3925970000000  0.4699850000000  0.4581450000000 1.0
C      1  0.4498010000000  0.5281340000000  0.5946670000000 1.0
C      1  0.5561050000000  0.5793810000000  0.4768760000000 1.0
C      1  0.6146580000000  0.5126440000000  0.5008020000000 1.0
C      1  0.5400200000000  0.5673900000000  0.5017790000000 1.0
C      1  0.6193560000000  0.4632850000000  0.5222630000000 1.0
C      1  0.4265390000000  0.4805300000000  0.5453760000000 1.0
C      1  0.4464350000000  0.5217280000000  0.5441870000000 1.0
C      1  0.5770140000000  0.4599610000000  0.5198280000000 1.0
C      1  0.6005690000000  0.5274590000000  0.5452540000000 1.0
C      1  0.4077240000000  0.5533960000000  0.5351610000000 1.0
C      1  0.4505210000000  0.5197400000000  0.4942640000000 1.0
C      1  0.4644450000000  0.5872230000000  0.4350690000000 1.0
C      1  0.4258440000000  0.4648130000000  0.5028710000000 1.0
C      1  0.6150920000000  0.4123420000000  0.5494890000000 1.0
C      1  0.5305700000000  0.6132300000000  0.5098020000000 1.0
C      1  0.6140510000000  0.4904600000000  0.4807440000000 1.0
C      1  0.4829310000000  0.4932450000000  0.3974310000000 1.0
C      1  0.5425570000000  0.5814690000000  0.4279930000000 1.0
C      1  0.4401410000000  0.5003780000000  0.5677310000000 1.0
C      1  0.5995160000000  0.5331230000000  0.4589720000000 1.0
C      1  0.4888650000000  0.4562260000000  0.6224600000000 1.0
C      1  0.5395820000000  0.4314840000000  0.5381200000000 1.0
C      1  0.5071330000000  0.4860310000000  0.3863600000000 1.0
C      1  0.5281600000000  0.4850540000000  0.4088840000000 1.0
C      1  0.5924010000000  0.5518910000000  0.5146820000000 1.0
C      1  0.5682020000000  0.5384480000000  0.4295070000000 1.0
C      1  0.5157150000000  0.5508840000000  0.3951500000000 1.0
C      1  0.4003520000000  0.4970300000000  0.5369150000000 1.0
C      1  0.4601840000000  0.4274750000000  0.5081300000000 1.0
C      1  0.5123320000000  0.5763290000000  0.4174480000000 1.0
C      1  0.5568310000000  0.4632920000000  0.5833510000000 1.0
C      1  0.4851310000000  0.5159510000000  0.5167420000000 1.0
C      1  0.4959790000000  0.5230990000000  0.4731780000000 1.0
C      1  0.5747180000000  0.5768270000000  0.5295780000000 1.0
C      1  0.5358900000000  0.3961330000000  0.4910910000000 1.0
C      1  0.5149090000000  0.5468900000000  0.4989240000000 1.0
C      1  0.5105890000000  0.5802340000000  0.4512320000000 1.0
C      1  0.4879330000000  0.4199790000000  0.4363630000000 1.0
C      1  0.4473310000000  0.4219270000000  0.4773870000000 1.0
C      1  0.3926490000000  0.4295250000000  0.4964120000000 1.0
C      1  0.5006680000000  0.4785830000000  0.5741510000000 1.0
C      1  0.4064390000000  0.4641880000000  0.5886400000000 1.0
C      1  0.5663050000000  0.4279290000000  0.4482840000000 1.0
C      1  0.5334510000000  0.3987580000000  0.4629520000000 1.0
C      1  0.4849870000000  0.4814940000000  0.4430430000000 1.0
C      1  0.5867180000000  0.5541180000000  0.4812250000000 1.0
C      1  0.5055010000000  0.4586360000000  0.4907580000000 1.0
C      1  0.4393910000000  0.4551770000000  0.5325630000000 1.0
C      1  0.5962140000000  0.4450160000000  0.4847740000000 1.0
C      1  0.5511380000000  0.5720370000000  0.5447880000000 1.0
C      1  0.5590950000000  0.4490960000000  0.4303260000000 1.0
C      1  0.5622520000000  0.5301830000000  0.5775910000000 1.0
C      1  0.5761690000000  0.5021230000000  0.5642690000000 1.0
C      1  0.4395550000000  0.5161440000000  0.4140790000000 1.0
C      1  0.5558090000000  0.5465190000000  0.4704210000000 1.0
C      1  0.3997170000000  0.5450670000000  0.4698370000000 1.0
C      1  0.4100080000000  0.4127660000000  0.5089880000000 1.0
C      1  0.4624210000000  0.5976560000000  0.4673670000000 1.0
C      1  0.4979000000000  0.5859870000000  0.4813890000000 1.0
C      1  0.4231200000000  0.4290030000000  0.4353730000000 1.0
C      1  0.4064010000000  0.4727070000000  0.4279510000000 1.0
C      1  0.5605390000000  0.5453680000000  0.5100150000000 1.0
C      1  0.4182790000000  0.4947530000000  0.5091620000000 1.0
C      1  0.4643170000000  0.4719640000000  0.4005220000000 1.0
C      1  0.4449440000000  0.3891870000000  0.5404940000000 1.0
C      1  0.4775000000000  0.5780060000000  0.5295530000000 1.0
C      1  0.4559650000000  0.3925520000000  0.5631170000000 1.0
C      1  0.4724220000000  0.4579680000000  0.5335900000000 1.0
C      1  0.5317880000000  0.4478050000000  0.4224760000000 1.0
C      1  0.5021920000000  0.5933830000000  0.5588660000000 1.0
C      1  0.4050230000000  0.5270790000000  0.5506030000000 1.0
C      1  0.5347250000000  0.4427000000000  0.5682610000000 1.0
C      1  0.5287930000000  0.4974390000000  0.4938330000000 1.0
C      1  0.4088010000000  0.4419570000000  0.5727140000000 1.0
C      1  0.4319120000000  0.4318500000000  0.5541310000000 1.0
C      1  0.5635820000000  0.4361790000000  0.4811570000000 1.0
C      1  0.4308570000000  0.5221220000000  0.5190390000000 1.0
C      1  0.5511480000000  0.5183220000000  0.5194820000000 1.0
C      1  0.3962250000000  0.5344700000000  0.4394780000000 1.0
C      1  0.5952540000000  0.5437410000000  0.4331700000000 1.0
C      1  0.5770410000000  0.4730150000000  0.4884250000000 1.0
C      1  0.5684620000000  0.4801420000000  0.4406360000000 1.0
C      1  0.4766240000000  0.5667640000000  0.4671900000000 1.0
C      1  0.5173230000000  0.5200950000000  0.5179670000000 1.0
C      1  0.4132800000000  0.4894260000000  0.5854840000000 1.0
C      1  0.6003720000000  0.4296110000000  0.5341430000000 1.0
C      1  0.4461700000000  0.4938190000000  0.4637380000000 1.0
C      1  0.4578050000000  0.4574200000000  0.4938790000000 1.0
C      1  0.5296870000000  0.5936160000000  0.5388580000000 1.0
C      1  0.5624310000000  0.4076400000000  0.4998340000000 1.0
C      1  0.5216300000000  0.4516070000000  0.4625760000000 1.0
C      1  0.6157220000000  0.5332000000000  0.5199150000000 1.0
C      1  0.4318540000000  0.5954910000000  0.5096310000000 1.0
C      1  0.4362560000000  0.4156760000000  0.5251710000000 1.0
C      1  0.4188870000000  0.5231290000000  0.5814150000000 1.0
C      1  0.5934150000000  0.5376680000000  0.5694850000000 1.0
C      1  0.5319830000000  0.4823830000000  0.5701390000000 1.0
C      1  0.5631350000000  0.5169320000000  0.4553480000000 1.0
C      1  0.5778160000000  0.5078930000000  0.5340100000000 1.0
C      1  0.4581400000000  0.5648080000000  0.5541920000000 1.0
C      1  0.5258540000000  0.5465370000000  0.6071760000000 1.0
C      1  0.5948360000000  0.4600640000000  0.5456330000000 1.0
C      1  0.4620000000000  0.4521250000000  0.5843200000000 1.0
C      1  0.5169440000000  0.4397490000000  0.5143060000000 1.0
C      1  0.5424660000000  0.5450650000000  0.5576360000000 1.0
C      1  0.4806930000000  0.4610760000000  0.4689870000000 1.0
C      1  0.4739610000000  0.4996110000000  0.5721070000000 1.0
C      1  0.4819570000000  0.5574690000000  0.4353140000000 1.0
C      1  0.4292140000000  0.5545140000000  0.5088230000000 1.0
C      1  0.4702450000000  0.4996410000000  0.5383080000000 1.0
C      1  0.4728060000000  0.5426400000000  0.4837150000000 1.0
C      1  0.5206970000000  0.5232190000000  0.4268750000000 1.0
C      1  0.4914800000000  0.5089730000000  0.4244090000000 1.0
C      1  0.4898020000000  0.6171570000000  0.4736440000000 1.0
C      1  0.5469370000000  0.4531320000000  0.5055030000000 1.0
C      1  0.5477370000000  0.4844880000000  0.5186790000000 1.0
C      1  0.4074960000000  0.5213630000000  0.4212740000000 1.0
C      1  0.4977940000000  0.4008650000000  0.4804170000000 1.0
C      1  0.4329750000000  0.5429140000000  0.4766020000000 1.0
C      1  0.4970290000000  0.5438160000000  0.5937290000000 1.0
C      1  0.5806710000000  0.4744530000000  0.5685740000000 1.0
C      1  0.3904640000000  0.5222240000000  0.5173040000000 1.0
C      1  0.5265980000000  0.5357190000000  0.4716870000000 1.0
C      1  0.4128680000000  0.5764470000000  0.4697330000000 1.0
C      1  0.5573950000000  0.4108680000000  0.5313530000000 1.0
C      1  0.5268250000000  0.4997650000000  0.5989160000000 1.0
C      1  0.4808660000000  0.3974390000000  0.4575040000000 1.0
C      1  0.4364190000000  0.5762850000000  0.5339440000000 1.0
C      1  0.5031410000000  0.4946320000000  0.5452940000000 1.0
C      1  0.4837790000000  0.4346890000000  0.5556590000000 1.0
C      1  0.4541440000000  0.3977460000000  0.4661160000000 1.0
C      1  0.4090540000000  0.4915350000000  0.4782990000000 1.0
C      1  0.5897410000000  0.4238140000000  0.5086520000000 1.0
C      1  0.4442520000000  0.5668160000000  0.4262370000000 1.0
C      1  0.5576190000000  0.5004850000000  0.4834310000000 1.0
C      1  0.4626150000000  0.5544170000000  0.5101110000000 1.0
C      1  0.3954690000000  0.5207070000000  0.4893850000000 1.0
C      1  0.4909160000000  0.5278000000000  0.5657010000000 1.0
C      1  0.5562540000000  0.4013910000000  0.4464880000000 1.0
C      1  0.4686180000000  0.4450720000000  0.4444100000000 1.0
C      1  0.4289890000000  0.4684700000000  0.4632010000000 1.0
C      1  0.5401610000000  0.4651620000000  0.5427670000000 1.0
C      1  0.4398120000000  0.4417130000000  0.4546010000000 1.0
C      1  0.5054200000000  0.4364220000000  0.4130640000000 1.0
C      1  0.4672920000000  0.5540340000000  0.5843790000000 1.0
C      1  0.4977120000000  0.5114740000000  0.6020250000000 1.0
END
