TITL C-2847955-7945-487 0.00181171635621431 125000 -856.690023459123 0 0 155 (C1) n - 1
REM
REM in /home/bkarasulu/work/CARBON/AIRSS/Generating-Clusters/AIREBO/with-SteepDescent/Only-C1/SD-CG-opt/Try1-1.4A-POS3A/HFTN-CG
REM
REM
REM
REM
REM
REM ./C.cell (11c1c37f851c82e70ff6c80c92926a4b)
REM
REM compiler GCC version 9.2.1 20190827 (Red Hat 9.2.1-1)
REM options -cpp -mtune=generic -march=x86-64 -g -O0 -fpre-include=/usr/include/finclude/math-vector-fortran.h
REM seed -45854260 1030978327 1240652761 -1491991164 -1123827272 13421347 -1890577699 -270118115 888269833 1577161348 -76492190 1531385196 -917800751 -1496122325 -863195972 -701892130 772490329 1032177562 -849452506 -1465613978 329685611 -778058443 -2082182980 437676591 -820405685 -565943135 329662335 -1138209460 -634460772 -1514945125 -1798997551 -798067537 -1534384788
REM
CELL 1.54180   50.00000   50.00000   50.00000   90.00000   90.00000   90.00000
LATT -1
SFAC C  
C      1  0.4889880000000  0.4857780000000  0.4765380000000 1.0
C      1  0.4689130000000  0.4935020000000  0.5684620000000 1.0
C      1  0.4967940000000  0.5918230000000  0.4692630000000 1.0
C      1  0.4541980000000  0.4655960000000  0.5017840000000 1.0
C      1  0.4823580000000  0.5231440000000  0.5454400000000 1.0
C      1  0.4136450000000  0.5531670000000  0.5411420000000 1.0
C      1  0.4254430000000  0.6035510000000  0.5286950000000 1.0
C      1  0.4205800000000  0.4632970000000  0.4652470000000 1.0
C      1  0.5803460000000  0.4533170000000  0.4656490000000 1.0
C      1  0.4412000000000  0.4725110000000  0.4121380000000 1.0
C      1  0.4614210000000  0.5421220000000  0.5908510000000 1.0
C      1  0.3937060000000  0.5137330000000  0.4668790000000 1.0
C      1  0.5174870000000  0.5702240000000  0.4240280000000 1.0
C      1  0.5349000000000  0.5376270000000  0.4390510000000 1.0
C      1  0.4263210000000  0.5517960000000  0.4475750000000 1.0
C      1  0.4026040000000  0.4895670000000  0.4768790000000 1.0
C      1  0.4952530000000  0.4538280000000  0.4667010000000 1.0
C      1  0.5631860000000  0.4831320000000  0.4204280000000 1.0
C      1  0.4815230000000  0.6031500000000  0.5130950000000 1.0
C      1  0.5466370000000  0.4816990000000  0.5073920000000 1.0
C      1  0.4764710000000  0.4624330000000  0.5231370000000 1.0
C      1  0.4454510000000  0.5311540000000  0.4342100000000 1.0
C      1  0.4731090000000  0.4635320000000  0.5734650000000 1.0
C      1  0.5417290000000  0.5423710000000  0.5631030000000 1.0
C      1  0.4649400000000  0.4095650000000  0.4521680000000 1.0
C      1  0.4617670000000  0.4694180000000  0.4523070000000 1.0
C      1  0.4903420000000  0.5538500000000  0.4193640000000 1.0
C      1  0.5302950000000  0.5799520000000  0.5145380000000 1.0
C      1  0.5728920000000  0.4755330000000  0.5280970000000 1.0
C      1  0.4088070000000  0.5388220000000  0.4676310000000 1.0
C      1  0.4974670000000  0.4044110000000  0.5416470000000 1.0
C      1  0.4614800000000  0.5177840000000  0.4073650000000 1.0
C      1  0.5032800000000  0.4525340000000  0.5109860000000 1.0
C      1  0.4387690000000  0.5790190000000  0.4484700000000 1.0
C      1  0.4445790000000  0.5014600000000  0.5566240000000 1.0
C      1  0.4980640000000  0.4296570000000  0.5605150000000 1.0
C      1  0.5218330000000  0.5198240000000  0.4649370000000 1.0
C      1  0.5870340000000  0.5233520000000  0.4294780000000 1.0
C      1  0.5045490000000  0.5733770000000  0.5563850000000 1.0
C      1  0.5211830000000  0.3951090000000  0.5313420000000 1.0
C      1  0.5372390000000  0.5720080000000  0.5470320000000 1.0
C      1  0.5190520000000  0.4889880000000  0.4504010000000 1.0
C      1  0.5686730000000  0.4257200000000  0.4654960000000 1.0
C      1  0.5555240000000  0.5111340000000  0.5333690000000 1.0
C      1  0.5747150000000  0.4281390000000  0.5458140000000 1.0
C      1  0.5377020000000  0.5775700000000  0.5808030000000 1.0
C      1  0.4391320000000  0.5043410000000  0.4470720000000 1.0
C      1  0.5188020000000  0.5786960000000  0.4524970000000 1.0
C      1  0.4043360000000  0.5386820000000  0.5187240000000 1.0
C      1  0.5190660000000  0.5230020000000  0.4987110000000 1.0
C      1  0.4229890000000  0.5100270000000  0.5767380000000 1.0
C      1  0.6019010000000  0.5252680000000  0.5172030000000 1.0
C      1  0.4663270000000  0.5095460000000  0.4854650000000 1.0
C      1  0.4491170000000  0.5373500000000  0.4948940000000 1.0
C      1  0.5723930000000  0.4686250000000  0.4437080000000 1.0
C      1  0.5667980000000  0.5432670000000  0.4995040000000 1.0
C      1  0.5775160000000  0.5008840000000  0.4531570000000 1.0
C      1  0.5339990000000  0.4660550000000  0.4705880000000 1.0
C      1  0.4736660000000  0.5426560000000  0.4442580000000 1.0
C      1  0.4228320000000  0.4785360000000  0.5809430000000 1.0
C      1  0.5248900000000  0.4742010000000  0.6206360000000 1.0
C      1  0.5018400000000  0.4470540000000  0.3780760000000 1.0
C      1  0.4267720000000  0.4789480000000  0.4357060000000 1.0
C      1  0.5028040000000  0.4055410000000  0.4861080000000 1.0
C      1  0.4397930000000  0.4572520000000  0.5707440000000 1.0
C      1  0.5379720000000  0.4327440000000  0.4649060000000 1.0
C      1  0.4770900000000  0.5737680000000  0.5634190000000 1.0
C      1  0.4940420000000  0.4486130000000  0.4022460000000 1.0
C      1  0.4089630000000  0.4291880000000  0.5021220000000 1.0
C      1  0.5206010000000  0.5531370000000  0.4726410000000 1.0
C      1  0.4181900000000  0.5425570000000  0.4941810000000 1.0
C      1  0.4952550000000  0.5536500000000  0.4901770000000 1.0
C      1  0.5083790000000  0.5264390000000  0.5993560000000 1.0
C      1  0.4698670000000  0.5857110000000  0.4605020000000 1.0
C      1  0.5255820000000  0.5172570000000  0.5468250000000 1.0
C      1  0.4727740000000  0.4032600000000  0.5275250000000 1.0
C      1  0.5837290000000  0.5507770000000  0.5238490000000 1.0
C      1  0.5170120000000  0.4839730000000  0.4908010000000 1.0
C      1  0.4452470000000  0.4938600000000  0.3951160000000 1.0
C      1  0.5537230000000  0.5105260000000  0.4722110000000 1.0
C      1  0.5218330000000  0.5377560000000  0.4014070000000 1.0
C      1  0.4601570000000  0.4250990000000  0.4304240000000 1.0
C      1  0.5253620000000  0.4660930000000  0.5288470000000 1.0
C      1  0.4261740000000  0.4635410000000  0.5129670000000 1.0
C      1  0.4796370000000  0.5366450000000  0.6068450000000 1.0
C      1  0.4631810000000  0.4501770000000  0.4770240000000 1.0
C      1  0.4267360000000  0.5369070000000  0.5612230000000 1.0
C      1  0.4888900000000  0.5286510000000  0.5123320000000 1.0
C      1  0.5126560000000  0.4544370000000  0.6059510000000 1.0
C      1  0.5040740000000  0.4465340000000  0.4346680000000 1.0
C      1  0.5704100000000  0.5686390000000  0.5402790000000 1.0
C      1  0.5041510000000  0.4650480000000  0.5779340000000 1.0
C      1  0.5059630000000  0.5251300000000  0.4287010000000 1.0
C      1  0.4880630000000  0.3957990000000  0.4587630000000 1.0
C      1  0.4712670000000  0.5742240000000  0.4986790000000 1.0
C      1  0.5551440000000  0.5075440000000  0.4028900000000 1.0
C      1  0.4859000000000  0.5042190000000  0.4219480000000 1.0
C      1  0.5949440000000  0.5244580000000  0.4683950000000 1.0
C      1  0.4601430000000  0.5559160000000  0.4722600000000 1.0
C      1  0.5051890000000  0.5950560000000  0.4970460000000 1.0
C      1  0.5461860000000  0.5555650000000  0.4123870000000 1.0
C      1  0.5517500000000  0.4848950000000  0.5531660000000 1.0
C      1  0.5502730000000  0.4929290000000  0.6120210000000 1.0
C      1  0.4590010000000  0.5026110000000  0.5159930000000 1.0
C      1  0.4321840000000  0.4366780000000  0.5521780000000 1.0
C      1  0.4892540000000  0.5286600000000  0.4691700000000 1.0
C      1  0.4819400000000  0.5585700000000  0.5269120000000 1.0
C      1  0.4092640000000  0.4876050000000  0.5061390000000 1.0
C      1  0.4241810000000  0.4356140000000  0.4799170000000 1.0
C      1  0.4502730000000  0.5529350000000  0.5251640000000 1.0
C      1  0.5030600000000  0.4285350000000  0.5937100000000 1.0
C      1  0.5215660000000  0.4895070000000  0.5661670000000 1.0
C      1  0.5268010000000  0.5496530000000  0.5911580000000 1.0
C      1  0.5123400000000  0.4361660000000  0.4858750000000 1.0
C      1  0.4535800000000  0.4196090000000  0.5399890000000 1.0
C      1  0.5301980000000  0.4052610000000  0.5034920000000 1.0
C      1  0.5802470000000  0.4468350000000  0.5234320000000 1.0
C      1  0.4895620000000  0.5311310000000  0.3929780000000 1.0
C      1  0.5238710000000  0.4511590000000  0.5551750000000 1.0
C      1  0.5831690000000  0.4953220000000  0.5609610000000 1.0
C      1  0.6133060000000  0.5221230000000  0.4902070000000 1.0
C      1  0.5262330000000  0.4254210000000  0.4371060000000 1.0
C      1  0.4016540000000  0.5119980000000  0.5249550000000 1.0
C      1  0.4733900000000  0.4055540000000  0.4994080000000 1.0
C      1  0.4678610000000  0.4566700000000  0.4213730000000 1.0
C      1  0.5489390000000  0.5912830000000  0.4891490000000 1.0
C      1  0.6392060000000  0.5154860000000  0.4867550000000 1.0
C      1  0.4593900000000  0.5454190000000  0.5570680000000 1.0
C      1  0.5670690000000  0.5308400000000  0.4120270000000 1.0
C      1  0.5301880000000  0.4912720000000  0.4193680000000 1.0
C      1  0.4966530000000  0.5105240000000  0.5735970000000 1.0
C      1  0.5537290000000  0.4284090000000  0.5118760000000 1.0
C      1  0.5575640000000  0.5133820000000  0.5033030000000 1.0
C      1  0.5467190000000  0.4319440000000  0.5612240000000 1.0
C      1  0.5628800000000  0.5208280000000  0.5662830000000 1.0
C      1  0.4440720000000  0.4859410000000  0.4752380000000 1.0
C      1  0.5638910000000  0.4963790000000  0.5891360000000 1.0
C      1  0.5077880000000  0.5454560000000  0.5427360000000 1.0
C      1  0.4291790000000  0.5773210000000  0.5327030000000 1.0
C      1  0.4831060000000  0.4922840000000  0.5311580000000 1.0
C      1  0.5141200000000  0.5067930000000  0.3941510000000 1.0
C      1  0.4907470000000  0.4778130000000  0.4351900000000 1.0
C      1  0.5132690000000  0.4983340000000  0.5213970000000 1.0
C      1  0.5941920000000  0.5014840000000  0.5305180000000 1.0
C      1  0.4156540000000  0.4416980000000  0.5289370000000 1.0
C      1  0.5769610000000  0.5455150000000  0.4720460000000 1.0
C      1  0.5215940000000  0.5065350000000  0.6177730000000 1.0
C      1  0.4320880000000  0.4994460000000  0.5287910000000 1.0
C      1  0.4709020000000  0.4453110000000  0.5474410000000 1.0
C      1  0.4533280000000  0.4207860000000  0.4782430000000 1.0
C      1  0.5576340000000  0.5564660000000  0.4559190000000 1.0
C      1  0.5374630000000  0.5515540000000  0.5003920000000 1.0
C      1  0.5473830000000  0.5813990000000  0.4638780000000 1.0
C      1  0.5487450000000  0.4079640000000  0.5385930000000 1.0
C      1  0.5586850000000  0.4545900000000  0.4909660000000 1.0
END
