TITL C-2848507-1641-237 5.02826913284642e-05 125000 -417.469119369414 0 0 75 (C1) n - 1
REM
REM in /home/bkarasulu/work/CARBON/AIRSS/Generating-Clusters/AIREBO/with-SteepDescent/Only-C1/SD-CG-opt/Try1-1.4A-POS3A/HFTN-CG
REM
REM
REM
REM
REM
REM ./C.cell (11c1c37f851c82e70ff6c80c92926a4b)
REM
REM compiler GCC version 9.2.1 20190827 (Red Hat 9.2.1-1)
REM options -cpp -mtune=generic -march=x86-64 -g -O0 -fpre-include=/usr/include/finclude/math-vector-fortran.h
REM seed -1201881051 1818198621 2101005411 1669698226 -2109015585 -415173682 1477156143 -420124072 2123682251 1038369544 1934251968 -637871725 -624189911 -2036958064 2075100276 -971775608 804029438 -973885693 455101027 -1711139705 1140194369 -1272495142 -738743360 -1287073605 1344531646 -2029940534 811206718 -297138152 1637911195 -329693265 -1823636182 -390127716 -1629971121
REM
CELL 1.54180   50.00000   50.00000   50.00000   90.00000   90.00000   90.00000
LATT -1
SFAC C  
C      1  0.4683170000000  0.5292710000000  0.4149220000000 1.0
C      1  0.5377010000000  0.5609740000000  0.4457150000000 1.0
C      1  0.4745860000000  0.5654420000000  0.5322270000000 1.0
C      1  0.5604090000000  0.4590330000000  0.5346030000000 1.0
C      1  0.5403580000000  0.5418300000000  0.5416600000000 1.0
C      1  0.5194150000000  0.5513180000000  0.4927790000000 1.0
C      1  0.5806880000000  0.5119640000000  0.4844260000000 1.0
C      1  0.4555170000000  0.4306280000000  0.4991020000000 1.0
C      1  0.5122360000000  0.5305690000000  0.4528640000000 1.0
C      1  0.5144850000000  0.4598680000000  0.4233460000000 1.0
C      1  0.5589510000000  0.4733110000000  0.5043740000000 1.0
C      1  0.5678520000000  0.5478800000000  0.5298980000000 1.0
C      1  0.4455970000000  0.4809940000000  0.5641730000000 1.0
C      1  0.5699830000000  0.5114200000000  0.4562960000000 1.0
C      1  0.4951860000000  0.5529500000000  0.5779110000000 1.0
C      1  0.4884810000000  0.5450330000000  0.4248570000000 1.0
C      1  0.4647920000000  0.4236830000000  0.4768360000000 1.0
C      1  0.4320230000000  0.5315220000000  0.5349600000000 1.0
C      1  0.5375760000000  0.5606650000000  0.4708560000000 1.0
C      1  0.5444620000000  0.4890060000000  0.4545840000000 1.0
C      1  0.4853820000000  0.5496230000000  0.4584210000000 1.0
C      1  0.4651020000000  0.4654220000000  0.4819730000000 1.0
C      1  0.5224800000000  0.5415430000000  0.4234370000000 1.0
C      1  0.5247890000000  0.4210510000000  0.5056690000000 1.0
C      1  0.5106260000000  0.4965270000000  0.4866710000000 1.0
C      1  0.4468020000000  0.4837260000000  0.4319580000000 1.0
C      1  0.5163150000000  0.4528870000000  0.5046380000000 1.0
C      1  0.4424390000000  0.5595870000000  0.5249650000000 1.0
C      1  0.4612910000000  0.4582050000000  0.5149710000000 1.0
C      1  0.4420410000000  0.4762770000000  0.5306660000000 1.0
C      1  0.4200240000000  0.5231550000000  0.4977840000000 1.0
C      1  0.4628760000000  0.5347170000000  0.4797270000000 1.0
C      1  0.4364010000000  0.5469650000000  0.4937210000000 1.0
C      1  0.5511100000000  0.4905880000000  0.5327420000000 1.0
C      1  0.4660630000000  0.5144520000000  0.5056120000000 1.0
C      1  0.5220590000000  0.5221130000000  0.5002080000000 1.0
C      1  0.5726410000000  0.5292470000000  0.5046660000000 1.0
C      1  0.4710920000000  0.5184960000000  0.5390970000000 1.0
C      1  0.5315950000000  0.4201180000000  0.4778640000000 1.0
C      1  0.4827470000000  0.4881040000000  0.4972900000000 1.0
C      1  0.4171400000000  0.4612130000000  0.5434620000000 1.0
C      1  0.4870950000000  0.4913120000000  0.5303530000000 1.0
C      1  0.6107610000000  0.5057930000000  0.4185260000000 1.0
C      1  0.4370340000000  0.5028540000000  0.5173660000000 1.0
C      1  0.5174570000000  0.4446630000000  0.5370790000000 1.0
C      1  0.4693570000000  0.5130800000000  0.4584230000000 1.0
C      1  0.4907170000000  0.4599660000000  0.5244080000000 1.0
C      1  0.5167520000000  0.5351210000000  0.5593730000000 1.0
C      1  0.5918570000000  0.5095650000000  0.4352510000000 1.0
C      1  0.5267060000000  0.4042770000000  0.5267330000000 1.0
C      1  0.4581070000000  0.5095160000000  0.4326940000000 1.0
C      1  0.4455690000000  0.5110320000000  0.5554600000000 1.0
C      1  0.3971810000000  0.4491080000000  0.5537640000000 1.0
C      1  0.5404200000000  0.4936160000000  0.5621030000000 1.0
C      1  0.4902980000000  0.5631420000000  0.4855700000000 1.0
C      1  0.4739920000000  0.4783950000000  0.5754340000000 1.0
C      1  0.4564870000000  0.4664550000000  0.4496630000000 1.0
C      1  0.4930780000000  0.4918950000000  0.5609680000000 1.0
C      1  0.5166880000000  0.5057910000000  0.5666280000000 1.0
C      1  0.5240790000000  0.5762160000000  0.5198140000000 1.0
C      1  0.4966340000000  0.5766640000000  0.5140840000000 1.0
C      1  0.5332550000000  0.4719600000000  0.4821310000000 1.0
C      1  0.4855040000000  0.5429910000000  0.5481530000000 1.0
C      1  0.5050420000000  0.4463730000000  0.4459470000000 1.0
C      1  0.5450580000000  0.5174440000000  0.5191460000000 1.0
C      1  0.4966140000000  0.5066900000000  0.4614590000000 1.0
C      1  0.4778010000000  0.4433150000000  0.4562520000000 1.0
C      1  0.5845100000000  0.4861360000000  0.4930530000000 1.0
C      1  0.4786650000000  0.4619670000000  0.5968020000000 1.0
C      1  0.5255840000000  0.4438990000000  0.4645230000000 1.0
C      1  0.4251420000000  0.4722620000000  0.5810420000000 1.0
C      1  0.5413140000000  0.5212130000000  0.4438640000000 1.0
C      1  0.5425270000000  0.4423250000000  0.5460120000000 1.0
C      1  0.4610690000000  0.5698590000000  0.4985560000000 1.0
C      1  0.5380160000000  0.4737240000000  0.4274340000000 1.0
END
