TITL C-2847948-6138-13 0.00300978044558383 125000 -518.040954352022 0 0 96 (C1) n - 1
REM
REM in /home/bkarasulu/work/CARBON/AIRSS/Generating-Clusters/AIREBO/with-SteepDescent/Only-C1/SD-CG-opt/Try1-1.4A-POS3A/HFTN-CG
REM
REM
REM
REM
REM
REM ./C.cell (11c1c37f851c82e70ff6c80c92926a4b)
REM
REM compiler GCC version 9.2.1 20190827 (Red Hat 9.2.1-1)
REM options -cpp -mtune=generic -march=x86-64 -g -O0 -fpre-include=/usr/include/finclude/math-vector-fortran.h
REM seed -937477683 451866122 -1941986624 90787250 -252522629 -607232323 747524763 -1166253174 -1448704556 -1898325981 2107080235 -856363067 1994296491 1630892355 -1761894579 1209543623 -898883742 -1104672185 137032644 1148875026 -1693050574 143295665 1408553312 481839340 1638085103 1429744757 147055252 534540088 1213633459 -217080574 -1624572815 -18283247 -512951075
REM
CELL 1.54180   50.00000   50.00000   50.00000   90.00000   90.00000   90.00000
LATT -1
SFAC C  
C      1  0.5380850000000  0.4556720000000  0.5844880000000 1.0
C      1  0.5570010000000  0.5100150000000  0.4922710000000 1.0
C      1  0.4565380000000  0.4688860000000  0.4493040000000 1.0
C      1  0.5629160000000  0.5009400000000  0.4353870000000 1.0
C      1  0.5661740000000  0.4745240000000  0.4482490000000 1.0
C      1  0.4121620000000  0.5248400000000  0.4898700000000 1.0
C      1  0.4876240000000  0.5019150000000  0.4138070000000 1.0
C      1  0.5404380000000  0.5468620000000  0.4697650000000 1.0
C      1  0.4773850000000  0.4863280000000  0.4836120000000 1.0
C      1  0.5027580000000  0.5729270000000  0.5484380000000 1.0
C      1  0.4672840000000  0.5422510000000  0.5579300000000 1.0
C      1  0.5527680000000  0.4502940000000  0.4989750000000 1.0
C      1  0.5289310000000  0.4709670000000  0.5638710000000 1.0
C      1  0.5500200000000  0.4904610000000  0.5465180000000 1.0
C      1  0.4407360000000  0.4634150000000  0.4193410000000 1.0
C      1  0.5603170000000  0.5381920000000  0.5450840000000 1.0
C      1  0.4553420000000  0.4986630000000  0.4624130000000 1.0
C      1  0.5168520000000  0.4192190000000  0.4761540000000 1.0
C      1  0.4408270000000  0.4821090000000  0.5598290000000 1.0
C      1  0.4989430000000  0.4295170000000  0.5000850000000 1.0
C      1  0.4863850000000  0.5183960000000  0.5542420000000 1.0
C      1  0.5278710000000  0.5564800000000  0.5596620000000 1.0
C      1  0.5207870000000  0.4535880000000  0.5100890000000 1.0
C      1  0.5445560000000  0.4290980000000  0.5796310000000 1.0
C      1  0.4959720000000  0.5438370000000  0.4394760000000 1.0
C      1  0.5165030000000  0.5381220000000  0.4825750000000 1.0
C      1  0.4741960000000  0.5514540000000  0.4171280000000 1.0
C      1  0.5285500000000  0.5382600000000  0.5854070000000 1.0
C      1  0.4666140000000  0.5718160000000  0.4022600000000 1.0
C      1  0.4806910000000  0.4268500000000  0.4734860000000 1.0
C      1  0.5204650000000  0.5323880000000  0.4314370000000 1.0
C      1  0.4952980000000  0.5215150000000  0.5251750000000 1.0
C      1  0.5229930000000  0.4586370000000  0.4737520000000 1.0
C      1  0.5537780000000  0.4625630000000  0.4683610000000 1.0
C      1  0.5618810000000  0.5615120000000  0.4807900000000 1.0
C      1  0.4399800000000  0.5363130000000  0.5563600000000 1.0
C      1  0.5439010000000  0.5269670000000  0.5186740000000 1.0
C      1  0.5188860000000  0.5116760000000  0.5038190000000 1.0
C      1  0.4395870000000  0.4233480000000  0.5171960000000 1.0
C      1  0.5121680000000  0.4367600000000  0.4511830000000 1.0
C      1  0.5304270000000  0.4978800000000  0.4748650000000 1.0
C      1  0.4259860000000  0.4461600000000  0.4811220000000 1.0
C      1  0.4197580000000  0.5330490000000  0.4607880000000 1.0
C      1  0.5750280000000  0.4718500000000  0.5600990000000 1.0
C      1  0.5700680000000  0.4970500000000  0.5198300000000 1.0
C      1  0.5099350000000  0.5138420000000  0.5747160000000 1.0
C      1  0.5006990000000  0.4499350000000  0.4231860000000 1.0
C      1  0.4503980000000  0.5001660000000  0.5253470000000 1.0
C      1  0.5308540000000  0.4918520000000  0.4411870000000 1.0
C      1  0.5413170000000  0.5176140000000  0.5615980000000 1.0
C      1  0.5194020000000  0.5417170000000  0.5301900000000 1.0
C      1  0.4428940000000  0.5476220000000  0.4568200000000 1.0
C      1  0.5238840000000  0.4334120000000  0.5372860000000 1.0
C      1  0.4919470000000  0.5684280000000  0.4950510000000 1.0
C      1  0.4360810000000  0.4706870000000  0.5283180000000 1.0
C      1  0.4709180000000  0.4576720000000  0.4969150000000 1.0
C      1  0.5064690000000  0.4590640000000  0.5469680000000 1.0
C      1  0.4839010000000  0.5370040000000  0.4845870000000 1.0
C      1  0.4104280000000  0.5270130000000  0.5167960000000 1.0
C      1  0.5155340000000  0.5717560000000  0.5179780000000 1.0
C      1  0.5848540000000  0.4558100000000  0.5393760000000 1.0
C      1  0.4176170000000  0.4639520000000  0.5066070000000 1.0
C      1  0.4693930000000  0.5291240000000  0.4547730000000 1.0
C      1  0.4835910000000  0.5017810000000  0.5904850000000 1.0
C      1  0.4712780000000  0.4290780000000  0.5153140000000 1.0
C      1  0.5821280000000  0.5291250000000  0.5206200000000 1.0
C      1  0.4545800000000  0.4478150000000  0.4708910000000 1.0
C      1  0.4543350000000  0.4463380000000  0.5375570000000 1.0
C      1  0.4690640000000  0.5206390000000  0.4212720000000 1.0
C      1  0.4916540000000  0.4695120000000  0.5183050000000 1.0
C      1  0.4247010000000  0.5012780000000  0.4704370000000 1.0
C      1  0.4659550000000  0.5749090000000  0.5217110000000 1.0
C      1  0.4739630000000  0.5109800000000  0.5037540000000 1.0
C      1  0.4461250000000  0.5724910000000  0.4690810000000 1.0
C      1  0.5488570000000  0.5705510000000  0.5246430000000 1.0
C      1  0.5702050000000  0.5203880000000  0.4681080000000 1.0
C      1  0.4126170000000  0.4750830000000  0.4772530000000 1.0
C      1  0.4709800000000  0.4559730000000  0.4226510000000 1.0
C      1  0.5440260000000  0.4204430000000  0.4861300000000 1.0
C      1  0.5741510000000  0.4648030000000  0.5155340000000 1.0
C      1  0.4766540000000  0.4877860000000  0.5430580000000 1.0
C      1  0.5287020000000  0.4847410000000  0.5206540000000 1.0
C      1  0.5566260000000  0.5701750000000  0.5545050000000 1.0
C      1  0.5163740000000  0.5098820000000  0.4139570000000 1.0
C      1  0.4312450000000  0.5216200000000  0.5343760000000 1.0
C      1  0.4749900000000  0.4567670000000  0.5569010000000 1.0
C      1  0.5478530000000  0.5300810000000  0.4443860000000 1.0
C      1  0.4760160000000  0.5663570000000  0.5464740000000 1.0
C      1  0.5319560000000  0.4585920000000  0.4342140000000 1.0
C      1  0.5012680000000  0.5866050000000  0.4730030000000 1.0
C      1  0.5676530000000  0.5573220000000  0.5082850000000 1.0
C      1  0.5022910000000  0.4824140000000  0.4673770000000 1.0
C      1  0.5352280000000  0.4180970000000  0.5559350000000 1.0
C      1  0.4644230000000  0.4906960000000  0.5746600000000 1.0
C      1  0.4990730000000  0.4812230000000  0.4353540000000 1.0
C      1  0.4594830000000  0.5762190000000  0.4926170000000 1.0
END
