TITL C-2848506-1665-317 0.00160753384321389 125000 -370.683688652287 0 0 69 (C1) n - 1
REM
REM in /home/bkarasulu/work/CARBON/AIRSS/Generating-Clusters/AIREBO/with-SteepDescent/Only-C1/SD-CG-opt/Try1-1.4A-POS3A/HFTN-CG
REM
REM
REM
REM
REM
REM ./C.cell (11c1c37f851c82e70ff6c80c92926a4b)
REM
REM compiler GCC version 9.2.1 20190827 (Red Hat 9.2.1-1)
REM options -cpp -mtune=generic -march=x86-64 -g -O0 -fpre-include=/usr/include/finclude/math-vector-fortran.h
REM seed 1526539519 240152376 1955933688 -408082882 1457478777 -205319808 384081864 -405835499 1616083854 1518676111 -938213026 877549142 -1124754919 -649797941 1480872403 714851707 -37026610 -1676478011 -465908527 -757961571 392740715 1391903376 1503040986 1213051678 1248940284 -1302997405 -1086527041 -1030852325 -2070875788 -1586683202 -1840037880 -1128989964 -1406710753
REM
CELL 1.54180   50.00000   50.00000   50.00000   90.00000   90.00000   90.00000
LATT -1
SFAC C  
C      1  0.5575300000000  0.4728100000000  0.5300340000000 1.0
C      1  0.5338440000000  0.5569330000000  0.4786210000000 1.0
C      1  0.4479170000000  0.4780720000000  0.4846240000000 1.0
C      1  0.4559780000000  0.4275680000000  0.4920370000000 1.0
C      1  0.4842420000000  0.5271310000000  0.4167690000000 1.0
C      1  0.4699150000000  0.4618530000000  0.5606210000000 1.0
C      1  0.4425270000000  0.5488470000000  0.5514530000000 1.0
C      1  0.5752900000000  0.4889330000000  0.4474380000000 1.0
C      1  0.4920020000000  0.4460400000000  0.5404620000000 1.0
C      1  0.4480490000000  0.5595640000000  0.5083790000000 1.0
C      1  0.4993840000000  0.5518620000000  0.5290670000000 1.0
C      1  0.4449390000000  0.5115240000000  0.5196310000000 1.0
C      1  0.5454860000000  0.4954310000000  0.5778850000000 1.0
C      1  0.5419930000000  0.4935850000000  0.5438820000000 1.0
C      1  0.5504580000000  0.5295080000000  0.4672590000000 1.0
C      1  0.4230700000000  0.4712590000000  0.5258100000000 1.0
C      1  0.5306300000000  0.5037520000000  0.4575940000000 1.0
C      1  0.5817190000000  0.5024290000000  0.4957300000000 1.0
C      1  0.4598380000000  0.4556200000000  0.4956890000000 1.0
C      1  0.5620660000000  0.4593680000000  0.4872680000000 1.0
C      1  0.5146620000000  0.4246210000000  0.5298030000000 1.0
C      1  0.5127230000000  0.5779340000000  0.4640420000000 1.0
C      1  0.5548330000000  0.4693080000000  0.4575490000000 1.0
C      1  0.4915620000000  0.4873960000000  0.5322890000000 1.0
C      1  0.5353790000000  0.5510470000000  0.4451610000000 1.0
C      1  0.4894960000000  0.4615340000000  0.5103000000000 1.0
C      1  0.4311550000000  0.4893310000000  0.5041990000000 1.0
C      1  0.4539540000000  0.5454410000000  0.4823780000000 1.0
C      1  0.4343930000000  0.5406320000000  0.5261390000000 1.0
C      1  0.5389950000000  0.4430840000000  0.4988330000000 1.0
C      1  0.4640240000000  0.4910610000000  0.4598350000000 1.0
C      1  0.5709320000000  0.4780080000000  0.5059900000000 1.0
C      1  0.5176220000000  0.5079390000000  0.5246780000000 1.0
C      1  0.5304860000000  0.4696200000000  0.5810430000000 1.0
C      1  0.5443100000000  0.4415290000000  0.5317140000000 1.0
C      1  0.5222110000000  0.4983490000000  0.4291250000000 1.0
C      1  0.5004020000000  0.5041080000000  0.5605600000000 1.0
C      1  0.5142970000000  0.5398570000000  0.5006050000000 1.0
C      1  0.4830700000000  0.4683290000000  0.4431730000000 1.0
C      1  0.4744310000000  0.5516890000000  0.4381390000000 1.0
C      1  0.4627710000000  0.4965980000000  0.5422460000000 1.0
C      1  0.4813710000000  0.4161090000000  0.4873650000000 1.0
C      1  0.5785090000000  0.5102550000000  0.4642160000000 1.0
C      1  0.4655240000000  0.5245200000000  0.5006770000000 1.0
C      1  0.5070520000000  0.5421680000000  0.4370150000000 1.0
C      1  0.4896320000000  0.4974900000000  0.4269220000000 1.0
C      1  0.5046790000000  0.5316950000000  0.4690080000000 1.0
C      1  0.4927510000000  0.5136120000000  0.5023860000000 1.0
C      1  0.4786900000000  0.5235290000000  0.5717210000000 1.0
C      1  0.4537630000000  0.5392570000000  0.4554030000000 1.0
C      1  0.5224980000000  0.4569240000000  0.5508370000000 1.0
C      1  0.4967050000000  0.5017640000000  0.4596810000000 1.0
C      1  0.4988640000000  0.4392300000000  0.4863980000000 1.0
C      1  0.4652730000000  0.4925310000000  0.5756060000000 1.0
C      1  0.5004770000000  0.4530940000000  0.4589350000000 1.0
C      1  0.5633740000000  0.5259220000000  0.4976040000000 1.0
C      1  0.4746010000000  0.5448290000000  0.5512590000000 1.0
C      1  0.4996040000000  0.4732140000000  0.5687620000000 1.0
C      1  0.5280900000000  0.5190380000000  0.5614140000000 1.0
C      1  0.4701300000000  0.5681050000000  0.5260350000000 1.0
C      1  0.4412140000000  0.4712290000000  0.5463500000000 1.0
C      1  0.4466170000000  0.5130350000000  0.4478400000000 1.0
C      1  0.5058840000000  0.4849720000000  0.4945380000000 1.0
C      1  0.5423950000000  0.5291910000000  0.5165670000000 1.0
C      1  0.5321960000000  0.4451810000000  0.4653980000000 1.0
C      1  0.5272090000000  0.5426850000000  0.5418890000000 1.0
C      1  0.4250080000000  0.5066410000000  0.4322780000000 1.0
C      1  0.5272810000000  0.4775290000000  0.4757080000000 1.0
C      1  0.4920280000000  0.5767500000000  0.4501310000000 1.0
END
