TITL C-2847959-7740-616 5.42418398624215e-05 125000 -699.00768702817 0 0 125 (C1) n - 1
REM
REM in /home/bkarasulu/work/CARBON/AIRSS/Generating-Clusters/AIREBO/with-SteepDescent/Only-C1/SD-CG-opt/Try1-1.4A-POS3A/HFTN-CG
REM
REM
REM
REM
REM
REM ./C.cell (11c1c37f851c82e70ff6c80c92926a4b)
REM
REM compiler GCC version 9.2.1 20190827 (Red Hat 9.2.1-1)
REM options -cpp -mtune=generic -march=x86-64 -g -O0 -fpre-include=/usr/include/finclude/math-vector-fortran.h
REM seed -1052413096 825800877 1286067490 -775320216 -93635176 -316648613 -1431110097 1499819999 -1826981274 606675796 1867915665 -973023916 -1904977475 -2087392431 1750404604 1305228343 1870138928 1261460355 -922529118 1533981776 -256649397 147177966 1419032509 -512141396 1280469628 849947875 -858000411 1838828257 -2085692910 1263162704 1144494483 1023654343 824283614
REM
CELL 1.54180   50.00000   50.00000   50.00000   90.00000   90.00000   90.00000
LATT -1
SFAC C  
C      1  0.5209010000000  0.4508670000000  0.5268610000000 1.0
C      1  0.5857990000000  0.5326200000000  0.5165850000000 1.0
C      1  0.4146140000000  0.4845130000000  0.4748090000000 1.0
C      1  0.5979200000000  0.5383050000000  0.4852950000000 1.0
C      1  0.4941460000000  0.5405820000000  0.5025000000000 1.0
C      1  0.5191740000000  0.4428490000000  0.5590140000000 1.0
C      1  0.5244180000000  0.4648890000000  0.5819730000000 1.0
C      1  0.4601990000000  0.4327900000000  0.5800030000000 1.0
C      1  0.4658940000000  0.4463070000000  0.4340740000000 1.0
C      1  0.5605780000000  0.5180670000000  0.5696610000000 1.0
C      1  0.5450930000000  0.5897070000000  0.4855020000000 1.0
C      1  0.4751690000000  0.5247160000000  0.4299110000000 1.0
C      1  0.5520810000000  0.4648460000000  0.5645330000000 1.0
C      1  0.4386380000000  0.4942520000000  0.4331750000000 1.0
C      1  0.4760020000000  0.4129600000000  0.5021380000000 1.0
C      1  0.5395370000000  0.4266470000000  0.4530230000000 1.0
C      1  0.5405560000000  0.4997470000000  0.5236840000000 1.0
C      1  0.5237840000000  0.4498670000000  0.4724470000000 1.0
C      1  0.4510350000000  0.4145270000000  0.4900000000000 1.0
C      1  0.4745990000000  0.5070720000000  0.4793720000000 1.0
C      1  0.4390930000000  0.4609340000000  0.4343140000000 1.0
C      1  0.5462910000000  0.5471510000000  0.5664440000000 1.0
C      1  0.4485570000000  0.5144160000000  0.5766330000000 1.0
C      1  0.3922760000000  0.4904680000000  0.5072670000000 1.0
C      1  0.4279260000000  0.5257450000000  0.5195030000000 1.0
C      1  0.5320940000000  0.4164890000000  0.5099560000000 1.0
C      1  0.4951880000000  0.5418720000000  0.5642680000000 1.0
C      1  0.5462390000000  0.5461020000000  0.4228730000000 1.0
C      1  0.4385940000000  0.4451030000000  0.4945540000000 1.0
C      1  0.5350170000000  0.5475860000000  0.5363220000000 1.0
C      1  0.4936270000000  0.5496820000000  0.4229870000000 1.0
C      1  0.5606030000000  0.4407180000000  0.5548640000000 1.0
C      1  0.4456340000000  0.4885680000000  0.5464690000000 1.0
C      1  0.5210380000000  0.5041490000000  0.4427000000000 1.0
C      1  0.5883270000000  0.4879530000000  0.4888590000000 1.0
C      1  0.5464680000000  0.4688810000000  0.5223650000000 1.0
C      1  0.4979650000000  0.4303270000000  0.4828400000000 1.0
C      1  0.4234230000000  0.4558390000000  0.4592000000000 1.0
C      1  0.5121330000000  0.5697850000000  0.4608580000000 1.0
C      1  0.4687740000000  0.5881540000000  0.4496130000000 1.0
C      1  0.5043340000000  0.5434910000000  0.5348180000000 1.0
C      1  0.5203950000000  0.4047830000000  0.4458010000000 1.0
C      1  0.4421030000000  0.5648780000000  0.5603360000000 1.0
C      1  0.4297160000000  0.5583090000000  0.5096460000000 1.0
C      1  0.5271270000000  0.4672250000000  0.4290670000000 1.0
C      1  0.4807590000000  0.4818300000000  0.4640410000000 1.0
C      1  0.5692890000000  0.5227000000000  0.4487970000000 1.0
C      1  0.5018320000000  0.4028430000000  0.4631940000000 1.0
C      1  0.4784550000000  0.5606560000000  0.5232240000000 1.0
C      1  0.4809740000000  0.4773890000000  0.5051530000000 1.0
C      1  0.4696110000000  0.5089120000000  0.5507940000000 1.0
C      1  0.5654290000000  0.4721180000000  0.4573460000000 1.0
C      1  0.5782290000000  0.4705180000000  0.5348710000000 1.0
C      1  0.5123290000000  0.5193880000000  0.5809420000000 1.0
C      1  0.5384590000000  0.5123560000000  0.5911280000000 1.0
C      1  0.4263210000000  0.4269870000000  0.4702130000000 1.0
C      1  0.5852800000000  0.5624780000000  0.4720480000000 1.0
C      1  0.5376920000000  0.4863340000000  0.6016180000000 1.0
C      1  0.4754630000000  0.5018580000000  0.4076200000000 1.0
C      1  0.4485030000000  0.4809470000000  0.4043100000000 1.0
C      1  0.4896570000000  0.5726820000000  0.5672190000000 1.0
C      1  0.5554590000000  0.5468600000000  0.5108040000000 1.0
C      1  0.5953150000000  0.4984130000000  0.5346790000000 1.0
C      1  0.5648570000000  0.5015630000000  0.4744850000000 1.0
C      1  0.3807830000000  0.4861850000000  0.4777920000000 1.0
C      1  0.5772520000000  0.5698310000000  0.4983880000000 1.0
C      1  0.5042180000000  0.4114850000000  0.5175170000000 1.0
C      1  0.4671760000000  0.5899390000000  0.5251550000000 1.0
C      1  0.4963500000000  0.4499600000000  0.5105640000000 1.0
C      1  0.4394150000000  0.5346150000000  0.5507290000000 1.0
C      1  0.5513410000000  0.5073750000000  0.4299530000000 1.0
C      1  0.5464730000000  0.4294230000000  0.5333710000000 1.0
C      1  0.5386590000000  0.5747330000000  0.4628940000000 1.0
C      1  0.5795980000000  0.4643480000000  0.5015760000000 1.0
C      1  0.4973720000000  0.5001970000000  0.5572120000000 1.0
C      1  0.4694330000000  0.4490830000000  0.5303360000000 1.0
C      1  0.4954380000000  0.5070250000000  0.5056410000000 1.0
C      1  0.5216360000000  0.5845210000000  0.5288830000000 1.0
C      1  0.6021900000000  0.5046660000000  0.5062870000000 1.0
C      1  0.4418370000000  0.5296150000000  0.4776340000000 1.0
C      1  0.5399600000000  0.5771310000000  0.5099540000000 1.0
C      1  0.5669480000000  0.4440920000000  0.4619010000000 1.0
C      1  0.4986540000000  0.5979470000000  0.5230870000000 1.0
C      1  0.4543440000000  0.5808760000000  0.4762570000000 1.0
C      1  0.5589810000000  0.4937140000000  0.5506120000000 1.0
C      1  0.4988910000000  0.4225960000000  0.5444530000000 1.0
C      1  0.5983910000000  0.5202760000000  0.4639900000000 1.0
C      1  0.5608610000000  0.5555210000000  0.4515920000000 1.0
C      1  0.5456460000000  0.5174390000000  0.4963330000000 1.0
C      1  0.4702870000000  0.4857290000000  0.4368570000000 1.0
C      1  0.5193420000000  0.5287800000000  0.4193120000000 1.0
C      1  0.4019290000000  0.5092380000000  0.5339230000000 1.0
C      1  0.4260090000000  0.4944750000000  0.5057290000000 1.0
C      1  0.4200060000000  0.4493870000000  0.5196150000000 1.0
C      1  0.5121420000000  0.4748330000000  0.4575170000000 1.0
C      1  0.4494070000000  0.5309390000000  0.4445570000000 1.0
C      1  0.4916180000000  0.5479940000000  0.4736560000000 1.0
C      1  0.5089030000000  0.4730430000000  0.4084100000000 1.0
C      1  0.4716940000000  0.4909230000000  0.5863530000000 1.0
C      1  0.5224260000000  0.5703880000000  0.5581810000000 1.0
C      1  0.4273540000000  0.5079050000000  0.4581590000000 1.0
C      1  0.4994800000000  0.5247460000000  0.4537110000000 1.0
C      1  0.5071630000000  0.5022840000000  0.4018280000000 1.0
C      1  0.4571120000000  0.5191890000000  0.5033260000000 1.0
C      1  0.5174090000000  0.5149670000000  0.4809310000000 1.0
C      1  0.4935860000000  0.4707540000000  0.5716900000000 1.0
C      1  0.4761810000000  0.4423450000000  0.4596580000000 1.0
C      1  0.4659730000000  0.5320580000000  0.5296500000000 1.0
C      1  0.4910230000000  0.5716150000000  0.4403960000000 1.0
C      1  0.4048920000000  0.4698610000000  0.5291330000000 1.0
C      1  0.4462470000000  0.5795850000000  0.5028700000000 1.0
C      1  0.5118830000000  0.5018960000000  0.5310700000000 1.0
C      1  0.5477550000000  0.4544100000000  0.4949970000000 1.0
C      1  0.5511240000000  0.4232710000000  0.4840420000000 1.0
C      1  0.5529340000000  0.4783980000000  0.4322820000000 1.0
C      1  0.4507790000000  0.4752620000000  0.5190330000000 1.0
C      1  0.4406950000000  0.4354950000000  0.5332700000000 1.0
C      1  0.4632040000000  0.4598850000000  0.4831960000000 1.0
C      1  0.4619890000000  0.5528600000000  0.4668320000000 1.0
C      1  0.4645710000000  0.5799200000000  0.5553790000000 1.0
C      1  0.4176170000000  0.4879210000000  0.5506180000000 1.0
C      1  0.4795950000000  0.4457060000000  0.5604040000000 1.0
C      1  0.4831930000000  0.4634360000000  0.4155370000000 1.0
C      1  0.4798660000000  0.5230150000000  0.5867250000000 1.0
C      1  0.5857720000000  0.5233220000000  0.5494380000000 1.0
END
