TITL C-2848503-6230-165 0.000942135653587174 125000 -642.622940681861 0 0 122 (C1) n - 1
REM
REM in /home/bkarasulu/work/CARBON/AIRSS/Generating-Clusters/AIREBO/with-SteepDescent/Only-C1/SD-CG-opt/Try1-1.4A-POS3A/HFTN-CG
REM
REM
REM
REM
REM
REM ./C.cell (11c1c37f851c82e70ff6c80c92926a4b)
REM
REM compiler GCC version 9.2.1 20190827 (Red Hat 9.2.1-1)
REM options -cpp -mtune=generic -march=x86-64 -g -O0 -fpre-include=/usr/include/finclude/math-vector-fortran.h
REM seed -243890511 998830402 -11867163 -1478859178 -326124719 -612007573 -384107570 -207838056 -1785052228 1897984478 -899947238 -1790997535 -187210975 -417554671 298009576 -146358042 1405956887 -2108701249 -1433498009 -2112358186 -1918186825 762189714 260348333 1475558240 -47172667 1211772184 1524039502 507488498 -380936677 1963084018 -1946147957 986958890 1948354240
REM
CELL 1.54180   50.00000   50.00000   50.00000   90.00000   90.00000   90.00000
LATT -1
SFAC C  
C      1  0.4767610000000  0.5874720000000  0.4980480000000 1.0
C      1  0.4472070000000  0.4666520000000  0.5486490000000 1.0
C      1  0.4679550000000  0.4482260000000  0.4845790000000 1.0
C      1  0.4926380000000  0.5409260000000  0.5535490000000 1.0
C      1  0.4467420000000  0.4222920000000  0.4821850000000 1.0
C      1  0.4874950000000  0.4592360000000  0.5089060000000 1.0
C      1  0.4055560000000  0.4870100000000  0.5144440000000 1.0
C      1  0.5558970000000  0.4944480000000  0.5694670000000 1.0
C      1  0.5146020000000  0.4617640000000  0.4129630000000 1.0
C      1  0.5107160000000  0.5635230000000  0.4623450000000 1.0
C      1  0.5489190000000  0.4124670000000  0.5005340000000 1.0
C      1  0.5050040000000  0.5910010000000  0.5585470000000 1.0
C      1  0.4626900000000  0.5701200000000  0.4469420000000 1.0
C      1  0.4440740000000  0.4834000000000  0.5751110000000 1.0
C      1  0.5538450000000  0.4652240000000  0.5059850000000 1.0
C      1  0.5872020000000  0.5164410000000  0.5389340000000 1.0
C      1  0.4464370000000  0.4721350000000  0.4962190000000 1.0
C      1  0.5588300000000  0.5314260000000  0.4974750000000 1.0
C      1  0.5161270000000  0.4764560000000  0.4874080000000 1.0
C      1  0.5378780000000  0.5241280000000  0.4713990000000 1.0
C      1  0.4747590000000  0.5134610000000  0.4739160000000 1.0
C      1  0.5698050000000  0.5247500000000  0.4597190000000 1.0
C      1  0.5273640000000  0.4458350000000  0.4970250000000 1.0
C      1  0.5400820000000  0.5765600000000  0.4512990000000 1.0
C      1  0.5203900000000  0.6091740000000  0.5694930000000 1.0
C      1  0.5210100000000  0.5439640000000  0.4078040000000 1.0
C      1  0.4773620000000  0.4269600000000  0.4379440000000 1.0
C      1  0.4596730000000  0.5002020000000  0.4221030000000 1.0
C      1  0.5492060000000  0.4650720000000  0.4666430000000 1.0
C      1  0.4727480000000  0.5737080000000  0.5244450000000 1.0
C      1  0.4909470000000  0.5716760000000  0.5453460000000 1.0
C      1  0.5966620000000  0.4650110000000  0.5324850000000 1.0
C      1  0.4314210000000  0.5271850000000  0.5562570000000 1.0
C      1  0.4025630000000  0.5288930000000  0.4653640000000 1.0
C      1  0.4073350000000  0.5529480000000  0.5010510000000 1.0
C      1  0.4897530000000  0.4304190000000  0.5266550000000 1.0
C      1  0.5185860000000  0.5072230000000  0.5966050000000 1.0
C      1  0.4284610000000  0.4453700000000  0.4853420000000 1.0
C      1  0.4617700000000  0.4737310000000  0.4329970000000 1.0
C      1  0.5354490000000  0.5193330000000  0.5358470000000 1.0
C      1  0.5663430000000  0.5631000000000  0.4894610000000 1.0
C      1  0.4688910000000  0.4109450000000  0.4987140000000 1.0
C      1  0.4442340000000  0.4867070000000  0.5242230000000 1.0
C      1  0.4525010000000  0.5475090000000  0.5253690000000 1.0
C      1  0.5030840000000  0.4945480000000  0.5620470000000 1.0
C      1  0.5462400000000  0.4370650000000  0.5603850000000 1.0
C      1  0.4328000000000  0.5455610000000  0.4189090000000 1.0
C      1  0.4446370000000  0.4979780000000  0.4770680000000 1.0
C      1  0.5013460000000  0.5365480000000  0.5221420000000 1.0
C      1  0.4851200000000  0.5004850000000  0.5169120000000 1.0
C      1  0.4627120000000  0.5365320000000  0.5552080000000 1.0
C      1  0.4954780000000  0.4831050000000  0.5930570000000 1.0
C      1  0.5498150000000  0.4993590000000  0.5043570000000 1.0
C      1  0.4204970000000  0.4483860000000  0.5421990000000 1.0
C      1  0.5824550000000  0.4794800000000  0.4479240000000 1.0
C      1  0.5498510000000  0.5515480000000  0.5546430000000 1.0
C      1  0.4619980000000  0.5906300000000  0.4691130000000 1.0
C      1  0.5293780000000  0.4575420000000  0.5629540000000 1.0
C      1  0.4856070000000  0.4828620000000  0.5410340000000 1.0
C      1  0.4522210000000  0.5110780000000  0.5756550000000 1.0
C      1  0.4892250000000  0.5481570000000  0.4456530000000 1.0
C      1  0.5223200000000  0.5071070000000  0.4492510000000 1.0
C      1  0.4204880000000  0.5079620000000  0.4553030000000 1.0
C      1  0.4989570000000  0.4564410000000  0.5732120000000 1.0
C      1  0.4808460000000  0.4746730000000  0.4545010000000 1.0
C      1  0.5292030000000  0.5716710000000  0.5011040000000 1.0
C      1  0.5079520000000  0.4006010000000  0.4716760000000 1.0
C      1  0.5063210000000  0.4588400000000  0.4423460000000 1.0
C      1  0.4598060000000  0.4457590000000  0.4255720000000 1.0
C      1  0.3997280000000  0.5243970000000  0.5565800000000 1.0
C      1  0.5010590000000  0.4242040000000  0.4951690000000 1.0
C      1  0.4847470000000  0.5101450000000  0.4139700000000 1.0
C      1  0.4826930000000  0.5128410000000  0.5806570000000 1.0
C      1  0.5264790000000  0.4402530000000  0.4005560000000 1.0
C      1  0.4131500000000  0.4927610000000  0.4888200000000 1.0
C      1  0.4600880000000  0.5391040000000  0.4606560000000 1.0
C      1  0.5825210000000  0.4983290000000  0.5603440000000 1.0
C      1  0.5002330000000  0.5554670000000  0.4937030000000 1.0
C      1  0.5174860000000  0.5087130000000  0.5110000000000 1.0
C      1  0.5484950000000  0.4330260000000  0.4736520000000 1.0
C      1  0.5301520000000  0.5485230000000  0.5192280000000 1.0
C      1  0.5546750000000  0.5857220000000  0.5062380000000 1.0
C      1  0.5007720000000  0.5215260000000  0.4373920000000 1.0
C      1  0.5862380000000  0.5145650000000  0.4876880000000 1.0
C      1  0.5791170000000  0.4853800000000  0.5145170000000 1.0
C      1  0.4439600000000  0.5682270000000  0.4223810000000 1.0
C      1  0.4761630000000  0.4534500000000  0.5476770000000 1.0
C      1  0.5231010000000  0.4786960000000  0.4577490000000 1.0
C      1  0.4359060000000  0.5629080000000  0.5025090000000 1.0
C      1  0.4003850000000  0.4621750000000  0.5277540000000 1.0
C      1  0.5175070000000  0.4703100000000  0.5208300000000 1.0
C      1  0.5648180000000  0.5695320000000  0.4620710000000 1.0
C      1  0.4831740000000  0.4848230000000  0.4869240000000 1.0
C      1  0.5046600000000  0.5268580000000  0.4782130000000 1.0
C      1  0.4921200000000  0.4384680000000  0.4656100000000 1.0
C      1  0.5986120000000  0.4749650000000  0.5582440000000 1.0
C      1  0.4586180000000  0.5171670000000  0.5204920000000 1.0
C      1  0.4185780000000  0.5066570000000  0.5342810000000 1.0
C      1  0.5644050000000  0.5339510000000  0.5309330000000 1.0
C      1  0.4066040000000  0.4876280000000  0.4400970000000 1.0
C      1  0.5668260000000  0.4889420000000  0.4765990000000 1.0
C      1  0.4411890000000  0.4292720000000  0.5352000000000 1.0
C      1  0.4617320000000  0.4120380000000  0.5277800000000 1.0
C      1  0.5044490000000  0.4269860000000  0.5571240000000 1.0
C      1  0.4665170000000  0.5563180000000  0.4890750000000 1.0
C      1  0.5770840000000  0.5074240000000  0.4393070000000 1.0
C      1  0.5531560000000  0.4183320000000  0.4502780000000 1.0
C      1  0.5621230000000  0.4370740000000  0.5145910000000 1.0
C      1  0.5445950000000  0.5000500000000  0.5944840000000 1.0
C      1  0.5333990000000  0.5523680000000  0.5732530000000 1.0
C      1  0.4946460000000  0.4032130000000  0.4470970000000 1.0
C      1  0.4387140000000  0.5901420000000  0.4863280000000 1.0
C      1  0.5242720000000  0.5595940000000  0.4307420000000 1.0
C      1  0.5144090000000  0.4871940000000  0.4000940000000 1.0
C      1  0.5090150000000  0.5342140000000  0.5817950000000 1.0
C      1  0.5544720000000  0.4211980000000  0.5391130000000 1.0
C      1  0.5523000000000  0.3932500000000  0.5252370000000 1.0
C      1  0.5316570000000  0.4873220000000  0.5467010000000 1.0
C      1  0.6029250000000  0.5085400000000  0.5137500000000 1.0
C      1  0.5632480000000  0.6082640000000  0.5169660000000 1.0
C      1  0.5120600000000  0.5178200000000  0.3994130000000 1.0
C      1  0.4427250000000  0.5216770000000  0.4371130000000 1.0
END
