TITL C-2848508-1660-334 -0.00319356901149714 125000 -1065.07563785231 0 0 200 (C1) n - 1
REM
REM in /home/bkarasulu/work/CARBON/AIRSS/Generating-Clusters/AIREBO/with-SteepDescent/Only-C1/SD-CG-opt/Try1-1.4A-POS3A/HFTN-CG
REM
REM
REM
REM
REM
REM ./C.cell (11c1c37f851c82e70ff6c80c92926a4b)
REM
REM compiler GCC version 9.2.1 20190827 (Red Hat 9.2.1-1)
REM options -cpp -mtune=generic -march=x86-64 -g -O0 -fpre-include=/usr/include/finclude/math-vector-fortran.h
REM seed -227585773 1503914840 577354 -1905256323 -554956373 1750346592 -802610263 876518645 1248252454 911515051 -732786280 -89559041 1611760459 -767557442 -847102565 -1289037241 671251700 450574548 -34183743 -917501479 -578491605 1982375009 -1085585132 -1525802237 -1391488586 1166950194 631417872 1891029436 780062606 1049349606 -2109307994 -2081567079 -32872630
REM
CELL 1.54180   50.00000   50.00000   50.00000   90.00000   90.00000   90.00000
LATT -1
SFAC C  
C      1  0.5513350000000  0.4871870000000  0.5783890000000 1.0
C      1  0.5194010000000  0.5760110000000  0.5273670000000 1.0
C      1  0.4991590000000  0.4281210000000  0.4914250000000 1.0
C      1  0.4926400000000  0.5241150000000  0.5301270000000 1.0
C      1  0.4275750000000  0.4412980000000  0.4830560000000 1.0
C      1  0.5484570000000  0.4515550000000  0.6081680000000 1.0
C      1  0.4842520000000  0.5881960000000  0.5586450000000 1.0
C      1  0.4120190000000  0.4780300000000  0.5004260000000 1.0
C      1  0.4850800000000  0.5544600000000  0.5544570000000 1.0
C      1  0.4628060000000  0.4421990000000  0.3926410000000 1.0
C      1  0.4947090000000  0.5347840000000  0.4419180000000 1.0
C      1  0.4701390000000  0.5565500000000  0.4736570000000 1.0
C      1  0.4358860000000  0.4436870000000  0.4073100000000 1.0
C      1  0.5681770000000  0.5333570000000  0.4434360000000 1.0
C      1  0.6108380000000  0.4774140000000  0.5098420000000 1.0
C      1  0.5949650000000  0.5615460000000  0.4526960000000 1.0
C      1  0.5656620000000  0.5267240000000  0.4101600000000 1.0
C      1  0.5159210000000  0.4171850000000  0.5696850000000 1.0
C      1  0.5426220000000  0.5502280000000  0.5800020000000 1.0
C      1  0.6103280000000  0.4491490000000  0.4977360000000 1.0
C      1  0.4142860000000  0.4597890000000  0.4490980000000 1.0
C      1  0.4549030000000  0.5116350000000  0.4157990000000 1.0
C      1  0.4978400000000  0.4954570000000  0.5368200000000 1.0
C      1  0.6091350000000  0.4486290000000  0.4692540000000 1.0
C      1  0.5246820000000  0.5989660000000  0.4765400000000 1.0
C      1  0.4978140000000  0.5761590000000  0.4940410000000 1.0
C      1  0.4589100000000  0.4970540000000  0.4859840000000 1.0
C      1  0.4721210000000  0.4166920000000  0.4743060000000 1.0
C      1  0.5820020000000  0.4802670000000  0.5828710000000 1.0
C      1  0.5461180000000  0.4823270000000  0.4350290000000 1.0
C      1  0.4057840000000  0.5701610000000  0.4983190000000 1.0
C      1  0.6083310000000  0.4911640000000  0.5408500000000 1.0
C      1  0.5782860000000  0.5412260000000  0.4725380000000 1.0
C      1  0.4505480000000  0.4524010000000  0.5318720000000 1.0
C      1  0.4562490000000  0.5625530000000  0.5706120000000 1.0
C      1  0.5899080000000  0.4290470000000  0.5105250000000 1.0
C      1  0.5251200000000  0.4330750000000  0.4491750000000 1.0
C      1  0.4698230000000  0.6241890000000  0.4928860000000 1.0
C      1  0.5244780000000  0.5246590000000  0.5668200000000 1.0
C      1  0.5929790000000  0.4917050000000  0.4712200000000 1.0
C      1  0.4305130000000  0.5424630000000  0.5789180000000 1.0
C      1  0.4318290000000  0.5277980000000  0.4784060000000 1.0
C      1  0.4920440000000  0.3823090000000  0.4753780000000 1.0
C      1  0.5321530000000  0.4877710000000  0.3936290000000 1.0
C      1  0.5878140000000  0.5427580000000  0.5513460000000 1.0
C      1  0.4926630000000  0.4729670000000  0.4645350000000 1.0
C      1  0.5316210000000  0.4481500000000  0.3958890000000 1.0
C      1  0.4280400000000  0.5844860000000  0.4783830000000 1.0
C      1  0.5566770000000  0.4605070000000  0.4111750000000 1.0
C      1  0.4033610000000  0.5421050000000  0.4827610000000 1.0
C      1  0.4439390000000  0.5127980000000  0.5456600000000 1.0
C      1  0.5795410000000  0.4869550000000  0.4307190000000 1.0
C      1  0.4776890000000  0.4536780000000  0.4882240000000 1.0
C      1  0.4911590000000  0.4708950000000  0.5142710000000 1.0
C      1  0.5690760000000  0.5123120000000  0.4838890000000 1.0
C      1  0.4565650000000  0.5364940000000  0.4920690000000 1.0
C      1  0.4807800000000  0.4219450000000  0.5409740000000 1.0
C      1  0.4611300000000  0.4831770000000  0.4333410000000 1.0
C      1  0.5277400000000  0.5771260000000  0.5810600000000 1.0
C      1  0.5438650000000  0.4850270000000  0.4680730000000 1.0
C      1  0.5887950000000  0.5713030000000  0.4275300000000 1.0
C      1  0.4442490000000  0.4130330000000  0.4603550000000 1.0
C      1  0.4001570000000  0.5254990000000  0.5266390000000 1.0
C      1  0.4601950000000  0.5811090000000  0.5131690000000 1.0
C      1  0.5967550000000  0.4644960000000  0.4414860000000 1.0
C      1  0.4613960000000  0.4775150000000  0.5497450000000 1.0
C      1  0.5157350000000  0.4040290000000  0.4641710000000 1.0
C      1  0.4672080000000  0.4063720000000  0.4361620000000 1.0
C      1  0.6197370000000  0.5030590000000  0.4893680000000 1.0
C      1  0.4990280000000  0.4831220000000  0.3872920000000 1.0
C      1  0.4993450000000  0.5758950000000  0.4393110000000 1.0
C      1  0.4611040000000  0.5372300000000  0.4373140000000 1.0
C      1  0.4327300000000  0.4280040000000  0.5576280000000 1.0
C      1  0.4164990000000  0.5094460000000  0.5612820000000 1.0
C      1  0.5445060000000  0.5275570000000  0.6053300000000 1.0
C      1  0.4532430000000  0.5953690000000  0.5687900000000 1.0
C      1  0.6152790000000  0.5142480000000  0.4589480000000 1.0
C      1  0.4885320000000  0.4229630000000  0.5699620000000 1.0
C      1  0.5984380000000  0.5266870000000  0.5720320000000 1.0
C      1  0.5598450000000  0.4182430000000  0.4633700000000 1.0
C      1  0.4835680000000  0.5534720000000  0.4062600000000 1.0
C      1  0.5306510000000  0.5859440000000  0.4479710000000 1.0
C      1  0.5113380000000  0.4142750000000  0.5169310000000 1.0
C      1  0.4295530000000  0.4874240000000  0.5280050000000 1.0
C      1  0.4730550000000  0.4698600000000  0.3878480000000 1.0
C      1  0.5232260000000  0.4405750000000  0.4792070000000 1.0
C      1  0.5665600000000  0.5607380000000  0.4150570000000 1.0
C      1  0.5717980000000  0.4168260000000  0.5317100000000 1.0
C      1  0.4322680000000  0.4733370000000  0.4235280000000 1.0
C      1  0.4226280000000  0.4869320000000  0.5827560000000 1.0
C      1  0.3958770000000  0.5132840000000  0.4426640000000 1.0
C      1  0.4485680000000  0.4856030000000  0.3957270000000 1.0
C      1  0.3663500000000  0.4865290000000  0.5259350000000 1.0
C      1  0.4018840000000  0.5833120000000  0.5359450000000 1.0
C      1  0.4705910000000  0.4280170000000  0.4187530000000 1.0
C      1  0.3920930000000  0.4657120000000  0.5345620000000 1.0
C      1  0.4487090000000  0.5527610000000  0.5179220000000 1.0
C      1  0.5332880000000  0.5430430000000  0.4689970000000 1.0
C      1  0.5647390000000  0.4931360000000  0.4014550000000 1.0
C      1  0.4900090000000  0.5291800000000  0.6146650000000 1.0
C      1  0.4896200000000  0.3928390000000  0.4454890000000 1.0
C      1  0.4847590000000  0.5572550000000  0.5979420000000 1.0
C      1  0.5362960000000  0.6011090000000  0.5383090000000 1.0
C      1  0.4934840000000  0.5458600000000  0.5042740000000 1.0
C      1  0.5029940000000  0.5563360000000  0.4668870000000 1.0
C      1  0.5037120000000  0.4900110000000  0.6063490000000 1.0
C      1  0.5827240000000  0.5588650000000  0.5079000000000 1.0
C      1  0.5193240000000  0.5906560000000  0.4160960000000 1.0
C      1  0.4176170000000  0.5546870000000  0.5261940000000 1.0
C      1  0.5702340000000  0.4723460000000  0.4843400000000 1.0
C      1  0.4367970000000  0.4374100000000  0.4399320000000 1.0
C      1  0.4886730000000  0.5821990000000  0.5262380000000 1.0
C      1  0.5393400000000  0.4045880000000  0.4858180000000 1.0
C      1  0.3918390000000  0.5140070000000  0.4751280000000 1.0
C      1  0.4693070000000  0.4358720000000  0.5842870000000 1.0
C      1  0.5537720000000  0.5485810000000  0.4933110000000 1.0
C      1  0.5540630000000  0.4407020000000  0.4375200000000 1.0
C      1  0.5187290000000  0.4695140000000  0.4189850000000 1.0
C      1  0.5382580000000  0.5931370000000  0.5049990000000 1.0
C      1  0.5754820000000  0.4595350000000  0.5148460000000 1.0
C      1  0.6111150000000  0.5170560000000  0.5184900000000 1.0
C      1  0.4943290000000  0.3922670000000  0.5313960000000 1.0
C      1  0.4713520000000  0.5060680000000  0.5646350000000 1.0
C      1  0.3876640000000  0.5938950000000  0.5144750000000 1.0
C      1  0.5663930000000  0.4338380000000  0.5607990000000 1.0
C      1  0.3922320000000  0.4982210000000  0.5445250000000 1.0
C      1  0.5257760000000  0.5077280000000  0.4274580000000 1.0
C      1  0.4800280000000  0.5263340000000  0.4039950000000 1.0
C      1  0.5765350000000  0.4792040000000  0.5425820000000 1.0
C      1  0.5515310000000  0.4634730000000  0.5567280000000 1.0
C      1  0.4628720000000  0.5359510000000  0.5387490000000 1.0
C      1  0.4755390000000  0.4536480000000  0.4343310000000 1.0
C      1  0.3954560000000  0.4493860000000  0.4753590000000 1.0
C      1  0.4420730000000  0.4714740000000  0.4859280000000 1.0
C      1  0.5383130000000  0.5122210000000  0.4993270000000 1.0
C      1  0.5056540000000  0.4548210000000  0.4408110000000 1.0
C      1  0.5853980000000  0.4995230000000  0.5093900000000 1.0
C      1  0.4431550000000  0.5185730000000  0.5997110000000 1.0
C      1  0.5688420000000  0.5841820000000  0.5033180000000 1.0
C      1  0.5913020000000  0.5133990000000  0.4377850000000 1.0
C      1  0.5195490000000  0.5401460000000  0.4193100000000 1.0
C      1  0.4210180000000  0.4083620000000  0.4842620000000 1.0
C      1  0.5983400000000  0.5439140000000  0.5255720000000 1.0
C      1  0.4538020000000  0.6128940000000  0.5092800000000 1.0
C      1  0.5427840000000  0.5555040000000  0.4388160000000 1.0
C      1  0.4119880000000  0.4197790000000  0.5126640000000 1.0
C      1  0.4955370000000  0.5046620000000  0.4566750000000 1.0
C      1  0.5568670000000  0.5456840000000  0.5502610000000 1.0
C      1  0.4298510000000  0.5504280000000  0.4396460000000 1.0
C      1  0.5001550000000  0.5763020000000  0.5841480000000 1.0
C      1  0.5360030000000  0.4287380000000  0.5447790000000 1.0
C      1  0.5530840000000  0.4349300000000  0.4926460000000 1.0
C      1  0.5093920000000  0.4943380000000  0.4986530000000 1.0
C      1  0.5205460000000  0.4577210000000  0.5535800000000 1.0
C      1  0.4617270000000  0.5084140000000  0.4561210000000 1.0
C      1  0.4093630000000  0.5413610000000  0.5563910000000 1.0
C      1  0.5452670000000  0.5942090000000  0.5641640000000 1.0
C      1  0.4455650000000  0.4564230000000  0.5712240000000 1.0
C      1  0.5369420000000  0.5213220000000  0.3969420000000 1.0
C      1  0.3984480000000  0.4480770000000  0.5092200000000 1.0
C      1  0.4606180000000  0.4097320000000  0.5190870000000 1.0
C      1  0.4318500000000  0.4170640000000  0.5322940000000 1.0
C      1  0.4192710000000  0.4702580000000  0.5541770000000 1.0
C      1  0.5415670000000  0.5379530000000  0.5213300000000 1.0
C      1  0.5431440000000  0.4071090000000  0.5195190000000 1.0
C      1  0.3883620000000  0.5020040000000  0.5050780000000 1.0
C      1  0.5028120000000  0.4454260000000  0.5300120000000 1.0
C      1  0.5434910000000  0.4505940000000  0.5198240000000 1.0
C      1  0.4720550000000  0.5026280000000  0.6081850000000 1.0
C      1  0.4838200000000  0.5161080000000  0.4927000000000 1.0
C      1  0.5317100000000  0.4689000000000  0.4943130000000 1.0
C      1  0.5231320000000  0.4615780000000  0.6080590000000 1.0
C      1  0.4182420000000  0.5613000000000  0.4614580000000 1.0
C      1  0.4695810000000  0.5693700000000  0.4300800000000 1.0
C      1  0.5706050000000  0.4517780000000  0.5895400000000 1.0
C      1  0.5023550000000  0.4988450000000  0.5674070000000 1.0
C      1  0.5463310000000  0.5038710000000  0.5513260000000 1.0
C      1  0.5363810000000  0.4980360000000  0.6010720000000 1.0
C      1  0.4095960000000  0.4854300000000  0.4673150000000 1.0
C      1  0.5003570000000  0.5081910000000  0.4048530000000 1.0
C      1  0.5986570000000  0.4984030000000  0.5698220000000 1.0
C      1  0.5677970000000  0.5756180000000  0.5621170000000 1.0
C      1  0.5978950000000  0.4528000000000  0.5408700000000 1.0
C      1  0.4615680000000  0.4871260000000  0.5171210000000 1.0
C      1  0.5157980000000  0.5460690000000  0.5418630000000 1.0
C      1  0.4762920000000  0.3953100000000  0.4968870000000 1.0
C      1  0.4673650000000  0.5325950000000  0.5822550000000 1.0
C      1  0.4503000000000  0.4797920000000  0.5954760000000 1.0
C      1  0.4527440000000  0.4388500000000  0.5059570000000 1.0
C      1  0.4553250000000  0.5916090000000  0.4466800000000 1.0
C      1  0.5123500000000  0.4716280000000  0.5790810000000 1.0
C      1  0.5262470000000  0.5124840000000  0.4675220000000 1.0
C      1  0.5758180000000  0.4482500000000  0.4625380000000 1.0
C      1  0.4912150000000  0.6044690000000  0.4790110000000 1.0
C      1  0.4575010000000  0.4544260000000  0.4608640000000 1.0
C      1  0.4278230000000  0.5095930000000  0.4537160000000 1.0
C      1  0.4618760000000  0.5872540000000  0.4797620000000 1.0
C      1  0.5136960000000  0.5301070000000  0.5986140000000 1.0
C      1  0.5564320000000  0.4962070000000  0.5210700000000 1.0
C      1  0.5101980000000  0.5654480000000  0.4019690000000 1.0
END
