TITL C-2848497-6229-581 -0.00170955052837501 125000 -609.613070220371 0 0 113 (C1) n - 1
REM
REM in /home/bkarasulu/work/CARBON/AIRSS/Generating-Clusters/AIREBO/with-SteepDescent/Only-C1/SD-CG-opt/Try1-1.4A-POS3A/HFTN-CG
REM
REM
REM
REM
REM
REM ./C.cell (11c1c37f851c82e70ff6c80c92926a4b)
REM
REM compiler GCC version 9.2.1 20190827 (Red Hat 9.2.1-1)
REM options -cpp -mtune=generic -march=x86-64 -g -O0 -fpre-include=/usr/include/finclude/math-vector-fortran.h
REM seed -1365840910 408840099 1390086784 2039011563 -732769671 -133930563 1765497968 -1384213129 -644896110 -1848832575 -397284657 -165983467 -395867138 1952435028 -889022768 -69302702 1610434929 2144133886 -498071086 -218292616 -1950308803 663642395 1392902801 -645902330 -1334175516 758321446 -1171653019 1709025823 -1193183273 -835137927 829175924 542742480 -734728437
REM
CELL 1.54180   50.00000   50.00000   50.00000   90.00000   90.00000   90.00000
LATT -1
SFAC C  
C      1  0.5393990000000  0.4950540000000  0.5432190000000 1.0
C      1  0.4930940000000  0.4868350000000  0.5507160000000 1.0
C      1  0.5463880000000  0.4488880000000  0.5328330000000 1.0
C      1  0.5783330000000  0.4591720000000  0.5114660000000 1.0
C      1  0.4198660000000  0.4669670000000  0.4894490000000 1.0
C      1  0.5373830000000  0.4647070000000  0.4261360000000 1.0
C      1  0.5639960000000  0.5570130000000  0.5405120000000 1.0
C      1  0.4906600000000  0.5436710000000  0.4351880000000 1.0
C      1  0.5260710000000  0.5178400000000  0.5131680000000 1.0
C      1  0.5136840000000  0.6033990000000  0.5114720000000 1.0
C      1  0.4892360000000  0.4828360000000  0.4256050000000 1.0
C      1  0.5298710000000  0.4222330000000  0.5509850000000 1.0
C      1  0.5554450000000  0.4639900000000  0.4476110000000 1.0
C      1  0.4491970000000  0.5471080000000  0.4571000000000 1.0
C      1  0.5088470000000  0.4553080000000  0.4294940000000 1.0
C      1  0.5777170000000  0.5425450000000  0.4601250000000 1.0
C      1  0.5870920000000  0.5075400000000  0.5197640000000 1.0
C      1  0.5393630000000  0.5965380000000  0.5062750000000 1.0
C      1  0.5354690000000  0.5565950000000  0.4471170000000 1.0
C      1  0.5610050000000  0.4513680000000  0.5723310000000 1.0
C      1  0.5297920000000  0.5557220000000  0.4775330000000 1.0
C      1  0.4876790000000  0.3953420000000  0.5365200000000 1.0
C      1  0.4565930000000  0.5129360000000  0.5815520000000 1.0
C      1  0.4341510000000  0.5036530000000  0.5069760000000 1.0
C      1  0.5159780000000  0.4938040000000  0.5871650000000 1.0
C      1  0.5476710000000  0.5097500000000  0.4390290000000 1.0
C      1  0.5533290000000  0.4352840000000  0.5029980000000 1.0
C      1  0.5794760000000  0.5736500000000  0.5209710000000 1.0
C      1  0.4634120000000  0.4660500000000  0.5675310000000 1.0
C      1  0.4683570000000  0.5841800000000  0.5024940000000 1.0
C      1  0.5696010000000  0.4911470000000  0.5424280000000 1.0
C      1  0.4689050000000  0.5007970000000  0.4450830000000 1.0
C      1  0.5711100000000  0.5407860000000  0.4865780000000 1.0
C      1  0.4986860000000  0.5889190000000  0.4380420000000 1.0
C      1  0.4176450000000  0.4771320000000  0.5204010000000 1.0
C      1  0.4558670000000  0.5297840000000  0.5055840000000 1.0
C      1  0.4400220000000  0.4354360000000  0.4429560000000 1.0
C      1  0.4755920000000  0.4635550000000  0.4576420000000 1.0
C      1  0.4408490000000  0.4290130000000  0.5327920000000 1.0
C      1  0.4222540000000  0.5331340000000  0.4685290000000 1.0
C      1  0.4483050000000  0.5520630000000  0.5301530000000 1.0
C      1  0.5184550000000  0.5524010000000  0.5719510000000 1.0
C      1  0.4671320000000  0.4200670000000  0.5131210000000 1.0
C      1  0.5746820000000  0.4615930000000  0.5451830000000 1.0
C      1  0.4281800000000  0.5041850000000  0.4783780000000 1.0
C      1  0.4975550000000  0.5649060000000  0.4834630000000 1.0
C      1  0.4114650000000  0.4798680000000  0.4623790000000 1.0
C      1  0.5353460000000  0.5095960000000  0.5736950000000 1.0
C      1  0.4514240000000  0.4651150000000  0.4337560000000 1.0
C      1  0.4984070000000  0.5934330000000  0.4654290000000 1.0
C      1  0.4732260000000  0.5607000000000  0.5435530000000 1.0
C      1  0.4205140000000  0.5642620000000  0.5426680000000 1.0
C      1  0.4951010000000  0.5261380000000  0.5090930000000 1.0
C      1  0.4645830000000  0.5555150000000  0.4850850000000 1.0
C      1  0.5031130000000  0.4836690000000  0.4566410000000 1.0
C      1  0.4783180000000  0.5114240000000  0.4866610000000 1.0
C      1  0.5345510000000  0.5250280000000  0.4827210000000 1.0
C      1  0.4605170000000  0.4101700000000  0.4815890000000 1.0
C      1  0.4795270000000  0.4800660000000  0.4969920000000 1.0
C      1  0.4981650000000  0.4747280000000  0.5231130000000 1.0
C      1  0.4658940000000  0.5575250000000  0.4342240000000 1.0
C      1  0.4201100000000  0.5332500000000  0.5292540000000 1.0
C      1  0.4451150000000  0.4299410000000  0.4689490000000 1.0
C      1  0.5094040000000  0.5541190000000  0.5118530000000 1.0
C      1  0.4962080000000  0.5374100000000  0.5529050000000 1.0
C      1  0.5020610000000  0.4299560000000  0.4511160000000 1.0
C      1  0.5165030000000  0.4695240000000  0.4830850000000 1.0
C      1  0.5107860000000  0.4969000000000  0.4063080000000 1.0
C      1  0.5107180000000  0.5114590000000  0.5428310000000 1.0
C      1  0.5527760000000  0.5658320000000  0.5004670000000 1.0
C      1  0.5121780000000  0.5627850000000  0.4329990000000 1.0
C      1  0.5702750000000  0.4882940000000  0.4500160000000 1.0
C      1  0.5338040000000  0.4456340000000  0.5705760000000 1.0
C      1  0.4207730000000  0.4450390000000  0.5235190000000 1.0
C      1  0.4755710000000  0.4458110000000  0.5429930000000 1.0
C      1  0.5664990000000  0.5242290000000  0.5412240000000 1.0
C      1  0.4488850000000  0.4365840000000  0.5613910000000 1.0
C      1  0.5222310000000  0.5100200000000  0.4592350000000 1.0
C      1  0.5362810000000  0.4915120000000  0.4157180000000 1.0
C      1  0.5141400000000  0.5531010000000  0.6022340000000 1.0
C      1  0.5010510000000  0.5763010000000  0.5576590000000 1.0
C      1  0.4774120000000  0.4424540000000  0.4310250000000 1.0
C      1  0.5620000000000  0.5109020000000  0.4970640000000 1.0
C      1  0.4715340000000  0.5849110000000  0.4269420000000 1.0
C      1  0.5566620000000  0.5389570000000  0.4414940000000 1.0
C      1  0.5445500000000  0.4532120000000  0.4754710000000 1.0
C      1  0.4653430000000  0.4540190000000  0.5136320000000 1.0
C      1  0.5108740000000  0.4654280000000  0.5705300000000 1.0
C      1  0.4734040000000  0.5213190000000  0.5334690000000 1.0
C      1  0.4606850000000  0.4968300000000  0.5533350000000 1.0
C      1  0.5477540000000  0.5400690000000  0.5651170000000 1.0
C      1  0.4905580000000  0.4205030000000  0.4808250000000 1.0
C      1  0.4940270000000  0.5797570000000  0.5245670000000 1.0
C      1  0.4478540000000  0.4549530000000  0.4857240000000 1.0
C      1  0.4512470000000  0.4843730000000  0.4690570000000 1.0
C      1  0.5949030000000  0.4850410000000  0.4966500000000 1.0
C      1  0.5559600000000  0.4777720000000  0.4960400000000 1.0
C      1  0.5127970000000  0.4489470000000  0.5274760000000 1.0
C      1  0.4976790000000  0.4235730000000  0.5443250000000 1.0
C      1  0.4285930000000  0.4862440000000  0.4366320000000 1.0
C      1  0.4111740000000  0.5349850000000  0.4973150000000 1.0
C      1  0.5276980000000  0.4838920000000  0.5122010000000 1.0
C      1  0.4902720000000  0.4510040000000  0.4829740000000 1.0
C      1  0.4395590000000  0.5178130000000  0.4427570000000 1.0
C      1  0.4299060000000  0.5023020000000  0.5397140000000 1.0
C      1  0.5905430000000  0.4883350000000  0.4698320000000 1.0
C      1  0.4901830000000  0.5210050000000  0.4562020000000 1.0
C      1  0.5375100000000  0.5475020000000  0.5246980000000 1.0
C      1  0.4903630000000  0.6031040000000  0.4923590000000 1.0
C      1  0.4856260000000  0.4784870000000  0.5888380000000 1.0
C      1  0.4981710000000  0.4067760000000  0.5081590000000 1.0
C      1  0.5302380000000  0.4260650000000  0.4616160000000 1.0
C      1  0.5260060000000  0.4196320000000  0.5164150000000 1.0
END
