TITL C-2848496-4490-505 0.000172544110438721 125000 -214.089286379506 0 0 41 (C1) n - 1
REM
REM in /home/bkarasulu/work/CARBON/AIRSS/Generating-Clusters/AIREBO/with-SteepDescent/Only-C1/SD-CG-opt/Try1-1.4A-POS3A/HFTN-CG
REM
REM
REM
REM
REM
REM ./C.cell (11c1c37f851c82e70ff6c80c92926a4b)
REM
REM compiler GCC version 9.2.1 20190827 (Red Hat 9.2.1-1)
REM options -cpp -mtune=generic -march=x86-64 -g -O0 -fpre-include=/usr/include/finclude/math-vector-fortran.h
REM seed 897610465 81573932 405489692 1417967422 -1950464276 -1679477644 -420525656 827139423 -692092544 -1853783860 -792417187 -748330689 -649424405 1382963003 1118965212 196192719 -2059689413 -1058292319 -879186611 2016415486 -719365620 -1872768954 1212879871 513254036 1649279446 986075968 565936281 753044091 1713179895 349935754 -97942645 799196357 -39075010
REM
CELL 1.54180   50.00000   50.00000   50.00000   90.00000   90.00000   90.00000
LATT -1
SFAC C  
C      1  0.5007560000000  0.5592240000000  0.5338610000000 1.0
C      1  0.5553040000000  0.5302610000000  0.4623930000000 1.0
C      1  0.4627810000000  0.4282090000000  0.5006320000000 1.0
C      1  0.5259660000000  0.5175320000000  0.5165560000000 1.0
C      1  0.4679830000000  0.4498140000000  0.4703160000000 1.0
C      1  0.4719310000000  0.4957150000000  0.4855830000000 1.0
C      1  0.5589790000000  0.5106560000000  0.5212610000000 1.0
C      1  0.4450740000000  0.5131050000000  0.4781740000000 1.0
C      1  0.5150130000000  0.5495250000000  0.5129850000000 1.0
C      1  0.5020660000000  0.5400030000000  0.4666810000000 1.0
C      1  0.4415830000000  0.4921090000000  0.5281630000000 1.0
C      1  0.5245430000000  0.4880380000000  0.4774790000000 1.0
C      1  0.5034840000000  0.4976550000000  0.4423650000000 1.0
C      1  0.4951190000000  0.5092380000000  0.4707670000000 1.0
C      1  0.4647200000000  0.5497980000000  0.5697980000000 1.0
C      1  0.4738040000000  0.4697450000000  0.5350780000000 1.0
C      1  0.4543830000000  0.5296070000000  0.5227060000000 1.0
C      1  0.5256970000000  0.5224020000000  0.4497110000000 1.0
C      1  0.4458300000000  0.4813280000000  0.5019560000000 1.0
C      1  0.4399160000000  0.5297890000000  0.5002560000000 1.0
C      1  0.5633320000000  0.4865090000000  0.5403700000000 1.0
C      1  0.4721320000000  0.5038490000000  0.5360320000000 1.0
C      1  0.4856820000000  0.4791240000000  0.4340850000000 1.0
C      1  0.5030600000000  0.4729440000000  0.5437850000000 1.0
C      1  0.4759710000000  0.4243820000000  0.4613450000000 1.0
C      1  0.4754430000000  0.5424220000000  0.5454120000000 1.0
C      1  0.4716010000000  0.4596680000000  0.5026580000000 1.0
C      1  0.4438630000000  0.4717560000000  0.5510730000000 1.0
C      1  0.5172060000000  0.4848320000000  0.5198520000000 1.0
C      1  0.4639970000000  0.4714410000000  0.4512850000000 1.0
C      1  0.6041520000000  0.5279430000000  0.4637510000000 1.0
C      1  0.5795880000000  0.5213710000000  0.4720420000000 1.0
C      1  0.5088450000000  0.5565830000000  0.4866080000000 1.0
C      1  0.5000660000000  0.5196220000000  0.5384940000000 1.0
C      1  0.5731720000000  0.5048760000000  0.4942220000000 1.0
C      1  0.4442460000000  0.4912900000000  0.4571760000000 1.0
C      1  0.5136560000000  0.4650700000000  0.5661430000000 1.0
C      1  0.5317600000000  0.5191250000000  0.4830740000000 1.0
C      1  0.5519450000000  0.4828440000000  0.4923840000000 1.0
C      1  0.4993040000000  0.4776150000000  0.4945050000000 1.0
C      1  0.5460480000000  0.4729820000000  0.5189840000000 1.0
END
