TITL C-2848509-3138-28 -0.00165215320559266 125000 -589.583253023357 0 0 112 (C1) n - 1
REM
REM in /home/bkarasulu/work/CARBON/AIRSS/Generating-Clusters/AIREBO/with-SteepDescent/Only-C1/SD-CG-opt/Try1-1.4A-POS3A/HFTN-CG
REM
REM
REM
REM
REM
REM ./C.cell (11c1c37f851c82e70ff6c80c92926a4b)
REM
REM compiler GCC version 9.2.1 20190827 (Red Hat 9.2.1-1)
REM options -cpp -mtune=generic -march=x86-64 -g -O0 -fpre-include=/usr/include/finclude/math-vector-fortran.h
REM seed -1263797932 -540983924 2141769909 -1699147994 1389048344 -144563691 -881199298 -1004992699 -286318133 -339498113 1302090172 -1829139063 2067525214 -13631136 1800333797 -1343686131 -1511097575 -556798232 1726723630 -2028460965 -622755262 -1816090807 -1463204029 -1148145616 1151022036 1711896618 -296425807 1643577212 815519718 1713329332 858919761 191390099 -1849162170
REM
CELL 1.54180   50.00000   50.00000   50.00000   90.00000   90.00000   90.00000
LATT -1
SFAC C  
C      1  0.4753010000000  0.4601120000000  0.4788740000000 1.0
C      1  0.4306350000000  0.5151470000000  0.5490400000000 1.0
C      1  0.5803000000000  0.4621350000000  0.5448140000000 1.0
C      1  0.5513770000000  0.4889090000000  0.4693300000000 1.0
C      1  0.5160740000000  0.4455660000000  0.4385630000000 1.0
C      1  0.5271250000000  0.5371660000000  0.4718330000000 1.0
C      1  0.5340000000000  0.4774800000000  0.5792080000000 1.0
C      1  0.5391430000000  0.4632120000000  0.4880690000000 1.0
C      1  0.5180580000000  0.4440440000000  0.4699040000000 1.0
C      1  0.4631030000000  0.5727900000000  0.4378000000000 1.0
C      1  0.4600490000000  0.4252970000000  0.4519270000000 1.0
C      1  0.4579420000000  0.5137550000000  0.4965400000000 1.0
C      1  0.4267780000000  0.5166440000000  0.4927170000000 1.0
C      1  0.5104350000000  0.6097480000000  0.4772970000000 1.0
C      1  0.4686100000000  0.5044600000000  0.5275000000000 1.0
C      1  0.5733700000000  0.5734290000000  0.4536770000000 1.0
C      1  0.4920710000000  0.5222250000000  0.5803570000000 1.0
C      1  0.4920250000000  0.3982510000000  0.4768260000000 1.0
C      1  0.4561920000000  0.4237550000000  0.5265980000000 1.0
C      1  0.4275410000000  0.4722450000000  0.5104610000000 1.0
C      1  0.4875660000000  0.5160550000000  0.4317190000000 1.0
C      1  0.5776360000000  0.5125850000000  0.5497310000000 1.0
C      1  0.5692570000000  0.5104260000000  0.4886760000000 1.0
C      1  0.4862190000000  0.5428360000000  0.4477040000000 1.0
C      1  0.5823780000000  0.4801380000000  0.5269340000000 1.0
C      1  0.5751360000000  0.5797730000000  0.5624970000000 1.0
C      1  0.4886410000000  0.5174310000000  0.4013440000000 1.0
C      1  0.4481960000000  0.4255210000000  0.4999560000000 1.0
C      1  0.4184270000000  0.5521130000000  0.5226620000000 1.0
C      1  0.4689390000000  0.5774790000000  0.5452670000000 1.0
C      1  0.5255060000000  0.4343510000000  0.5224700000000 1.0
C      1  0.5431720000000  0.4458300000000  0.4319400000000 1.0
C      1  0.4415970000000  0.5578690000000  0.4816660000000 1.0
C      1  0.4650690000000  0.4551150000000  0.5362950000000 1.0
C      1  0.4290720000000  0.4451000000000  0.4930170000000 1.0
C      1  0.4524220000000  0.4845320000000  0.5685110000000 1.0
C      1  0.5095730000000  0.5345610000000  0.5429720000000 1.0
C      1  0.4778870000000  0.5340980000000  0.4779740000000 1.0
C      1  0.4601920000000  0.4690650000000  0.5057690000000 1.0
C      1  0.4933910000000  0.5414390000000  0.5139180000000 1.0
C      1  0.4358800000000  0.4514730000000  0.5533770000000 1.0
C      1  0.5091710000000  0.5003040000000  0.5387720000000 1.0
C      1  0.4876420000000  0.4882540000000  0.5044410000000 1.0
C      1  0.4679470000000  0.5566130000000  0.4971900000000 1.0
C      1  0.5759250000000  0.5094420000000  0.4558640000000 1.0
C      1  0.4907860000000  0.4012600000000  0.5452740000000 1.0
C      1  0.4861320000000  0.4801150000000  0.5435360000000 1.0
C      1  0.5006650000000  0.5843800000000  0.4813920000000 1.0
C      1  0.5570920000000  0.4918560000000  0.5581320000000 1.0
C      1  0.5063470000000  0.5143360000000  0.4977580000000 1.0
C      1  0.5378640000000  0.5162770000000  0.5476090000000 1.0
C      1  0.4299610000000  0.4975000000000  0.4420850000000 1.0
C      1  0.5465430000000  0.4112800000000  0.4664770000000 1.0
C      1  0.5187690000000  0.3988930000000  0.4770030000000 1.0
C      1  0.4186160000000  0.4800330000000  0.4624890000000 1.0
C      1  0.4368210000000  0.5398070000000  0.5400420000000 1.0
C      1  0.4752210000000  0.4263290000000  0.4823400000000 1.0
C      1  0.5782610000000  0.5418810000000  0.4658210000000 1.0
C      1  0.4751940000000  0.4709280000000  0.4472090000000 1.0
C      1  0.5291240000000  0.5555780000000  0.5612120000000 1.0
C      1  0.5303500000000  0.5461900000000  0.4976110000000 1.0
C      1  0.5134860000000  0.4979040000000  0.5906480000000 1.0
C      1  0.5482600000000  0.4592340000000  0.5543000000000 1.0
C      1  0.5169460000000  0.5178240000000  0.4457830000000 1.0
C      1  0.4790050000000  0.4418270000000  0.5733070000000 1.0
C      1  0.4692820000000  0.5227400000000  0.5561920000000 1.0
C      1  0.4337600000000  0.4326900000000  0.4478020000000 1.0
C      1  0.4823880000000  0.4897860000000  0.5843670000000 1.0
C      1  0.4409340000000  0.4869550000000  0.5365710000000 1.0
C      1  0.4540560000000  0.5212460000000  0.4627800000000 1.0
C      1  0.4161680000000  0.4915650000000  0.4888650000000 1.0
C      1  0.4632770000000  0.4973600000000  0.4420970000000 1.0
C      1  0.5195000000000  0.4410080000000  0.5550440000000 1.0
C      1  0.5317330000000  0.4243380000000  0.4938850000000 1.0
C      1  0.4425430000000  0.5504290000000  0.4495410000000 1.0
C      1  0.5451610000000  0.5289310000000  0.5168950000000 1.0
C      1  0.4682970000000  0.5476030000000  0.5360480000000 1.0
C      1  0.5807030000000  0.4475190000000  0.4440290000000 1.0
C      1  0.4233340000000  0.5248740000000  0.4376130000000 1.0
C      1  0.5795680000000  0.5389040000000  0.4997690000000 1.0
C      1  0.5107240000000  0.5694800000000  0.5055690000000 1.0
C      1  0.5529130000000  0.4961930000000  0.4201720000000 1.0
C      1  0.4211210000000  0.5442770000000  0.4956830000000 1.0
C      1  0.5296000000000  0.5845800000000  0.5477440000000 1.0
C      1  0.4916190000000  0.4523220000000  0.4281790000000 1.0
C      1  0.4521130000000  0.5154860000000  0.5822300000000 1.0
C      1  0.5319730000000  0.5200540000000  0.5792880000000 1.0
C      1  0.5480820000000  0.5697140000000  0.4336050000000 1.0
C      1  0.5429270000000  0.4626260000000  0.5218540000000 1.0
C      1  0.5040740000000  0.5483320000000  0.5819280000000 1.0
C      1  0.4827140000000  0.4465590000000  0.4030000000000 1.0
C      1  0.5583970000000  0.5406520000000  0.4381950000000 1.0
C      1  0.5017430000000  0.4665380000000  0.5688120000000 1.0
C      1  0.4840090000000  0.5724680000000  0.4643090000000 1.0
C      1  0.5030740000000  0.4732440000000  0.4643050000000 1.0
C      1  0.5221200000000  0.5737650000000  0.4234720000000 1.0
C      1  0.5264530000000  0.4913310000000  0.5132690000000 1.0
C      1  0.5609050000000  0.5603820000000  0.5523030000000 1.0
C      1  0.5084340000000  0.4645240000000  0.5026290000000 1.0
C      1  0.5585710000000  0.4731430000000  0.4400660000000 1.0
C      1  0.5597030000000  0.4982470000000  0.5151090000000 1.0
C      1  0.5595500000000  0.4239140000000  0.4461410000000 1.0
C      1  0.4858830000000  0.5969710000000  0.5366430000000 1.0
C      1  0.4537760000000  0.4532010000000  0.5773840000000 1.0
C      1  0.4225870000000  0.4514100000000  0.4656830000000 1.0
C      1  0.4894060000000  0.4320300000000  0.5419970000000 1.0
C      1  0.5429940000000  0.5192920000000  0.4301390000000 1.0
C      1  0.5113750000000  0.5887980000000  0.5285060000000 1.0
C      1  0.5187380000000  0.4984030000000  0.4703450000000 1.0
C      1  0.4949220000000  0.4361010000000  0.5083180000000 1.0
C      1  0.5714550000000  0.5396450000000  0.5328410000000 1.0
C      1  0.4949300000000  0.5681620000000  0.4267570000000 1.0
END
