TITL C-2847956-8218-507 -0.00110876575386565 125000 -1029.07919965682 0 0 195 (C1) n - 1
REM
REM in /home/bkarasulu/work/CARBON/AIRSS/Generating-Clusters/AIREBO/with-SteepDescent/Only-C1/SD-CG-opt/Try1-1.4A-POS3A/HFTN-CG
REM
REM
REM
REM
REM
REM ./C.cell (11c1c37f851c82e70ff6c80c92926a4b)
REM
REM compiler GCC version 9.2.1 20190827 (Red Hat 9.2.1-1)
REM options -cpp -mtune=generic -march=x86-64 -g -O0 -fpre-include=/usr/include/finclude/math-vector-fortran.h
REM seed 1813227501 -1122407626 -2093807333 -582203191 -509355665 755638111 -1351924587 -1690943993 2069926006 -1681457397 -1356021927 -1432396522 2006293672 -762063842 -2558973 1224729150 1419917021 -808470926 367589015 -2031965662 -191159153 685736572 177320872 -560287115 1325547460 973573882 1969681611 937656579 164431660 -1710585486 15124754 -407059851 1970077004
REM
CELL 1.54180   50.00000   50.00000   50.00000   90.00000   90.00000   90.00000
LATT -1
SFAC C  
C      1  0.5216660000000  0.4858170000000  0.4901570000000 1.0
C      1  0.5526790000000  0.4630110000000  0.5004610000000 1.0
C      1  0.4776640000000  0.5485050000000  0.5766140000000 1.0
C      1  0.4593030000000  0.5077750000000  0.4992800000000 1.0
C      1  0.5430940000000  0.5504440000000  0.4768600000000 1.0
C      1  0.4963310000000  0.4653250000000  0.3938550000000 1.0
C      1  0.5927130000000  0.4892740000000  0.5347480000000 1.0
C      1  0.5684490000000  0.4398290000000  0.5197350000000 1.0
C      1  0.4592910000000  0.5471510000000  0.5296270000000 1.0
C      1  0.4328670000000  0.4941510000000  0.5893580000000 1.0
C      1  0.3752940000000  0.5067230000000  0.5060400000000 1.0
C      1  0.5008610000000  0.5656640000000  0.5893810000000 1.0
C      1  0.5391570000000  0.3999010000000  0.4585600000000 1.0
C      1  0.4154450000000  0.5421540000000  0.4936010000000 1.0
C      1  0.5379870000000  0.4562700000000  0.5469730000000 1.0
C      1  0.5122530000000  0.5489340000000  0.6113810000000 1.0
C      1  0.4379670000000  0.5148610000000  0.4589170000000 1.0
C      1  0.5027350000000  0.3858800000000  0.4911740000000 1.0
C      1  0.5135570000000  0.4304230000000  0.4589790000000 1.0
C      1  0.5630490000000  0.5411830000000  0.4143780000000 1.0
C      1  0.5070590000000  0.5731030000000  0.5059410000000 1.0
C      1  0.4761050000000  0.4830160000000  0.6058590000000 1.0
C      1  0.5552330000000  0.4570310000000  0.4243520000000 1.0
C      1  0.5367810000000  0.5488600000000  0.4434720000000 1.0
C      1  0.4404580000000  0.4499430000000  0.5385490000000 1.0
C      1  0.4565090000000  0.5989900000000  0.4527900000000 1.0
C      1  0.5236060000000  0.4492540000000  0.4324540000000 1.0
C      1  0.4351350000000  0.5659980000000  0.5325450000000 1.0
C      1  0.4717440000000  0.5841800000000  0.5467300000000 1.0
C      1  0.5364500000000  0.6000340000000  0.5041000000000 1.0
C      1  0.5282180000000  0.4757540000000  0.6032490000000 1.0
C      1  0.4841970000000  0.4000270000000  0.5611280000000 1.0
C      1  0.4604850000000  0.4783710000000  0.4281830000000 1.0
C      1  0.4776770000000  0.5071920000000  0.4709400000000 1.0
C      1  0.4498050000000  0.5618930000000  0.4657380000000 1.0
C      1  0.4677030000000  0.4473870000000  0.4403450000000 1.0
C      1  0.5163640000000  0.4600820000000  0.4753920000000 1.0
C      1  0.5039920000000  0.4398450000000  0.4962840000000 1.0
C      1  0.5046390000000  0.5918630000000  0.4486090000000 1.0
C      1  0.5791670000000  0.4195310000000  0.5019010000000 1.0
C      1  0.4034110000000  0.5533730000000  0.4638360000000 1.0
C      1  0.6122510000000  0.4649880000000  0.5211320000000 1.0
C      1  0.5865940000000  0.4889600000000  0.5873730000000 1.0
C      1  0.6003450000000  0.5401000000000  0.5462470000000 1.0
C      1  0.4391770000000  0.4844040000000  0.4548640000000 1.0
C      1  0.6027740000000  0.4509450000000  0.4916490000000 1.0
C      1  0.3787930000000  0.4845400000000  0.5212260000000 1.0
C      1  0.4676680000000  0.5466960000000  0.5019410000000 1.0
C      1  0.4696360000000  0.4349860000000  0.5483750000000 1.0
C      1  0.5020760000000  0.3881720000000  0.5186020000000 1.0
C      1  0.6007390000000  0.5287530000000  0.4964670000000 1.0
C      1  0.5252380000000  0.5365120000000  0.5665940000000 1.0
C      1  0.5015170000000  0.5490480000000  0.4622400000000 1.0
C      1  0.5198710000000  0.5751440000000  0.4740260000000 1.0
C      1  0.5065670000000  0.4618520000000  0.5453410000000 1.0
C      1  0.5899110000000  0.5592580000000  0.4861160000000 1.0
C      1  0.4365550000000  0.5013660000000  0.5185920000000 1.0
C      1  0.4265400000000  0.5971940000000  0.5221010000000 1.0
C      1  0.4493720000000  0.4990200000000  0.3957810000000 1.0
C      1  0.4877310000000  0.4863500000000  0.4468920000000 1.0
C      1  0.5153990000000  0.4937910000000  0.5463390000000 1.0
C      1  0.4661240000000  0.3944560000000  0.4531940000000 1.0
C      1  0.4642250000000  0.4243950000000  0.5191450000000 1.0
C      1  0.5645670000000  0.4155120000000  0.4748960000000 1.0
C      1  0.4917720000000  0.4072650000000  0.4711550000000 1.0
C      1  0.4246220000000  0.5556340000000  0.5622260000000 1.0
C      1  0.4929900000000  0.4170730000000  0.4175280000000 1.0
C      1  0.5806220000000  0.4751740000000  0.4994470000000 1.0
C      1  0.4200800000000  0.4945290000000  0.5595500000000 1.0
C      1  0.4493640000000  0.5171390000000  0.5933150000000 1.0
C      1  0.5458610000000  0.5969160000000  0.4711650000000 1.0
C      1  0.5903000000000  0.4503170000000  0.5430500000000 1.0
C      1  0.5164740000000  0.5175480000000  0.4028810000000 1.0
C      1  0.5333610000000  0.4840710000000  0.5189320000000 1.0
C      1  0.5588590000000  0.5025540000000  0.5510930000000 1.0
C      1  0.5738020000000  0.5382930000000  0.4687310000000 1.0
C      1  0.5047230000000  0.6121130000000  0.4751190000000 1.0
C      1  0.4648720000000  0.5306660000000  0.3966000000000 1.0
C      1  0.4481080000000  0.5795910000000  0.5677480000000 1.0
C      1  0.3997980000000  0.4659460000000  0.5079890000000 1.0
C      1  0.4407820000000  0.5222370000000  0.4190960000000 1.0
C      1  0.5193090000000  0.5234090000000  0.4513030000000 1.0
C      1  0.5756490000000  0.5287130000000  0.5631400000000 1.0
C      1  0.5205380000000  0.5493910000000  0.4140960000000 1.0
C      1  0.5151680000000  0.5704090000000  0.5389430000000 1.0
C      1  0.4977980000000  0.5132760000000  0.4294030000000 1.0
C      1  0.4119650000000  0.4305800000000  0.4673210000000 1.0
C      1  0.5233270000000  0.4213230000000  0.5117250000000 1.0
C      1  0.4156520000000  0.5255010000000  0.5519000000000 1.0
C      1  0.5764350000000  0.5648810000000  0.5467990000000 1.0
C      1  0.5513460000000  0.5854600000000  0.5314840000000 1.0
C      1  0.5003750000000  0.4311890000000  0.5348150000000 1.0
C      1  0.5493260000000  0.4768640000000  0.3818880000000 1.0
C      1  0.4011080000000  0.4595390000000  0.4744790000000 1.0
C      1  0.4953080000000  0.5470470000000  0.4933360000000 1.0
C      1  0.4477880000000  0.4475530000000  0.4664820000000 1.0
C      1  0.4331190000000  0.4267240000000  0.5147890000000 1.0
C      1  0.3981140000000  0.4805150000000  0.4478170000000 1.0
C      1  0.5437120000000  0.5630880000000  0.5559420000000 1.0
C      1  0.4685010000000  0.4387860000000  0.5967340000000 1.0
C      1  0.4858770000000  0.4583440000000  0.4660830000000 1.0
C      1  0.5970550000000  0.5136190000000  0.4661700000000 1.0
C      1  0.5206240000000  0.4989740000000  0.5795350000000 1.0
C      1  0.5543950000000  0.4991700000000  0.5834700000000 1.0
C      1  0.5273140000000  0.5977540000000  0.4274520000000 1.0
C      1  0.4526010000000  0.4670060000000  0.5905430000000 1.0
C      1  0.5377070000000  0.4976770000000  0.4638960000000 1.0
C      1  0.4811660000000  0.5941210000000  0.4992310000000 1.0
C      1  0.5061270000000  0.5152710000000  0.4878970000000 1.0
C      1  0.5018180000000  0.5257600000000  0.5887860000000 1.0
C      1  0.4286170000000  0.4726680000000  0.5173230000000 1.0
C      1  0.4250440000000  0.5641880000000  0.4483950000000 1.0
C      1  0.5549590000000  0.5717130000000  0.5005910000000 1.0
C      1  0.4870020000000  0.4991940000000  0.5088930000000 1.0
C      1  0.4865240000000  0.5535520000000  0.5461290000000 1.0
C      1  0.5497260000000  0.5183690000000  0.4099680000000 1.0
C      1  0.5676310000000  0.4366260000000  0.5644930000000 1.0
C      1  0.4747270000000  0.5101850000000  0.6023920000000 1.0
C      1  0.5122340000000  0.5827450000000  0.5705220000000 1.0
C      1  0.5611420000000  0.4767760000000  0.5367740000000 1.0
C      1  0.4290420000000  0.4566140000000  0.4395800000000 1.0
C      1  0.4490290000000  0.4766400000000  0.5578190000000 1.0
C      1  0.5015880000000  0.4318560000000  0.5930380000000 1.0
C      1  0.4962660000000  0.4560610000000  0.5739700000000 1.0
C      1  0.5291970000000  0.5290250000000  0.5336430000000 1.0
C      1  0.4315210000000  0.5547850000000  0.4225320000000 1.0
C      1  0.5631340000000  0.5292500000000  0.5314100000000 1.0
C      1  0.4829960000000  0.4718750000000  0.5229750000000 1.0
C      1  0.5380420000000  0.4043760000000  0.4925320000000 1.0
C      1  0.5520820000000  0.5920120000000  0.4400930000000 1.0
C      1  0.4638800000000  0.4236660000000  0.4794250000000 1.0
C      1  0.3990040000000  0.4742460000000  0.5441640000000 1.0
C      1  0.5437870000000  0.4499360000000  0.6000900000000 1.0
C      1  0.6072650000000  0.4903640000000  0.4887760000000 1.0
C      1  0.4716010000000  0.4758900000000  0.3975880000000 1.0
C      1  0.4070700000000  0.5225580000000  0.4579330000000 1.0
C      1  0.4626850000000  0.4170950000000  0.4314950000000 1.0
C      1  0.5889750000000  0.4817970000000  0.4609800000000 1.0
C      1  0.5961990000000  0.4751870000000  0.5654980000000 1.0
C      1  0.5768630000000  0.4497160000000  0.4385770000000 1.0
C      1  0.4739250000000  0.5495550000000  0.4501650000000 1.0
C      1  0.4744940000000  0.5858780000000  0.4337800000000 1.0
C      1  0.5282450000000  0.3748400000000  0.4788310000000 1.0
C      1  0.5206070000000  0.4804060000000  0.4405720000000 1.0
C      1  0.5295000000000  0.4266740000000  0.5918320000000 1.0
C      1  0.4722180000000  0.4503970000000  0.4987280000000 1.0
C      1  0.4464280000000  0.5339580000000  0.4822320000000 1.0
C      1  0.4778380000000  0.3983300000000  0.5320790000000 1.0
C      1  0.6259640000000  0.4958720000000  0.5138560000000 1.0
C      1  0.5786190000000  0.4437010000000  0.4700930000000 1.0
C      1  0.5427970000000  0.4290590000000  0.5343370000000 1.0
C      1  0.4535130000000  0.5186150000000  0.5414310000000 1.0
C      1  0.5779840000000  0.5073970000000  0.5099920000000 1.0
C      1  0.5229780000000  0.5817420000000  0.4031030000000 1.0
C      1  0.4180550000000  0.5266920000000  0.5231830000000 1.0
C      1  0.5146750000000  0.4034260000000  0.5463880000000 1.0
C      1  0.4249560000000  0.4164500000000  0.4893520000000 1.0
C      1  0.4681310000000  0.4200600000000  0.5748030000000 1.0
C      1  0.4500910000000  0.5354250000000  0.5695750000000 1.0
C      1  0.4098740000000  0.4468800000000  0.5530850000000 1.0
C      1  0.5541540000000  0.5344110000000  0.5843550000000 1.0
C      1  0.6129070000000  0.5166290000000  0.5352270000000 1.0
C      1  0.4431110000000  0.4668530000000  0.4902270000000 1.0
C      1  0.4950820000000  0.5695150000000  0.4119160000000 1.0
C      1  0.4665510000000  0.5197360000000  0.4411620000000 1.0
C      1  0.4995940000000  0.4712810000000  0.5990040000000 1.0
C      1  0.4751480000000  0.4953400000000  0.5463300000000 1.0
C      1  0.5078880000000  0.6127480000000  0.5089800000000 1.0
C      1  0.5776790000000  0.5542890000000  0.5165840000000 1.0
C      1  0.4294080000000  0.5726280000000  0.4993630000000 1.0
C      1  0.4444110000000  0.3958700000000  0.4772100000000 1.0
C      1  0.4119790000000  0.5059990000000  0.4300750000000 1.0
C      1  0.4592010000000  0.5967500000000  0.5212000000000 1.0
C      1  0.5772450000000  0.5899340000000  0.4823550000000 1.0
C      1  0.4904290000000  0.5278160000000  0.3835870000000 1.0
C      1  0.5406690000000  0.4857930000000  0.4135480000000 1.0
C      1  0.5033730000000  0.4430740000000  0.4092840000000 1.0
C      1  0.4929060000000  0.6093850000000  0.5379400000000 1.0
C      1  0.4544540000000  0.5883970000000  0.4823820000000 1.0
C      1  0.5170290000000  0.4861890000000  0.3891080000000 1.0
C      1  0.5082120000000  0.6100610000000  0.5614730000000 1.0
C      1  0.5537290000000  0.5661530000000  0.5882910000000 1.0
C      1  0.5418860000000  0.4138760000000  0.5641130000000 1.0
C      1  0.5603040000000  0.5128670000000  0.4817990000000 1.0
C      1  0.4286860000000  0.4816830000000  0.4166010000000 1.0
C      1  0.5611810000000  0.5658660000000  0.4324790000000 1.0
C      1  0.4643590000000  0.5572320000000  0.4184540000000 1.0
C      1  0.5583010000000  0.4707980000000  0.4670240000000 1.0
C      1  0.5153220000000  0.4061490000000  0.4356000000000 1.0
C      1  0.4182010000000  0.4881760000000  0.4811230000000 1.0
C      1  0.5308630000000  0.5308330000000  0.5017650000000 1.0
C      1  0.3985730000000  0.5131410000000  0.4869390000000 1.0
C      1  0.4302170000000  0.4243220000000  0.4393090000000 1.0
C      1  0.5545340000000  0.4662820000000  0.5747860000000 1.0
C      1  0.4973060000000  0.5211480000000  0.5426980000000 1.0
END
