TITL C-2848506-1665-24 -515.207354591067 125000 -682.919718847109 0 0 128 (C1) n - 1
REM
REM in /home/bkarasulu/work/CARBON/AIRSS/Generating-Clusters/AIREBO/with-SteepDescent/Only-C1/SD-CG-opt/Try1-1.4A-POS3A/HFTN-CG
REM
REM
REM
REM
REM
REM ./C.cell (11c1c37f851c82e70ff6c80c92926a4b)
REM
REM compiler GCC version 9.2.1 20190827 (Red Hat 9.2.1-1)
REM options -cpp -mtune=generic -march=x86-64 -g -O0 -fpre-include=/usr/include/finclude/math-vector-fortran.h
REM seed 7869790 1344141119 -1603168672 669895273 -1659533893 23393156 1493397542 -874070114 -695797858 569359617 1899640453 1642162108 2003725164 -462705887 -733062722 -1255501666 -2040217354 1304897706 -1106306687 1908638614 -1913486270 1381971389 -1752731244 1728308434 1528909174 1678388620 2100297748 -134676492 -1923498155 788139697 -440618514 1323509821 1275239229
REM
CELL 1.54180   50.00000   50.00000   50.00000   90.00000   90.00000   90.00000
LATT -1
SFAC C  
C      1  0.4288640000000  0.5838420000000  0.4756040000000 1.0
C      1  0.5147930000000  0.5302320000000  0.4029280000000 1.0
C      1  0.4796600000000  0.4994620000000  0.3924320000000 1.0
C      1  0.4981850000000  0.4896940000000  0.5412450000000 1.0
C      1  0.4691360000000  0.5895050000000  0.5321680000000 1.0
C      1  0.5263610000000  0.4252590000000  0.5081180000000 1.0
C      1  0.5710400000000  0.4638550000000  0.4308900000000 1.0
C      1  0.5035400000000  0.4164990000000  0.4641590000000 1.0
C      1  0.4098600000000  0.4889370000000  0.5010810000000 1.0
C      1  0.5063590000000  0.5554710000000  0.5666430000000 1.0
C      1  0.5354750000000  0.4831860000000  0.5534340000000 1.0
C      1  0.4675500000000  0.5004950000000  0.5396450000000 1.0
C      1  0.4258960000000  0.5405820000000  0.5450550000000 1.0
C      1  0.4958080000000  0.5899520000000  0.5224600000000 1.0
C      1  0.5761400000000  0.4705230000000  0.4984290000000 1.0
C      1  0.5365940000000  0.5417850000000  0.5740390000000 1.0
C      1  0.5496830000000  0.4059380000000  0.4714430000000 1.0
C      1  0.4954930000000  0.4468030000000  0.4615250000000 1.0
C      1  0.4274030000000  0.4311180000000  0.4528860000000 1.0
C      1  0.4739090000000  0.4946230000000  0.5883790000000 1.0
C      1  0.4201290000000  0.4635140000000  0.4602130000000 1.0
C      1  0.5180370000000  0.5014190000000  0.4350050000000 1.0
C      1  0.4476610000000  0.5055450000000  0.4438180000000 1.0
C      1  0.4586500000000  0.4638230000000  0.4700780000000 1.0
C      1  0.5493280000000  0.4889710000000  0.4752630000000 1.0
C      1  0.5413210000000  0.5673980000000  0.5531840000000 1.0
C      1  0.5256320000000  0.4793220000000  0.4111070000000 1.0
C      1  0.4247810000000  0.4977180000000  0.5230490000000 1.0
C      1  0.4926910000000  0.5172390000000  0.5864290000000 1.0
C      1  0.4618050000000  0.5415720000000  0.5936250000000 1.0
C      1  0.4295050000000  0.4479230000000  0.5386100000000 1.0
C      1  0.4605910000000  0.4604800000000  0.5444200000000 1.0
C      1  0.5936150000000  0.5154000000000  0.5315220000000 1.0
C      1  0.5669230000000  0.5307600000000  0.4477760000000 1.0
C      1  0.4754360000000  0.5764210000000  0.4502110000000 1.0
C      1  0.4814240000000  0.4750940000000  0.5669760000000 1.0
C      1  0.5480220000000  0.5254040000000  0.5465190000000 1.0
C      1  0.5833610000000  0.5565800000000  0.4805320000000 1.0
C      1  0.5377070000000  0.5771660000000  0.5055380000000 1.0
C      1  0.4447930000000  0.5216710000000  0.5153950000000 1.0
C      1  0.5612880000000  0.4371110000000  0.5406350000000 1.0
C      1  0.5795950000000  0.5042410000000  0.4545850000000 1.0
C      1  0.5577100000000  0.4820400000000  0.4117740000000 1.0
C      1  0.4745000000000  0.4229670000000  0.4374330000000 1.0
C      1  0.4137900000000  0.5651570000000  0.4896060000000 1.0
C      1  0.4737220000000  0.4667140000000  0.5135600000000 1.0
C      1  0.5640900000000  0.4817970000000  0.5252010000000 1.0
C      1  0.5913930000000  0.5062580000000  0.5054690000000 1.0
C      1  0.4629450000000  0.5570590000000  0.4354180000000 1.0
C      1  0.5291250000000  0.4786910000000  0.4961600000000 1.0
C      1  0.5389500000000  0.5735850000000  0.4766040000000 1.0
C      1  0.4483120000000  0.4201910000000  0.5326110000000 1.0
C      1  0.5492810000000  0.4955110000000  0.4418380000000 1.0
C      1  0.5117380000000  0.4645270000000  0.5690730000000 1.0
C      1  0.5047340000000  0.4703350000000  0.4793640000000 1.0
C      1  0.4563440000000  0.4936800000000  0.4744780000000 1.0
C      1  0.4775270000000  0.5368090000000  0.4926170000000 1.0
C      1  0.4590660000000  0.4393760000000  0.4994260000000 1.0
C      1  0.4861680000000  0.4953720000000  0.4411330000000 1.0
C      1  0.5711460000000  0.5011380000000  0.5522680000000 1.0
C      1  0.5594580000000  0.5361320000000  0.5176630000000 1.0
C      1  0.5339910000000  0.5066520000000  0.5780320000000 1.0
C      1  0.5539710000000  0.5447830000000  0.4759180000000 1.0
C      1  0.5208780000000  0.4491370000000  0.4199400000000 1.0
C      1  0.5529190000000  0.5670920000000  0.5258900000000 1.0
C      1  0.4738620000000  0.5270730000000  0.4417480000000 1.0
C      1  0.4855490000000  0.5312830000000  0.5568170000000 1.0
C      1  0.5517900000000  0.4244190000000  0.4927120000000 1.0
C      1  0.4608750000000  0.5707190000000  0.5568580000000 1.0
C      1  0.4782850000000  0.4625820000000  0.4367840000000 1.0
C      1  0.4686040000000  0.4994180000000  0.5056720000000 1.0
C      1  0.5099970000000  0.5576130000000  0.5029050000000 1.0
C      1  0.4335820000000  0.5729540000000  0.5380440000000 1.0
C      1  0.5026050000000  0.4136410000000  0.5278460000000 1.0
C      1  0.4247740000000  0.5332290000000  0.4904370000000 1.0
C      1  0.4886510000000  0.4923810000000  0.4719500000000 1.0
C      1  0.4959720000000  0.5509730000000  0.4724300000000 1.0
C      1  0.5547660000000  0.4598450000000  0.4583950000000 1.0
C      1  0.5284610000000  0.4436730000000  0.5346870000000 1.0
C      1  0.4460740000000  0.4564060000000  0.4394110000000 1.0
C      1  0.4946390000000  0.4403200000000  0.4221320000000 1.0
C      1  0.4112000000000  0.5575260000000  0.5190730000000 1.0
C      1  0.5158210000000  0.5852600000000  0.4671570000000 1.0
C      1  0.5024030000000  0.4420810000000  0.4948230000000 1.0
C      1  0.4528780000000  0.5156190000000  0.5848290000000 1.0
C      1  0.5258410000000  0.5259490000000  0.4793600000000 1.0
C      1  0.5339220000000  0.4972850000000  0.5224640000000 1.0
C      1  0.5073020000000  0.4656150000000  0.5188900000000 1.0
C      1  0.4799620000000  0.5535830000000  0.5183400000000 1.0
C      1  0.5734370000000  0.4615950000000  0.5459130000000 1.0
C      1  0.5027030000000  0.5781490000000  0.4438810000000 1.0
C      1  0.5264950000000  0.5294440000000  0.5126160000000 1.0
C      1  0.5635590000000  0.4490460000000  0.4859390000000 1.0
C      1  0.5088010000000  0.4159560000000  0.5554940000000 1.0
C      1  0.4143380000000  0.4625370000000  0.4913020000000 1.0
C      1  0.5298500000000  0.4147880000000  0.4532470000000 1.0
C      1  0.4511730000000  0.5520120000000  0.4910400000000 1.0
C      1  0.4342860000000  0.4807210000000  0.5477440000000 1.0
C      1  0.4798250000000  0.4080700000000  0.4814920000000 1.0
C      1  0.5139930000000  0.5522760000000  0.4284690000000 1.0
C      1  0.5899720000000  0.5439360000000  0.5305100000000 1.0
C      1  0.4500950000000  0.5784740000000  0.5086610000000 1.0
C      1  0.5708330000000  0.4742270000000  0.5733930000000 1.0
C      1  0.5633010000000  0.5159670000000  0.4905360000000 1.0
C      1  0.4292770000000  0.4447450000000  0.5071970000000 1.0
C      1  0.5068630000000  0.5280170000000  0.4512130000000 1.0
C      1  0.4625690000000  0.5879260000000  0.4784410000000 1.0
C      1  0.4678560000000  0.4364480000000  0.5659960000000 1.0
C      1  0.5386790000000  0.4237680000000  0.5605190000000 1.0
C      1  0.4967590000000  0.5134030000000  0.4920220000000 1.0
C      1  0.4943080000000  0.5857200000000  0.4918750000000 1.0
C      1  0.4757140000000  0.4133770000000  0.5136710000000 1.0
C      1  0.5129790000000  0.5680270000000  0.5355300000000 1.0
C      1  0.5153960000000  0.5170580000000  0.5515290000000 1.0
C      1  0.4592340000000  0.5422800000000  0.5382900000000 1.0
C      1  0.4947120000000  0.4355560000000  0.5698360000000 1.0
C      1  0.5375850000000  0.4392130000000  0.4399020000000 1.0
C      1  0.5431060000000  0.4550840000000  0.5711490000000 1.0
C      1  0.5907620000000  0.4903180000000  0.4775130000000 1.0
C      1  0.4205510000000  0.4950950000000  0.4559540000000 1.0
C      1  0.4404710000000  0.5122540000000  0.5566240000000 1.0
C      1  0.5650740000000  0.5139380000000  0.5831900000000 1.0
C      1  0.4760520000000  0.5615830000000  0.5808750000000 1.0
C      1  0.4584850000000  0.4299810000000  0.4666360000000 1.0
C      1  0.4650560000000  0.4986550000000  0.4151600000000 1.0
C      1  0.5078300000000  0.5043440000000  0.3964990000000 1.0
C      1  0.5422910000000  0.5409850000000  0.4379960000000 1.0
C      1  0.4121090000000  0.5080400000000  0.4798500000000 1.0
END
