TITL C-2848497-6229-521 0.00114912386388826 125000 -546.960185987201 0 0 102 (C1) n - 1
REM
REM in /home/bkarasulu/work/CARBON/AIRSS/Generating-Clusters/AIREBO/with-SteepDescent/Only-C1/SD-CG-opt/Try1-1.4A-POS3A/HFTN-CG
REM
REM
REM
REM
REM
REM ./C.cell (11c1c37f851c82e70ff6c80c92926a4b)
REM
REM compiler GCC version 9.2.1 20190827 (Red Hat 9.2.1-1)
REM options -cpp -mtune=generic -march=x86-64 -g -O0 -fpre-include=/usr/include/finclude/math-vector-fortran.h
REM seed -2058747351 208710074 1551248774 -547490858 555057615 144664906 -30399427 1025544801 -547789739 1673892445 -2047886997 1706118997 -338899484 -1920315647 -952336761 -2059920100 1353752020 821152128 -2138077401 -712199423 18467033 1653903784 -80618917 885609025 150054065 -620768145 -435358000 1881384548 -257700628 1376045362 -2009751802 78207511 1308821348
REM
CELL 1.54180   50.00000   50.00000   50.00000   90.00000   90.00000   90.00000
LATT -1
SFAC C  
C      1  0.4968200000000  0.5443330000000  0.5185800000000 1.0
C      1  0.5102110000000  0.5439860000000  0.4203140000000 1.0
C      1  0.4168070000000  0.4870920000000  0.4826830000000 1.0
C      1  0.5015830000000  0.5157030000000  0.4165430000000 1.0
C      1  0.5384870000000  0.4864840000000  0.4414790000000 1.0
C      1  0.4419170000000  0.4123900000000  0.5390850000000 1.0
C      1  0.5289650000000  0.3804590000000  0.4778740000000 1.0
C      1  0.4782780000000  0.4359570000000  0.5084810000000 1.0
C      1  0.4431810000000  0.5640060000000  0.4551400000000 1.0
C      1  0.5093480000000  0.4829110000000  0.5343100000000 1.0
C      1  0.5706340000000  0.4789990000000  0.5573140000000 1.0
C      1  0.5171440000000  0.4181800000000  0.5343230000000 1.0
C      1  0.5676550000000  0.4764690000000  0.4526150000000 1.0
C      1  0.5504970000000  0.4992340000000  0.5758060000000 1.0
C      1  0.5153940000000  0.5224300000000  0.5335100000000 1.0
C      1  0.5456410000000  0.5761630000000  0.5459890000000 1.0
C      1  0.5680650000000  0.4505570000000  0.5493460000000 1.0
C      1  0.4917610000000  0.4201830000000  0.4420810000000 1.0
C      1  0.4812050000000  0.4386810000000  0.4592900000000 1.0
C      1  0.5318050000000  0.5094180000000  0.4656780000000 1.0
C      1  0.4081260000000  0.4731760000000  0.5061130000000 1.0
C      1  0.5163150000000  0.4851430000000  0.4187970000000 1.0
C      1  0.4960380000000  0.5056000000000  0.5558540000000 1.0
C      1  0.4791380000000  0.5048120000000  0.4381620000000 1.0
C      1  0.4702300000000  0.5687310000000  0.4497870000000 1.0
C      1  0.4932010000000  0.4728970000000  0.5170500000000 1.0
C      1  0.4270320000000  0.4622520000000  0.5449710000000 1.0
C      1  0.5102610000000  0.5824930000000  0.4550600000000 1.0
C      1  0.5836970000000  0.5250860000000  0.4675790000000 1.0
C      1  0.4444900000000  0.4979950000000  0.4979820000000 1.0
C      1  0.4362120000000  0.5483240000000  0.4761180000000 1.0
C      1  0.5028670000000  0.5839940000000  0.5402560000000 1.0
C      1  0.5319110000000  0.4777620000000  0.5669240000000 1.0
C      1  0.4377420000000  0.5192970000000  0.4723400000000 1.0
C      1  0.5391490000000  0.5251200000000  0.5780200000000 1.0
C      1  0.4165220000000  0.4457660000000  0.5038200000000 1.0
C      1  0.4836410000000  0.5631990000000  0.4270240000000 1.0
C      1  0.4442050000000  0.4694420000000  0.5682230000000 1.0
C      1  0.5670770000000  0.4490830000000  0.4578540000000 1.0
C      1  0.5525150000000  0.5087420000000  0.4926520000000 1.0
C      1  0.5358400000000  0.4412600000000  0.5510940000000 1.0
C      1  0.4531840000000  0.4868930000000  0.5874710000000 1.0
C      1  0.4519770000000  0.5332840000000  0.5505340000000 1.0
C      1  0.5054500000000  0.4331960000000  0.5596030000000 1.0
C      1  0.4957360000000  0.4587030000000  0.4121060000000 1.0
C      1  0.5384370000000  0.5422700000000  0.4638150000000 1.0
C      1  0.5036650000000  0.4774770000000  0.5733990000000 1.0
C      1  0.5296350000000  0.4638220000000  0.4652400000000 1.0
C      1  0.5091930000000  0.5283650000000  0.5774180000000 1.0
C      1  0.5655920000000  0.5433720000000  0.4777930000000 1.0
C      1  0.4415270000000  0.5282360000000  0.5110590000000 1.0
C      1  0.4648890000000  0.4838140000000  0.5188210000000 1.0
C      1  0.5778230000000  0.4939530000000  0.4752890000000 1.0
C      1  0.4974110000000  0.4627910000000  0.4691490000000 1.0
C      1  0.4497410000000  0.5159950000000  0.4252310000000 1.0
C      1  0.4584250000000  0.4941020000000  0.4626110000000 1.0
C      1  0.4899010000000  0.4553230000000  0.5632290000000 1.0
C      1  0.4533370000000  0.4415670000000  0.4654420000000 1.0
C      1  0.4693110000000  0.4735730000000  0.4274950000000 1.0
C      1  0.5390640000000  0.5371270000000  0.4331690000000 1.0
C      1  0.5047790000000  0.5605070000000  0.5542800000000 1.0
C      1  0.5294430000000  0.4763490000000  0.4964890000000 1.0
C      1  0.4286100000000  0.5109810000000  0.4421920000000 1.0
C      1  0.5332400000000  0.4292880000000  0.5072890000000 1.0
C      1  0.5366460000000  0.4703300000000  0.5356010000000 1.0
C      1  0.5114090000000  0.5483080000000  0.4788910000000 1.0
C      1  0.4433480000000  0.5596560000000  0.5036150000000 1.0
C      1  0.4482210000000  0.4415560000000  0.4951710000000 1.0
C      1  0.5922640000000  0.4765760000000  0.4922490000000 1.0
C      1  0.5348280000000  0.4042020000000  0.4843750000000 1.0
C      1  0.4714760000000  0.5764680000000  0.5018350000000 1.0
C      1  0.4455630000000  0.4656680000000  0.4491140000000 1.0
C      1  0.5003270000000  0.4962210000000  0.4633390000000 1.0
C      1  0.5345540000000  0.5444110000000  0.5509950000000 1.0
C      1  0.5619240000000  0.5381160000000  0.5070030000000 1.0
C      1  0.4308430000000  0.5102600000000  0.5357240000000 1.0
C      1  0.5625700000000  0.4277900000000  0.5250680000000 1.0
C      1  0.4205170000000  0.4850100000000  0.4549230000000 1.0
C      1  0.4824720000000  0.5425060000000  0.5625430000000 1.0
C      1  0.4706620000000  0.5121370000000  0.5341880000000 1.0
C      1  0.4731990000000  0.5042350000000  0.5810200000000 1.0
C      1  0.5758190000000  0.5110750000000  0.5472680000000 1.0
C      1  0.5215410000000  0.5725040000000  0.4350050000000 1.0
C      1  0.4799860000000  0.5919140000000  0.5282350000000 1.0
C      1  0.4998030000000  0.5205770000000  0.4865510000000 1.0
C      1  0.4665710000000  0.4617820000000  0.5447040000000 1.0
C      1  0.5524370000000  0.5135110000000  0.4262780000000 1.0
C      1  0.5574060000000  0.4733080000000  0.5104090000000 1.0
C      1  0.5619230000000  0.4989710000000  0.5238440000000 1.0
C      1  0.5076890000000  0.4501870000000  0.4990110000000 1.0
C      1  0.5368690000000  0.6145800000000  0.5129320000000 1.0
C      1  0.5435960000000  0.4360370000000  0.4755920000000 1.0
C      1  0.4873700000000  0.5719810000000  0.4764710000000 1.0
C      1  0.4664350000000  0.5542410000000  0.5279800000000 1.0
C      1  0.5629700000000  0.5370890000000  0.5351610000000 1.0
C      1  0.4742700000000  0.5239470000000  0.5033470000000 1.0
C      1  0.5287510000000  0.5902150000000  0.5227550000000 1.0
C      1  0.4466240000000  0.4392240000000  0.5290530000000 1.0
C      1  0.5142710000000  0.5677790000000  0.5055770000000 1.0
C      1  0.5209310000000  0.5076810000000  0.5052170000000 1.0
C      1  0.4861080000000  0.4895010000000  0.4019180000000 1.0
C      1  0.4158360000000  0.4856530000000  0.5317930000000 1.0
END
