TITL C-2848508-1660-268 -0.00414533124181111 125000 -990.815831964763 0 0 185 (C1) n - 1
REM
REM in /home/bkarasulu/work/CARBON/AIRSS/Generating-Clusters/AIREBO/with-SteepDescent/Only-C1/SD-CG-opt/Try1-1.4A-POS3A/HFTN-CG
REM
REM
REM
REM
REM
REM ./C.cell (11c1c37f851c82e70ff6c80c92926a4b)
REM
REM compiler GCC version 9.2.1 20190827 (Red Hat 9.2.1-1)
REM options -cpp -mtune=generic -march=x86-64 -g -O0 -fpre-include=/usr/include/finclude/math-vector-fortran.h
REM seed 544696772 -957400725 79853105 541113735 -1103106427 184618819 1099873443 215265892 -67921922 -366718215 -240285545 1570256179 -875942341 1347614924 1205265417 -1629073552 1810887837 -464477315 -295920711 -1576918553 77115537 1661800841 1201145846 -1001552987 -116379435 -487376831 -1558666733 -162383882 -1628780733 1121314387 1441853917 1114275433 1795613898
REM
CELL 1.54180   50.00000   50.00000   50.00000   90.00000   90.00000   90.00000
LATT -1
SFAC C  
C      1  0.4002010000000  0.4704410000000  0.5381690000000 1.0
C      1  0.5449200000000  0.4925410000000  0.4836240000000 1.0
C      1  0.4605700000000  0.5342390000000  0.5361850000000 1.0
C      1  0.4674040000000  0.4375230000000  0.4698810000000 1.0
C      1  0.5510670000000  0.5997990000000  0.4667410000000 1.0
C      1  0.4839390000000  0.5052720000000  0.4012970000000 1.0
C      1  0.5001420000000  0.4663270000000  0.4247390000000 1.0
C      1  0.5628170000000  0.5446090000000  0.4335080000000 1.0
C      1  0.5690360000000  0.5155940000000  0.5258270000000 1.0
C      1  0.5059360000000  0.5667230000000  0.4607590000000 1.0
C      1  0.4115700000000  0.5492890000000  0.4472890000000 1.0
C      1  0.5576420000000  0.5929690000000  0.4278830000000 1.0
C      1  0.4570870000000  0.5310800000000  0.4377490000000 1.0
C      1  0.5066830000000  0.4827440000000  0.3889440000000 1.0
C      1  0.5871670000000  0.4499320000000  0.4515400000000 1.0
C      1  0.5472970000000  0.5614100000000  0.5326790000000 1.0
C      1  0.5666890000000  0.4798400000000  0.5649520000000 1.0
C      1  0.5246890000000  0.4908480000000  0.5324040000000 1.0
C      1  0.4160470000000  0.4191750000000  0.5169750000000 1.0
C      1  0.4940850000000  0.4554540000000  0.3930880000000 1.0
C      1  0.4481610000000  0.4845260000000  0.5509270000000 1.0
C      1  0.5496930000000  0.5337470000000  0.4123010000000 1.0
C      1  0.4695520000000  0.4777980000000  0.4152810000000 1.0
C      1  0.5565120000000  0.5073000000000  0.4070310000000 1.0
C      1  0.5408470000000  0.4694320000000  0.5799800000000 1.0
C      1  0.5946110000000  0.5135020000000  0.4365310000000 1.0
C      1  0.4159370000000  0.4683940000000  0.5015630000000 1.0
C      1  0.5098310000000  0.4051560000000  0.4858370000000 1.0
C      1  0.5607390000000  0.4236270000000  0.5680190000000 1.0
C      1  0.5056630000000  0.5736960000000  0.5970850000000 1.0
C      1  0.4519450000000  0.4500860000000  0.4242010000000 1.0
C      1  0.4396670000000  0.4734400000000  0.5225530000000 1.0
C      1  0.5623560000000  0.5538830000000  0.5729240000000 1.0
C      1  0.5097840000000  0.4359630000000  0.5932080000000 1.0
C      1  0.4832100000000  0.5361930000000  0.4972520000000 1.0
C      1  0.5502400000000  0.5033700000000  0.5472860000000 1.0
C      1  0.4621970000000  0.4976920000000  0.4418190000000 1.0
C      1  0.4460490000000  0.4264190000000  0.4479360000000 1.0
C      1  0.4511520000000  0.4959730000000  0.4920040000000 1.0
C      1  0.4175500000000  0.4983470000000  0.5293700000000 1.0
C      1  0.4551290000000  0.4582630000000  0.5670650000000 1.0
C      1  0.4192060000000  0.5654150000000  0.4710250000000 1.0
C      1  0.4884770000000  0.5389730000000  0.4033360000000 1.0
C      1  0.4482740000000  0.4372820000000  0.4946840000000 1.0
C      1  0.4752270000000  0.5758780000000  0.4721450000000 1.0
C      1  0.4766290000000  0.4371700000000  0.4087900000000 1.0
C      1  0.4792650000000  0.5951430000000  0.5332050000000 1.0
C      1  0.4322380000000  0.4078110000000  0.4645540000000 1.0
C      1  0.5930690000000  0.5385420000000  0.4781370000000 1.0
C      1  0.4177380000000  0.5487790000000  0.5008370000000 1.0
C      1  0.4867610000000  0.5387740000000  0.4636740000000 1.0
C      1  0.5014350000000  0.5283580000000  0.5345470000000 1.0
C      1  0.4642330000000  0.4004260000000  0.5684580000000 1.0
C      1  0.5888060000000  0.5037100000000  0.5583490000000 1.0
C      1  0.4770690000000  0.5833430000000  0.4390200000000 1.0
C      1  0.4820120000000  0.4583890000000  0.5478240000000 1.0
C      1  0.5562790000000  0.4160200000000  0.4502040000000 1.0
C      1  0.5331670000000  0.4243710000000  0.5092010000000 1.0
C      1  0.5339130000000  0.5252650000000  0.6029430000000 1.0
C      1  0.5087450000000  0.4406310000000  0.4411140000000 1.0
C      1  0.4060040000000  0.4508210000000  0.4456860000000 1.0
C      1  0.4821660000000  0.5832440000000  0.5030260000000 1.0
C      1  0.6124390000000  0.4736390000000  0.4883810000000 1.0
C      1  0.4372340000000  0.5877680000000  0.4740450000000 1.0
C      1  0.5554470000000  0.4931960000000  0.4521510000000 1.0
C      1  0.4529910000000  0.5395230000000  0.4675620000000 1.0
C      1  0.4080890000000  0.4433840000000  0.5396280000000 1.0
C      1  0.4992540000000  0.5556690000000  0.5689760000000 1.0
C      1  0.5881450000000  0.5556950000000  0.5052550000000 1.0
C      1  0.4533530000000  0.6072410000000  0.4605460000000 1.0
C      1  0.5631530000000  0.4137320000000  0.5012860000000 1.0
C      1  0.4624610000000  0.4695400000000  0.4608810000000 1.0
C      1  0.5987220000000  0.5013140000000  0.5277140000000 1.0
C      1  0.4752440000000  0.4981760000000  0.5471120000000 1.0
C      1  0.4773030000000  0.4459840000000  0.5977110000000 1.0
C      1  0.5462580000000  0.5239350000000  0.5741460000000 1.0
C      1  0.4605200000000  0.4490250000000  0.5231930000000 1.0
C      1  0.4282560000000  0.5631650000000  0.5402700000000 1.0
C      1  0.5494740000000  0.5379560000000  0.4808180000000 1.0
C      1  0.5237290000000  0.5104720000000  0.4717730000000 1.0
C      1  0.5655700000000  0.5844440000000  0.5597900000000 1.0
C      1  0.4728400000000  0.5391090000000  0.5665590000000 1.0
C      1  0.5169000000000  0.5211710000000  0.5601920000000 1.0
C      1  0.5162910000000  0.4505990000000  0.4981560000000 1.0
C      1  0.5730480000000  0.5823370000000  0.5019410000000 1.0
C      1  0.4341810000000  0.5191550000000  0.4796020000000 1.0
C      1  0.4322280000000  0.5892650000000  0.5259830000000 1.0
C      1  0.5729160000000  0.5459740000000  0.5311150000000 1.0
C      1  0.3965790000000  0.5171020000000  0.5127040000000 1.0
C      1  0.5701280000000  0.5240800000000  0.4576260000000 1.0
C      1  0.5137940000000  0.4864280000000  0.5813620000000 1.0
C      1  0.5116370000000  0.5935540000000  0.5701350000000 1.0
C      1  0.5163940000000  0.5375190000000  0.4898140000000 1.0
C      1  0.4330370000000  0.4704020000000  0.4438600000000 1.0
C      1  0.5557240000000  0.5692950000000  0.4413940000000 1.0
C      1  0.4541400000000  0.4753870000000  0.3854240000000 1.0
C      1  0.4428260000000  0.4243340000000  0.5372920000000 1.0
C      1  0.5734960000000  0.4589810000000  0.4797250000000 1.0
C      1  0.5931350000000  0.4456510000000  0.5284710000000 1.0
C      1  0.5315200000000  0.4871830000000  0.4117360000000 1.0
C      1  0.4017580000000  0.5442070000000  0.5305170000000 1.0
C      1  0.3916090000000  0.5303780000000  0.4539300000000 1.0
C      1  0.5386870000000  0.5682650000000  0.4697980000000 1.0
C      1  0.4208670000000  0.5350340000000  0.5574190000000 1.0
C      1  0.5046910000000  0.4655810000000  0.6024000000000 1.0
C      1  0.5279570000000  0.5521360000000  0.5526390000000 1.0
C      1  0.4806120000000  0.4062520000000  0.4718750000000 1.0
C      1  0.5274630000000  0.4758640000000  0.4435560000000 1.0
C      1  0.4271520000000  0.5323120000000  0.4222110000000 1.0
C      1  0.4722110000000  0.5003670000000  0.5809130000000 1.0
C      1  0.4480110000000  0.5197240000000  0.5712000000000 1.0
C      1  0.5073730000000  0.5991340000000  0.4710510000000 1.0
C      1  0.4251360000000  0.4823820000000  0.4746840000000 1.0
C      1  0.5728710000000  0.4707470000000  0.4333850000000 1.0
C      1  0.4220770000000  0.5015080000000  0.5629570000000 1.0
C      1  0.4830490000000  0.3994900000000  0.4416700000000 1.0
C      1  0.4724980000000  0.5537240000000  0.6064090000000 1.0
C      1  0.4594960000000  0.5616840000000  0.4243760000000 1.0
C      1  0.5738220000000  0.6023320000000  0.4827080000000 1.0
C      1  0.4928590000000  0.5100250000000  0.4493220000000 1.0
C      1  0.5497150000000  0.5938560000000  0.5370900000000 1.0
C      1  0.5845290000000  0.4909110000000  0.4794980000000 1.0
C      1  0.4258880000000  0.4317490000000  0.5658350000000 1.0
C      1  0.5037510000000  0.5408040000000  0.6055210000000 1.0
C      1  0.5026670000000  0.4822310000000  0.5522970000000 1.0
C      1  0.6063460000000  0.5045540000000  0.4620590000000 1.0
C      1  0.5665920000000  0.5126090000000  0.4956830000000 1.0
C      1  0.4992870000000  0.5159630000000  0.5856380000000 1.0
C      1  0.5092410000000  0.5100240000000  0.4235090000000 1.0
C      1  0.4517320000000  0.5487710000000  0.4999690000000 1.0
C      1  0.4294140000000  0.4992060000000  0.4274250000000 1.0
C      1  0.3992420000000  0.4376290000000  0.4662060000000 1.0
C      1  0.5786300000000  0.4500910000000  0.5587860000000 1.0
C      1  0.5396560000000  0.5759700000000  0.5029130000000 1.0
C      1  0.4909800000000  0.4204220000000  0.4263630000000 1.0
C      1  0.5344530000000  0.4233650000000  0.4752340000000 1.0
C      1  0.4156430000000  0.4392580000000  0.4921180000000 1.0
C      1  0.4350120000000  0.5256600000000  0.5188500000000 1.0
C      1  0.5213210000000  0.6036350000000  0.4955200000000 1.0
C      1  0.4991650000000  0.5600210000000  0.4278890000000 1.0
C      1  0.4848690000000  0.5559970000000  0.5319650000000 1.0
C      1  0.5299380000000  0.4279210000000  0.5428640000000 1.0
C      1  0.5005310000000  0.4436920000000  0.4699500000000 1.0
C      1  0.4841130000000  0.6107870000000  0.4557480000000 1.0
C      1  0.4973160000000  0.4333510000000  0.5416520000000 1.0
C      1  0.5010350000000  0.4022470000000  0.5326090000000 1.0
C      1  0.4763690000000  0.4790590000000  0.4861740000000 1.0
C      1  0.4717240000000  0.5097940000000  0.5153470000000 1.0
C      1  0.5040390000000  0.6020740000000  0.5447940000000 1.0
C      1  0.4223720000000  0.4647740000000  0.5734730000000 1.0
C      1  0.5803440000000  0.4970680000000  0.4185190000000 1.0
C      1  0.4036960000000  0.5077150000000  0.4697990000000 1.0
C      1  0.4496130000000  0.5825590000000  0.5016920000000 1.0
C      1  0.4675380000000  0.4785350000000  0.5991250000000 1.0
C      1  0.4951790000000  0.5012350000000  0.4820910000000 1.0
C      1  0.4510010000000  0.3998290000000  0.5161920000000 1.0
C      1  0.4560230000000  0.4278400000000  0.5810950000000 1.0
C      1  0.5829930000000  0.4331930000000  0.4997540000000 1.0
C      1  0.5054170000000  0.5064140000000  0.5121740000000 1.0
C      1  0.5207610000000  0.5383210000000  0.4139820000000 1.0
C      1  0.5960590000000  0.4748690000000  0.5141910000000 1.0
C      1  0.5557080000000  0.3990250000000  0.5573800000000 1.0
C      1  0.5086520000000  0.5638370000000  0.5096630000000 1.0
C      1  0.4301120000000  0.4019990000000  0.4911840000000 1.0
C      1  0.4568180000000  0.5256100000000  0.4041900000000 1.0
C      1  0.3928170000000  0.4921550000000  0.4961300000000 1.0
C      1  0.4858860000000  0.4579600000000  0.5039540000000 1.0
C      1  0.5261030000000  0.6059510000000  0.5265930000000 1.0
C      1  0.5493830000000  0.4584320000000  0.4150750000000 1.0
C      1  0.5381570000000  0.4381240000000  0.4362810000000 1.0
C      1  0.5287370000000  0.3939120000000  0.5477250000000 1.0
C      1  0.5343350000000  0.5701740000000  0.5799800000000 1.0
C      1  0.4711570000000  0.3946140000000  0.5425110000000 1.0
C      1  0.5583600000000  0.4435750000000  0.5335580000000 1.0
C      1  0.5428520000000  0.4548660000000  0.4655020000000 1.0
C      1  0.5825670000000  0.4230340000000  0.4476880000000 1.0
C      1  0.5823010000000  0.5321870000000  0.5596810000000 1.0
C      1  0.4638680000000  0.5682090000000  0.5816840000000 1.0
C      1  0.6218250000000  0.5223130000000  0.4807400000000 1.0
C      1  0.5631870000000  0.4657780000000  0.5114110000000 1.0
C      1  0.4599240000000  0.5721770000000  0.5488210000000 1.0
C      1  0.5340120000000  0.4392160000000  0.5746870000000 1.0
C      1  0.4825780000000  0.3969680000000  0.5045060000000 1.0
C      1  0.5338900000000  0.4748610000000  0.5063880000000 1.0
C      1  0.6074000000000  0.5275350000000  0.5105670000000 1.0
END
