TITL C-2848500-1637-690 -0.000827460170531986 125000 -436.616504046963 0 0 81 (C1) n - 1
REM
REM in /home/bkarasulu/work/CARBON/AIRSS/Generating-Clusters/AIREBO/with-SteepDescent/Only-C1/SD-CG-opt/Try1-1.4A-POS3A/HFTN-CG
REM
REM
REM
REM
REM
REM ./C.cell (11c1c37f851c82e70ff6c80c92926a4b)
REM
REM compiler GCC version 9.2.1 20190827 (Red Hat 9.2.1-1)
REM options -cpp -mtune=generic -march=x86-64 -g -O0 -fpre-include=/usr/include/finclude/math-vector-fortran.h
REM seed -782462877 -559922526 -675601660 49059827 -1728125416 -377822075 -613487641 1319526378 -398390183 -1820626029 -1772213747 -490129115 1280838522 658596415 11593278 -91750471 870764605 1154651940 1656851750 -2041617733 1866910089 -1841707398 -590556334 569204568 -1063152817 560738777 -1025563079 1565959574 -1695641523 -169770646 -1888038653 2007369406 -488184266
REM
CELL 1.54180   50.00000   50.00000   50.00000   90.00000   90.00000   90.00000
LATT -1
SFAC C  
C      1  0.4695270000000  0.5125640000000  0.5541950000000 1.0
C      1  0.5518770000000  0.5444050000000  0.4525020000000 1.0
C      1  0.5140700000000  0.4539850000000  0.4846300000000 1.0
C      1  0.4667050000000  0.5819490000000  0.4438290000000 1.0
C      1  0.5071780000000  0.5118890000000  0.4631580000000 1.0
C      1  0.4478760000000  0.5088460000000  0.4465040000000 1.0
C      1  0.4567160000000  0.4927120000000  0.4205300000000 1.0
C      1  0.5065610000000  0.4779650000000  0.4616950000000 1.0
C      1  0.5085240000000  0.4068420000000  0.4889890000000 1.0
C      1  0.4123120000000  0.4555750000000  0.4864290000000 1.0
C      1  0.5265790000000  0.5561160000000  0.4501840000000 1.0
C      1  0.5335680000000  0.4804790000000  0.4955930000000 1.0
C      1  0.4831890000000  0.5007340000000  0.5253840000000 1.0
C      1  0.5450740000000  0.4173250000000  0.4592980000000 1.0
C      1  0.4889760000000  0.4098940000000  0.4699770000000 1.0
C      1  0.4622500000000  0.4535130000000  0.4533760000000 1.0
C      1  0.5652900000000  0.4755500000000  0.5365360000000 1.0
C      1  0.4893930000000  0.4731380000000  0.5754660000000 1.0
C      1  0.4597560000000  0.4643240000000  0.4831130000000 1.0
C      1  0.5498300000000  0.5907860000000  0.5423910000000 1.0
C      1  0.5738810000000  0.4868520000000  0.5127780000000 1.0
C      1  0.4917390000000  0.4583900000000  0.5099300000000 1.0
C      1  0.5586760000000  0.4876760000000  0.4362320000000 1.0
C      1  0.4668360000000  0.5305680000000  0.5248540000000 1.0
C      1  0.5553480000000  0.5127610000000  0.4472770000000 1.0
C      1  0.5165890000000  0.4283950000000  0.5643040000000 1.0
C      1  0.4493880000000  0.4742700000000  0.5409300000000 1.0
C      1  0.4809230000000  0.5520750000000  0.5807040000000 1.0
C      1  0.4996590000000  0.4694860000000  0.4319380000000 1.0
C      1  0.5500830000000  0.4513380000000  0.5015550000000 1.0
C      1  0.4480710000000  0.5567780000000  0.5140070000000 1.0
C      1  0.5393960000000  0.4538930000000  0.5324430000000 1.0
C      1  0.5451640000000  0.4673650000000  0.5631370000000 1.0
C      1  0.5139060000000  0.4704700000000  0.5285900000000 1.0
C      1  0.5108880000000  0.5643820000000  0.4793790000000 1.0
C      1  0.4136630000000  0.4688360000000  0.4619880000000 1.0
C      1  0.4713270000000  0.4421410000000  0.5318260000000 1.0
C      1  0.4732050000000  0.5142550000000  0.4652140000000 1.0
C      1  0.5246480000000  0.5027430000000  0.5323090000000 1.0
C      1  0.5565450000000  0.6010030000000  0.5662280000000 1.0
C      1  0.5653000000000  0.4835520000000  0.4104660000000 1.0
C      1  0.4811070000000  0.4867900000000  0.4794990000000 1.0
C      1  0.5247730000000  0.4288830000000  0.5049280000000 1.0
C      1  0.5184940000000  0.4562430000000  0.5735760000000 1.0
C      1  0.4634190000000  0.4767940000000  0.5138750000000 1.0
C      1  0.5553930000000  0.5659580000000  0.5023500000000 1.0
C      1  0.5034890000000  0.4955950000000  0.4994720000000 1.0
C      1  0.4842520000000  0.4310380000000  0.4522510000000 1.0
C      1  0.4672770000000  0.4575800000000  0.5581530000000 1.0
C      1  0.5289680000000  0.5817860000000  0.4980800000000 1.0
C      1  0.4375720000000  0.4768500000000  0.4516980000000 1.0
C      1  0.5000770000000  0.5398740000000  0.4504120000000 1.0
C      1  0.4715770000000  0.4711150000000  0.4267850000000 1.0
C      1  0.4740710000000  0.5614420000000  0.5550850000000 1.0
C      1  0.5074450000000  0.4433280000000  0.4417830000000 1.0
C      1  0.4359210000000  0.5195900000000  0.5338450000000 1.0
C      1  0.4979200000000  0.5821570000000  0.5127720000000 1.0
C      1  0.4788640000000  0.5047470000000  0.5794570000000 1.0
C      1  0.5647510000000  0.5118910000000  0.4991730000000 1.0
C      1  0.5334200000000  0.4431270000000  0.4588350000000 1.0
C      1  0.5584830000000  0.5419890000000  0.4846410000000 1.0
C      1  0.4814700000000  0.5280560000000  0.5949700000000 1.0
C      1  0.4411280000000  0.5376270000000  0.4606090000000 1.0
C      1  0.4478160000000  0.4328760000000  0.5185990000000 1.0
C      1  0.4369870000000  0.4491540000000  0.4983240000000 1.0
C      1  0.5254730000000  0.5938680000000  0.5288900000000 1.0
C      1  0.5242970000000  0.5199350000000  0.5066070000000 1.0
C      1  0.4817270000000  0.5647380000000  0.4630780000000 1.0
C      1  0.4306280000000  0.4947410000000  0.5444800000000 1.0
C      1  0.5271330000000  0.4249920000000  0.5387000000000 1.0
C      1  0.5673920000000  0.5752580000000  0.5253740000000 1.0
C      1  0.4642660000000  0.5205220000000  0.4927120000000 1.0
C      1  0.5121870000000  0.5463900000000  0.5059940000000 1.0
C      1  0.4747480000000  0.5673510000000  0.4962550000000 1.0
C      1  0.5628660000000  0.4756470000000  0.4826220000000 1.0
C      1  0.4492760000000  0.5675520000000  0.5440140000000 1.0
C      1  0.5018720000000  0.4888050000000  0.5511850000000 1.0
C      1  0.4917800000000  0.5531990000000  0.5295490000000 1.0
C      1  0.5383090000000  0.5157810000000  0.4765480000000 1.0
C      1  0.4472480000000  0.5545320000000  0.4804510000000 1.0
C      1  0.5556450000000  0.4663790000000  0.4545010000000 1.0
END
