TITL C-2847949-8115-514 -0.00219007484741441 125000 -933.977890990979 0 0 171 (C1) n - 1
REM
REM in /home/bkarasulu/work/CARBON/AIRSS/Generating-Clusters/AIREBO/with-SteepDescent/Only-C1/SD-CG-opt/Try1-1.4A-POS3A/HFTN-CG
REM
REM
REM
REM
REM
REM ./C.cell (11c1c37f851c82e70ff6c80c92926a4b)
REM
REM compiler GCC version 9.2.1 20190827 (Red Hat 9.2.1-1)
REM options -cpp -mtune=generic -march=x86-64 -g -O0 -fpre-include=/usr/include/finclude/math-vector-fortran.h
REM seed -1575702735 -173768034 198079762 1216488669 1136272597 1151298711 1723398286 -1469941575 1154113277 -1831912448 68865984 -744184253 -1895685586 1610976231 1346792327 1066010609 2102380937 1162841079 1005645891 1833717159 327318507 1756140103 1250173771 -496426601 159126827 1196096855 1421702568 250934631 -1002445219 1795437856 304719511 1731709593 102000799
REM
CELL 1.54180   50.00000   50.00000   50.00000   90.00000   90.00000   90.00000
LATT -1
SFAC C  
C      1  0.5587350000000  0.4556120000000  0.4292600000000 1.0
C      1  0.3949110000000  0.5193840000000  0.5244020000000 1.0
C      1  0.5761110000000  0.5440300000000  0.4645030000000 1.0
C      1  0.4490180000000  0.4538450000000  0.5125710000000 1.0
C      1  0.4108980000000  0.4667230000000  0.4377900000000 1.0
C      1  0.5018460000000  0.5111310000000  0.5922400000000 1.0
C      1  0.5444810000000  0.4068940000000  0.5606530000000 1.0
C      1  0.5422060000000  0.4260620000000  0.4256570000000 1.0
C      1  0.4574790000000  0.5351990000000  0.3327150000000 1.0
C      1  0.4547700000000  0.4097960000000  0.4799040000000 1.0
C      1  0.4063340000000  0.4470340000000  0.5396130000000 1.0
C      1  0.5352480000000  0.5872070000000  0.5190350000000 1.0
C      1  0.5118030000000  0.4518180000000  0.5992720000000 1.0
C      1  0.5240980000000  0.5516610000000  0.5625450000000 1.0
C      1  0.4190190000000  0.4383950000000  0.5096430000000 1.0
C      1  0.6149050000000  0.4781760000000  0.5144870000000 1.0
C      1  0.4212250000000  0.5041810000000  0.5307270000000 1.0
C      1  0.5272670000000  0.4507190000000  0.5079820000000 1.0
C      1  0.5493410000000  0.4610180000000  0.5415360000000 1.0
C      1  0.4262200000000  0.4775220000000  0.5126460000000 1.0
C      1  0.3952190000000  0.5464610000000  0.5073050000000 1.0
C      1  0.4492680000000  0.6029070000000  0.5311050000000 1.0
C      1  0.5002070000000  0.4885630000000  0.4793090000000 1.0
C      1  0.5303820000000  0.5579060000000  0.4742840000000 1.0
C      1  0.5178630000000  0.4852150000000  0.6013710000000 1.0
C      1  0.4663040000000  0.5503580000000  0.5772030000000 1.0
C      1  0.4699740000000  0.5432780000000  0.4144530000000 1.0
C      1  0.4809600000000  0.5107460000000  0.4952050000000 1.0
C      1  0.5201680000000  0.5163350000000  0.5296680000000 1.0
C      1  0.4310290000000  0.5244540000000  0.4458360000000 1.0
C      1  0.5938570000000  0.4579850000000  0.5194500000000 1.0
C      1  0.4531200000000  0.3921920000000  0.5060880000000 1.0
C      1  0.5469820000000  0.5569890000000  0.5102990000000 1.0
C      1  0.4666040000000  0.4044300000000  0.5321810000000 1.0
C      1  0.4604810000000  0.4657570000000  0.4684620000000 1.0
C      1  0.4031590000000  0.4719800000000  0.4932110000000 1.0
C      1  0.5170400000000  0.6065900000000  0.4993930000000 1.0
C      1  0.4465980000000  0.5482030000000  0.4932110000000 1.0
C      1  0.4736960000000  0.4077000000000  0.5643280000000 1.0
C      1  0.4693080000000  0.4137100000000  0.4493040000000 1.0
C      1  0.4982090000000  0.4017030000000  0.4934930000000 1.0
C      1  0.3901290000000  0.4992260000000  0.4483430000000 1.0
C      1  0.4286810000000  0.4270620000000  0.4787700000000 1.0
C      1  0.6103600000000  0.5150540000000  0.5578970000000 1.0
C      1  0.4968910000000  0.5938410000000  0.5472430000000 1.0
C      1  0.4687210000000  0.5033430000000  0.5925090000000 1.0
C      1  0.5596040000000  0.5206500000000  0.5345610000000 1.0
C      1  0.4986820000000  0.3967700000000  0.5260090000000 1.0
C      1  0.4881710000000  0.6046450000000  0.4960720000000 1.0
C      1  0.5063150000000  0.4893170000000  0.3997240000000 1.0
C      1  0.5635700000000  0.5952620000000  0.5073680000000 1.0
C      1  0.5646250000000  0.4944380000000  0.5960280000000 1.0
C      1  0.5251020000000  0.4541360000000  0.4516660000000 1.0
C      1  0.3972990000000  0.4260290000000  0.5551530000000 1.0
C      1  0.5256240000000  0.5384150000000  0.4969590000000 1.0
C      1  0.5817260000000  0.5756210000000  0.5169540000000 1.0
C      1  0.5236410000000  0.4959520000000  0.4282160000000 1.0
C      1  0.5601100000000  0.4254660000000  0.4797800000000 1.0
C      1  0.4750830000000  0.4622730000000  0.4429050000000 1.0
C      1  0.4168080000000  0.5646650000000  0.5140920000000 1.0
C      1  0.4040320000000  0.5144980000000  0.4335910000000 1.0
C      1  0.5107430000000  0.4631280000000  0.5690540000000 1.0
C      1  0.4576540000000  0.5165990000000  0.4315550000000 1.0
C      1  0.5509470000000  0.4810590000000  0.4124360000000 1.0
C      1  0.4628410000000  0.4971280000000  0.5341700000000 1.0
C      1  0.4469610000000  0.4840650000000  0.5732210000000 1.0
C      1  0.4852440000000  0.4774610000000  0.5797400000000 1.0
C      1  0.5598890000000  0.6088850000000  0.4837920000000 1.0
C      1  0.3987860000000  0.4981470000000  0.4782710000000 1.0
C      1  0.5490820000000  0.5413040000000  0.4117870000000 1.0
C      1  0.5177810000000  0.4126950000000  0.5452610000000 1.0
C      1  0.4915870000000  0.5651370000000  0.4924250000000 1.0
C      1  0.4871380000000  0.5379810000000  0.6002740000000 1.0
C      1  0.4828900000000  0.4452850000000  0.6092340000000 1.0
C      1  0.4745980000000  0.5418110000000  0.4829230000000 1.0
C      1  0.4603040000000  0.4664590000000  0.5486540000000 1.0
C      1  0.4693200000000  0.5299240000000  0.3828130000000 1.0
C      1  0.5454220000000  0.4741690000000  0.5948800000000 1.0
C      1  0.5288620000000  0.4268890000000  0.4904310000000 1.0
C      1  0.5688920000000  0.4082120000000  0.5434390000000 1.0
C      1  0.4876000000000  0.4528280000000  0.5486910000000 1.0
C      1  0.5559470000000  0.5146350000000  0.4145200000000 1.0
C      1  0.5211060000000  0.4494980000000  0.4181910000000 1.0
C      1  0.4953320000000  0.5864610000000  0.4443300000000 1.0
C      1  0.4890050000000  0.5161230000000  0.4068700000000 1.0
C      1  0.5596920000000  0.4144660000000  0.5119880000000 1.0
C      1  0.4228150000000  0.4978450000000  0.5622900000000 1.0
C      1  0.4585190000000  0.4382200000000  0.4395210000000 1.0
C      1  0.4985590000000  0.5618330000000  0.5821740000000 1.0
C      1  0.3859410000000  0.4453440000000  0.5058420000000 1.0
C      1  0.5148680000000  0.4418520000000  0.5354530000000 1.0
C      1  0.4816530000000  0.5418370000000  0.5492480000000 1.0
C      1  0.4481670000000  0.5887860000000  0.4675240000000 1.0
C      1  0.5374350000000  0.5111590000000  0.4863970000000 1.0
C      1  0.5213100000000  0.5227170000000  0.4587560000000 1.0
C      1  0.5141690000000  0.5286170000000  0.4260220000000 1.0
C      1  0.5626940000000  0.5185380000000  0.5054330000000 1.0
C      1  0.5553230000000  0.4646720000000  0.5079920000000 1.0
C      1  0.4738400000000  0.4561360000000  0.4947470000000 1.0
C      1  0.4924510000000  0.4932390000000  0.5504550000000 1.0
C      1  0.5486510000000  0.4538070000000  0.5747620000000 1.0
C      1  0.5101010000000  0.4299280000000  0.4677690000000 1.0
C      1  0.4913340000000  0.5276540000000  0.4608670000000 1.0
C      1  0.4975020000000  0.4112870000000  0.4468660000000 1.0
C      1  0.5501460000000  0.5490920000000  0.5408250000000 1.0
C      1  0.5399920000000  0.4993960000000  0.5498090000000 1.0
C      1  0.3857930000000  0.5188540000000  0.4946950000000 1.0
C      1  0.5594160000000  0.5145000000000  0.5737990000000 1.0
C      1  0.4596750000000  0.4652660000000  0.5985470000000 1.0
C      1  0.5107010000000  0.5786950000000  0.4720560000000 1.0
C      1  0.5187540000000  0.4755370000000  0.5380880000000 1.0
C      1  0.4992190000000  0.5317040000000  0.5125960000000 1.0
C      1  0.4062460000000  0.4722570000000  0.5495560000000 1.0
C      1  0.4429000000000  0.5534520000000  0.4326350000000 1.0
C      1  0.5852020000000  0.5137870000000  0.5535230000000 1.0
C      1  0.5778480000000  0.5677030000000  0.4447240000000 1.0
C      1  0.5209880000000  0.5809480000000  0.5455020000000 1.0
C      1  0.5780700000000  0.4996750000000  0.4873780000000 1.0
C      1  0.5459280000000  0.5450050000000  0.4514330000000 1.0
C      1  0.5167950000000  0.4056960000000  0.4280230000000 1.0
C      1  0.4283670000000  0.5865130000000  0.5352180000000 1.0
C      1  0.4399820000000  0.5782460000000  0.4424400000000 1.0
C      1  0.5719740000000  0.5618410000000  0.5735210000000 1.0
C      1  0.5786660000000  0.5115770000000  0.4585710000000 1.0
C      1  0.4924960000000  0.5640480000000  0.4220230000000 1.0
C      1  0.5765650000000  0.5683250000000  0.5443180000000 1.0
C      1  0.4361500000000  0.5751840000000  0.4892010000000 1.0
C      1  0.6071990000000  0.5341020000000  0.4989460000000 1.0
C      1  0.5653840000000  0.4278180000000  0.4486170000000 1.0
C      1  0.4757300000000  0.5974470000000  0.4699120000000 1.0
C      1  0.5477310000000  0.5699160000000  0.4301360000000 1.0
C      1  0.4781580000000  0.5076770000000  0.4473880000000 1.0
C      1  0.5885170000000  0.4500380000000  0.4443550000000 1.0
C      1  0.5734080000000  0.4388600000000  0.5319910000000 1.0
C      1  0.4819080000000  0.4283140000000  0.4842090000000 1.0
C      1  0.3996440000000  0.4431200000000  0.4755820000000 1.0
C      1  0.5286080000000  0.5922220000000  0.4392460000000 1.0
C      1  0.5192470000000  0.5556950000000  0.4060420000000 1.0
C      1  0.5285370000000  0.4003580000000  0.5088140000000 1.0
C      1  0.5306960000000  0.6061150000000  0.4698140000000 1.0
C      1  0.4316080000000  0.4761310000000  0.4630640000000 1.0
C      1  0.4967610000000  0.4258150000000  0.5672090000000 1.0
C      1  0.6154630000000  0.5026050000000  0.5010730000000 1.0
C      1  0.4211260000000  0.5244900000000  0.5789630000000 1.0
C      1  0.4969610000000  0.4838960000000  0.4457730000000 1.0
C      1  0.4543760000000  0.4347300000000  0.5378360000000 1.0
C      1  0.5519580000000  0.5434990000000  0.5802470000000 1.0
C      1  0.4314930000000  0.5547100000000  0.5432130000000 1.0
C      1  0.6096490000000  0.5165930000000  0.4716540000000 1.0
C      1  0.5070910000000  0.5222640000000  0.5604760000000 1.0
C      1  0.5990710000000  0.4589540000000  0.4677050000000 1.0
C      1  0.5493230000000  0.4574210000000  0.4753170000000 1.0
C      1  0.4494220000000  0.5003950000000  0.5026360000000 1.0
C      1  0.5197830000000  0.5681580000000  0.3809840000000 1.0
C      1  0.4523140000000  0.4923190000000  0.6180170000000 1.0
C      1  0.4539370000000  0.5291970000000  0.5411270000000 1.0
C      1  0.4368260000000  0.5467140000000  0.5726800000000 1.0
C      1  0.5083650000000  0.4620260000000  0.3983330000000 1.0
C      1  0.4624650000000  0.5317780000000  0.3582160000000 1.0
C      1  0.4768420000000  0.5933360000000  0.5222700000000 1.0
C      1  0.5282500000000  0.4290640000000  0.5800520000000 1.0
C      1  0.5523350000000  0.5018070000000  0.4455260000000 1.0
C      1  0.4880010000000  0.5613540000000  0.5252420000000 1.0
C      1  0.4317700000000  0.5051500000000  0.4738630000000 1.0
C      1  0.5312580000000  0.4846790000000  0.4659840000000 1.0
C      1  0.5018970000000  0.4708730000000  0.5072500000000 1.0
C      1  0.4367620000000  0.5289090000000  0.5133080000000 1.0
C      1  0.4314950000000  0.4439670000000  0.4518350000000 1.0
C      1  0.5771920000000  0.5482140000000  0.4973400000000 1.0
C      1  0.5919170000000  0.3904240000000  0.5507580000000 1.0
C      1  0.5831800000000  0.4711970000000  0.4912680000000 1.0
END
