TITL C-2848501-3133-122 0.00196334732060601 125000 -850.653610593656 0 0 157 (C1) n - 1
REM
REM in /home/bkarasulu/work/CARBON/AIRSS/Generating-Clusters/AIREBO/with-SteepDescent/Only-C1/SD-CG-opt/Try1-1.4A-POS3A/HFTN-CG
REM
REM
REM
REM
REM
REM ./C.cell (11c1c37f851c82e70ff6c80c92926a4b)
REM
REM compiler GCC version 9.2.1 20190827 (Red Hat 9.2.1-1)
REM options -cpp -mtune=generic -march=x86-64 -g -O0 -fpre-include=/usr/include/finclude/math-vector-fortran.h
REM seed -45194138 259494160 -1382532238 468200873 -1429607418 1008346305 -1693768090 -1426129498 359788232 2036897668 -2072463006 1519927605 -1484919659 1093512776 -1269479442 -315963362 -700194981 541904826 -1903623879 -811084390 364592780 143268302 1709273481 -138810694 -1927680128 -1319262738 -1974412646 2128055019 1866735207 1420680178 540554129 -1789115955 731762388
REM
CELL 1.54180   50.00000   50.00000   50.00000   90.00000   90.00000   90.00000
LATT -1
SFAC C  
C      1  0.4090320000000  0.5164640000000  0.5124190000000 1.0
C      1  0.5314720000000  0.4440330000000  0.5161010000000 1.0
C      1  0.4674920000000  0.5103400000000  0.4089100000000 1.0
C      1  0.4591160000000  0.4604130000000  0.4598430000000 1.0
C      1  0.5490430000000  0.4960640000000  0.4597180000000 1.0
C      1  0.4752620000000  0.4200900000000  0.4417300000000 1.0
C      1  0.4540850000000  0.4134200000000  0.5668110000000 1.0
C      1  0.6081910000000  0.5590140000000  0.5021580000000 1.0
C      1  0.4895590000000  0.5797850000000  0.5538880000000 1.0
C      1  0.5540560000000  0.4665210000000  0.4117530000000 1.0
C      1  0.4431300000000  0.5237600000000  0.5455660000000 1.0
C      1  0.4894610000000  0.4649490000000  0.3999660000000 1.0
C      1  0.5548720000000  0.4157820000000  0.4707970000000 1.0
C      1  0.4285430000000  0.5282450000000  0.4392980000000 1.0
C      1  0.4598190000000  0.4060480000000  0.5050820000000 1.0
C      1  0.4911270000000  0.5321590000000  0.4517950000000 1.0
C      1  0.5493760000000  0.4711950000000  0.5815830000000 1.0
C      1  0.5979470000000  0.5004840000000  0.5219800000000 1.0
C      1  0.4735680000000  0.5073640000000  0.6044900000000 1.0
C      1  0.5251670000000  0.4827480000000  0.5994130000000 1.0
C      1  0.4229040000000  0.4397850000000  0.4681470000000 1.0
C      1  0.4946840000000  0.5051510000000  0.4000690000000 1.0
C      1  0.4222260000000  0.4599420000000  0.5581310000000 1.0
C      1  0.5054380000000  0.6000860000000  0.5097990000000 1.0
C      1  0.5691430000000  0.5274150000000  0.4800230000000 1.0
C      1  0.5491670000000  0.4170790000000  0.5214780000000 1.0
C      1  0.5411050000000  0.4903630000000  0.5222460000000 1.0
C      1  0.4951040000000  0.5567180000000  0.5775140000000 1.0
C      1  0.5578740000000  0.4641700000000  0.4675400000000 1.0
C      1  0.4905680000000  0.5010230000000  0.5283650000000 1.0
C      1  0.5034020000000  0.4655320000000  0.5850820000000 1.0
C      1  0.4501350000000  0.4877080000000  0.4129860000000 1.0
C      1  0.5590810000000  0.5410210000000  0.4536410000000 1.0
C      1  0.4851920000000  0.4474450000000  0.5512300000000 1.0
C      1  0.5146540000000  0.4326800000000  0.4903270000000 1.0
C      1  0.5610890000000  0.4286620000000  0.5511400000000 1.0
C      1  0.5342960000000  0.5862620000000  0.5212930000000 1.0
C      1  0.5799100000000  0.5734850000000  0.4908540000000 1.0
C      1  0.4146750000000  0.5550310000000  0.5195940000000 1.0
C      1  0.5460520000000  0.5248310000000  0.5028660000000 1.0
C      1  0.4727830000000  0.4933860000000  0.4807070000000 1.0
C      1  0.4193750000000  0.4323930000000  0.4994150000000 1.0
C      1  0.5353520000000  0.5806240000000  0.4321290000000 1.0
C      1  0.4392200000000  0.4327650000000  0.5462450000000 1.0
C      1  0.5022850000000  0.4211060000000  0.4366090000000 1.0
C      1  0.4691770000000  0.4538210000000  0.4979610000000 1.0
C      1  0.5139910000000  0.4530300000000  0.4367910000000 1.0
C      1  0.4375140000000  0.4795780000000  0.5725750000000 1.0
C      1  0.5543160000000  0.4909690000000  0.5475890000000 1.0
C      1  0.4534290000000  0.4355510000000  0.4789200000000 1.0
C      1  0.5522960000000  0.4662780000000  0.5010150000000 1.0
C      1  0.5059850000000  0.5609810000000  0.4501940000000 1.0
C      1  0.5754590000000  0.4564400000000  0.5645600000000 1.0
C      1  0.5260960000000  0.5079240000000  0.5602600000000 1.0
C      1  0.5204920000000  0.4789940000000  0.4977860000000 1.0
C      1  0.4287250000000  0.5500480000000  0.4637140000000 1.0
C      1  0.5369690000000  0.4489700000000  0.5625930000000 1.0
C      1  0.4408010000000  0.4819770000000  0.4787070000000 1.0
C      1  0.5159530000000  0.5092200000000  0.5998360000000 1.0
C      1  0.4957030000000  0.4322080000000  0.5883740000000 1.0
C      1  0.5240820000000  0.5604500000000  0.4145860000000 1.0
C      1  0.5199010000000  0.5124070000000  0.5207240000000 1.0
C      1  0.5267420000000  0.4188240000000  0.4533780000000 1.0
C      1  0.5546550000000  0.5045990000000  0.5778920000000 1.0
C      1  0.4077450000000  0.4740300000000  0.4813790000000 1.0
C      1  0.4364180000000  0.4177660000000  0.5165460000000 1.0
C      1  0.5880460000000  0.4348550000000  0.5010320000000 1.0
C      1  0.4521320000000  0.6000510000000  0.4500220000000 1.0
C      1  0.4733920000000  0.5623990000000  0.5333130000000 1.0
C      1  0.5305190000000  0.5783010000000  0.4880140000000 1.0
C      1  0.5425590000000  0.4934210000000  0.4263090000000 1.0
C      1  0.5506790000000  0.5320670000000  0.4066730000000 1.0
C      1  0.5835850000000  0.4646740000000  0.5117270000000 1.0
C      1  0.4287190000000  0.4945780000000  0.4331520000000 1.0
C      1  0.5153030000000  0.4575730000000  0.5407970000000 1.0
C      1  0.4680110000000  0.4816750000000  0.5608220000000 1.0
C      1  0.4617550000000  0.5501950000000  0.5795450000000 1.0
C      1  0.5524270000000  0.6081010000000  0.5323370000000 1.0
C      1  0.4961820000000  0.4177400000000  0.5388640000000 1.0
C      1  0.4423630000000  0.5757280000000  0.4706820000000 1.0
C      1  0.4620360000000  0.5318740000000  0.4346890000000 1.0
C      1  0.4226950000000  0.5104170000000  0.4742940000000 1.0
C      1  0.4211330000000  0.5376400000000  0.4910970000000 1.0
C      1  0.5334650000000  0.5602180000000  0.5378880000000 1.0
C      1  0.5209820000000  0.5415570000000  0.5613690000000 1.0
C      1  0.4528540000000  0.5253200000000  0.5912620000000 1.0
C      1  0.5282250000000  0.4490980000000  0.4674790000000 1.0
C      1  0.5148760000000  0.6079150000000  0.4780720000000 1.0
C      1  0.5825770000000  0.4779590000000  0.5423000000000 1.0
C      1  0.4892200000000  0.5482260000000  0.5067650000000 1.0
C      1  0.4686450000000  0.4478140000000  0.5810560000000 1.0
C      1  0.5189670000000  0.5273120000000  0.4087430000000 1.0
C      1  0.4817730000000  0.3956510000000  0.5200440000000 1.0
C      1  0.5788480000000  0.5592080000000  0.5193410000000 1.0
C      1  0.4017490000000  0.5090030000000  0.4475450000000 1.0
C      1  0.5621470000000  0.4363550000000  0.4485090000000 1.0
C      1  0.5659200000000  0.5257460000000  0.4284200000000 1.0
C      1  0.4118350000000  0.4747070000000  0.5369430000000 1.0
C      1  0.5976320000000  0.5173040000000  0.5507350000000 1.0
C      1  0.5663860000000  0.4185160000000  0.4966050000000 1.0
C      1  0.4474130000000  0.5458440000000  0.5200550000000 1.0
C      1  0.4796640000000  0.5970200000000  0.4379650000000 1.0
C      1  0.4817410000000  0.4120320000000  0.5691150000000 1.0
C      1  0.5011270000000  0.4949950000000  0.4621570000000 1.0
C      1  0.4630710000000  0.5037810000000  0.4538130000000 1.0
C      1  0.4633840000000  0.4623090000000  0.4114820000000 1.0
C      1  0.4974720000000  0.4063090000000  0.4848550000000 1.0
C      1  0.3816270000000  0.5075600000000  0.5023690000000 1.0
C      1  0.5275250000000  0.4197990000000  0.5475610000000 1.0
C      1  0.4169270000000  0.4676070000000  0.4502470000000 1.0
C      1  0.5603290000000  0.5839190000000  0.4756970000000 1.0
C      1  0.3819520000000  0.4900200000000  0.4841040000000 1.0
C      1  0.4914020000000  0.5234820000000  0.5810940000000 1.0
C      1  0.5044800000000  0.5332250000000  0.4803380000000 1.0
C      1  0.6179970000000  0.5059950000000  0.4778080000000 1.0
C      1  0.5152390000000  0.5417300000000  0.5218910000000 1.0
C      1  0.5452100000000  0.4446950000000  0.4261990000000 1.0
C      1  0.4417730000000  0.5078800000000  0.5090450000000 1.0
C      1  0.5835310000000  0.4789620000000  0.4490880000000 1.0
C      1  0.4239330000000  0.5667350000000  0.5447860000000 1.0
C      1  0.4490810000000  0.5616840000000  0.5567120000000 1.0
C      1  0.4678920000000  0.5651290000000  0.4387420000000 1.0
C      1  0.4902940000000  0.4786870000000  0.5040880000000 1.0
C      1  0.4170230000000  0.5028710000000  0.5392740000000 1.0
C      1  0.5305930000000  0.5499650000000  0.4692190000000 1.0
C      1  0.5086350000000  0.5117800000000  0.4363750000000 1.0
C      1  0.5578730000000  0.5404930000000  0.5307090000000 1.0
C      1  0.4923750000000  0.4388470000000  0.5124720000000 1.0
C      1  0.4967860000000  0.5744050000000  0.4899600000000 1.0
C      1  0.4676000000000  0.4092030000000  0.4720480000000 1.0
C      1  0.6011180000000  0.4855520000000  0.4953620000000 1.0
C      1  0.4696500000000  0.5215540000000  0.5111160000000 1.0
C      1  0.4470550000000  0.4746810000000  0.5113310000000 1.0
C      1  0.4758100000000  0.5185710000000  0.5534750000000 1.0
C      1  0.5095360000000  0.5942690000000  0.4497500000000 1.0
C      1  0.5747810000000  0.4973850000000  0.4291450000000 1.0
C      1  0.4750000000000  0.5750350000000  0.4705100000000 1.0
C      1  0.5014570000000  0.3826940000000  0.5015630000000 1.0
C      1  0.5566470000000  0.5726580000000  0.4491710000000 1.0
C      1  0.5792920000000  0.4968720000000  0.4752430000000 1.0
C      1  0.4586820000000  0.5965700000000  0.5174300000000 1.0
C      1  0.5703230000000  0.5261580000000  0.5567500000000 1.0
C      1  0.4895610000000  0.4667420000000  0.4560600000000 1.0
C      1  0.4496990000000  0.5749760000000  0.5026390000000 1.0
C      1  0.5261980000000  0.5070880000000  0.4816890000000 1.0
C      1  0.4163110000000  0.4614920000000  0.5090580000000 1.0
C      1  0.6008840000000  0.5285500000000  0.4886820000000 1.0
C      1  0.5111320000000  0.4822790000000  0.4196280000000 1.0
C      1  0.4570750000000  0.4602870000000  0.5389120000000 1.0
C      1  0.6078330000000  0.5318440000000  0.5218010000000 1.0
C      1  0.4841110000000  0.6006880000000  0.5308840000000 1.0
C      1  0.4929700000000  0.5552780000000  0.4193030000000 1.0
C      1  0.5284360000000  0.5337710000000  0.5920090000000 1.0
C      1  0.4616560000000  0.4441110000000  0.4333530000000 1.0
C      1  0.5015550000000  0.4846630000000  0.5560930000000 1.0
C      1  0.4357970000000  0.5092780000000  0.5739170000000 1.0
C      1  0.4733650000000  0.4791830000000  0.5933060000000 1.0
END
