TITL C-2848503-6230-568 0.000586145886908086 125000 -330.649949830954 0 0 59 (C1) n - 1
REM
REM in /home/bkarasulu/work/CARBON/AIRSS/Generating-Clusters/AIREBO/with-SteepDescent/Only-C1/SD-CG-opt/Try1-1.4A-POS3A/HFTN-CG
REM
REM
REM
REM
REM
REM ./C.cell (11c1c37f851c82e70ff6c80c92926a4b)
REM
REM compiler GCC version 9.2.1 20190827 (Red Hat 9.2.1-1)
REM options -cpp -mtune=generic -march=x86-64 -g -O0 -fpre-include=/usr/include/finclude/math-vector-fortran.h
REM seed 1830948119 1233160565 2079023984 -213361547 -914322477 -1068854776 -1223316823 -960610605 -1841057878 1238574327 238346218 -184416690 1830216581 -463062286 -764697511 765877263 1691187043 215126890 268751366 1653831165 -1405806674 1484163249 -44603394 -915452405 -433247351 -1532697554 962361687 -360179507 1630328531 995650509 1809628518 -305325713 -1638942841
REM
CELL 1.54180   50.00000   50.00000   50.00000   90.00000   90.00000   90.00000
LATT -1
SFAC C  
C      1  0.5435500000000  0.4685010000000  0.4300550000000 1.0
C      1  0.4828230000000  0.5026210000000  0.5118860000000 1.0
C      1  0.4816880000000  0.4531280000000  0.5200010000000 1.0
C      1  0.5164650000000  0.4984100000000  0.5150300000000 1.0
C      1  0.5826270000000  0.4566120000000  0.5112650000000 1.0
C      1  0.4313980000000  0.4961000000000  0.5734630000000 1.0
C      1  0.4542570000000  0.4635370000000  0.5230230000000 1.0
C      1  0.5457810000000  0.4667780000000  0.4048970000000 1.0
C      1  0.5604480000000  0.5358110000000  0.4751380000000 1.0
C      1  0.4508770000000  0.4923260000000  0.5063330000000 1.0
C      1  0.4623740000000  0.5690780000000  0.5129340000000 1.0
C      1  0.4331730000000  0.5162520000000  0.5533330000000 1.0
C      1  0.4557480000000  0.5121340000000  0.4791260000000 1.0
C      1  0.5009230000000  0.5150230000000  0.4266770000000 1.0
C      1  0.4443560000000  0.4705620000000  0.5723380000000 1.0
C      1  0.4892290000000  0.4349320000000  0.4679010000000 1.0
C      1  0.5324770000000  0.5301800000000  0.5332430000000 1.0
C      1  0.5531350000000  0.5027930000000  0.4763040000000 1.0
C      1  0.4578840000000  0.5000800000000  0.4490730000000 1.0
C      1  0.4301930000000  0.5075190000000  0.5265900000000 1.0
C      1  0.4806400000000  0.4793380000000  0.4495610000000 1.0
C      1  0.5474750000000  0.4930780000000  0.5042270000000 1.0
C      1  0.4695870000000  0.5210300000000  0.4303170000000 1.0
C      1  0.5654480000000  0.4771150000000  0.5161630000000 1.0
C      1  0.4957480000000  0.5740970000000  0.4375870000000 1.0
C      1  0.4942640000000  0.4480470000000  0.4969560000000 1.0
C      1  0.4957710000000  0.4544700000000  0.5930060000000 1.0
C      1  0.5480620000000  0.5568550000000  0.4867360000000 1.0
C      1  0.4782050000000  0.5319630000000  0.4834200000000 1.0
C      1  0.4778880000000  0.4523950000000  0.4485100000000 1.0
C      1  0.4491690000000  0.5395430000000  0.5549280000000 1.0
C      1  0.4720790000000  0.4675570000000  0.5846550000000 1.0
C      1  0.4794070000000  0.4891430000000  0.5674320000000 1.0
C      1  0.4646840000000  0.5490210000000  0.5341070000000 1.0
C      1  0.4847260000000  0.5489150000000  0.4377560000000 1.0
C      1  0.5814040000000  0.4379920000000  0.4913220000000 1.0
C      1  0.5191190000000  0.4452370000000  0.4762270000000 1.0
C      1  0.5597220000000  0.5220620000000  0.5464250000000 1.0
C      1  0.5365810000000  0.4974710000000  0.5424370000000 1.0
C      1  0.4295280000000  0.4789400000000  0.4835070000000 1.0
C      1  0.5824540000000  0.5162230000000  0.4651760000000 1.0
C      1  0.4775170000000  0.5632010000000  0.4899960000000 1.0
C      1  0.4873950000000  0.4813090000000  0.5364560000000 1.0
C      1  0.5424630000000  0.4536000000000  0.4597970000000 1.0
C      1  0.5153370000000  0.5442670000000  0.5186910000000 1.0
C      1  0.5685460000000  0.4396680000000  0.4675160000000 1.0
C      1  0.4880430000000  0.5127320000000  0.5497670000000 1.0
C      1  0.5201610000000  0.4643440000000  0.5838510000000 1.0
C      1  0.5026000000000  0.5752990000000  0.4849040000000 1.0
C      1  0.4969460000000  0.5249590000000  0.4589620000000 1.0
C      1  0.5372960000000  0.4871010000000  0.4565080000000 1.0
C      1  0.4869010000000  0.5346160000000  0.5162720000000 1.0
C      1  0.5350850000000  0.4755700000000  0.5640970000000 1.0
C      1  0.5045950000000  0.5878900000000  0.4597820000000 1.0
C      1  0.5234830000000  0.5624130000000  0.4987960000000 1.0
C      1  0.4410900000000  0.4578490000000  0.5470960000000 1.0
C      1  0.5062370000000  0.4941600000000  0.4602030000000 1.0
C      1  0.5144790000000  0.4802740000000  0.4883920000000 1.0
C      1  0.4304610000000  0.4878810000000  0.4598470000000 1.0
END
