TITL C-2847951-7423-368 -0.0011069436081323 125000 -362.747690877516 0 0 64 (C1) n - 1
REM
REM in /home/bkarasulu/work/CARBON/AIRSS/Generating-Clusters/AIREBO/with-SteepDescent/Only-C1/SD-CG-opt/Try1-1.4A-POS3A/HFTN-CG
REM
REM
REM
REM
REM
REM ./C.cell (11c1c37f851c82e70ff6c80c92926a4b)
REM
REM compiler GCC version 9.2.1 20190827 (Red Hat 9.2.1-1)
REM options -cpp -mtune=generic -march=x86-64 -g -O0 -fpre-include=/usr/include/finclude/math-vector-fortran.h
REM seed 1043688626 711987307 -356621996 1207715214 -1895996079 1866686851 1705375529 -1606207836 -1953038767 1389357229 -2041681526 -1339821164 -1785163790 246299333 -1694581931 722032775 1526424290 -980149651 -529496655 33198291 -1401114915 -2015732694 942192007 1414069020 732136408 587821605 1611677930 -1918195884 -116957866 -294820925 1219720342 139713269 -961049026
REM
CELL 1.54180   50.00000   50.00000   50.00000   90.00000   90.00000   90.00000
LATT -1
SFAC C  
C      1  0.4667890000000  0.4972980000000  0.5615740000000 1.0
C      1  0.5445410000000  0.5278980000000  0.4893630000000 1.0
C      1  0.4524850000000  0.4756980000000  0.4668030000000 1.0
C      1  0.4971100000000  0.5685640000000  0.5152980000000 1.0
C      1  0.5370650000000  0.5683230000000  0.4668330000000 1.0
C      1  0.4187320000000  0.3915270000000  0.4880440000000 1.0
C      1  0.4892410000000  0.4833160000000  0.4371860000000 1.0
C      1  0.4890760000000  0.5229420000000  0.5577270000000 1.0
C      1  0.4725210000000  0.5317070000000  0.5224390000000 1.0
C      1  0.5225850000000  0.5123750000000  0.5054280000000 1.0
C      1  0.5589850000000  0.5419730000000  0.5349260000000 1.0
C      1  0.4340050000000  0.5258740000000  0.5313520000000 1.0
C      1  0.4617830000000  0.5116030000000  0.4316000000000 1.0
C      1  0.4952390000000  0.4839330000000  0.4863010000000 1.0
C      1  0.4501500000000  0.5319310000000  0.4162180000000 1.0
C      1  0.5033250000000  0.5543710000000  0.5377180000000 1.0
C      1  0.4704190000000  0.5478100000000  0.5612330000000 1.0
C      1  0.5211670000000  0.5216660000000  0.4438820000000 1.0
C      1  0.5595800000000  0.4423470000000  0.4718850000000 1.0
C      1  0.5402820000000  0.5745110000000  0.4948550000000 1.0
C      1  0.4351760000000  0.5052330000000  0.5507950000000 1.0
C      1  0.5861550000000  0.5329090000000  0.4618060000000 1.0
C      1  0.4796370000000  0.5512490000000  0.4954790000000 1.0
C      1  0.4944190000000  0.5218730000000  0.4986240000000 1.0
C      1  0.4510560000000  0.4801320000000  0.5110390000000 1.0
C      1  0.4906010000000  0.4771640000000  0.5171830000000 1.0
C      1  0.5916600000000  0.4743330000000  0.5021150000000 1.0
C      1  0.4444720000000  0.4602910000000  0.4917760000000 1.0
C      1  0.5708350000000  0.5146160000000  0.4770250000000 1.0
C      1  0.4682020000000  0.5022140000000  0.4958710000000 1.0
C      1  0.5305320000000  0.5405330000000  0.4629120000000 1.0
C      1  0.4428910000000  0.5257680000000  0.4760460000000 1.0
C      1  0.5462920000000  0.4717690000000  0.4760930000000 1.0
C      1  0.5698470000000  0.4550380000000  0.4994600000000 1.0
C      1  0.5887330000000  0.4991520000000  0.4971730000000 1.0
C      1  0.5156260000000  0.5244020000000  0.5365010000000 1.0
C      1  0.4475910000000  0.4340050000000  0.5039170000000 1.0
C      1  0.4956950000000  0.5135860000000  0.4369500000000 1.0
C      1  0.5102480000000  0.4471580000000  0.5522930000000 1.0
C      1  0.4502550000000  0.5489380000000  0.5404440000000 1.0
C      1  0.4678660000000  0.4325710000000  0.5241650000000 1.0
C      1  0.5418650000000  0.5027900000000  0.4386080000000 1.0
C      1  0.5429790000000  0.5221160000000  0.5486680000000 1.0
C      1  0.5274320000000  0.4679070000000  0.5633790000000 1.0
C      1  0.4393250000000  0.5177820000000  0.5048890000000 1.0
C      1  0.5256020000000  0.4813930000000  0.4985630000000 1.0
C      1  0.5171850000000  0.5860080000000  0.5065150000000 1.0
C      1  0.5561340000000  0.4933770000000  0.4599460000000 1.0
C      1  0.5125090000000  0.4226540000000  0.4990620000000 1.0
C      1  0.4836830000000  0.4353410000000  0.5519720000000 1.0
C      1  0.4486240000000  0.4808740000000  0.5379850000000 1.0
C      1  0.5451030000000  0.4617990000000  0.5160860000000 1.0
C      1  0.4809980000000  0.4733290000000  0.4618830000000 1.0
C      1  0.5455810000000  0.4970390000000  0.5604670000000 1.0
C      1  0.4318640000000  0.4124980000000  0.4966840000000 1.0
C      1  0.4464970000000  0.5038350000000  0.4579100000000 1.0
C      1  0.5524620000000  0.4716580000000  0.5437320000000 1.0
C      1  0.4560090000000  0.5691200000000  0.4549570000000 1.0
C      1  0.4947460000000  0.4468060000000  0.5154860000000 1.0
C      1  0.5520600000000  0.5514790000000  0.5086340000000 1.0
C      1  0.4580700000000  0.5501510000000  0.4745120000000 1.0
C      1  0.4835980000000  0.5010780000000  0.5326430000000 1.0
C      1  0.5261120000000  0.4391250000000  0.5249270000000 1.0
C      1  0.4686930000000  0.4832380000000  0.4141570000000 1.0
END
