TITL C-2847945-6269-436 0.00351758354511527 125000 -553.445451825073 0 0 104 (C1) n - 1
REM
REM in /home/bkarasulu/work/CARBON/AIRSS/Generating-Clusters/AIREBO/with-SteepDescent/Only-C1/SD-CG-opt/Try1-1.4A-POS3A/HFTN-CG
REM
REM
REM
REM
REM
REM ./C.cell (11c1c37f851c82e70ff6c80c92926a4b)
REM
REM compiler GCC version 9.2.1 20190827 (Red Hat 9.2.1-1)
REM options -cpp -mtune=generic -march=x86-64 -g -O0 -fpre-include=/usr/include/finclude/math-vector-fortran.h
REM seed -1072282993 116091902 292196895 1668257410 545480496 -1468248404 468110702 1215294994 144935435 -1037294060 772640749 1753269458 1707939135 -491754649 -818181551 -308144081 -599191283 -1197564196 -1844231544 -1072396914 -420868967 1670641088 1606036560 -596956866 -1872294550 -1091468439 -430988365 1483438800 -1077361571 1051174847 -2127944169 1794857837 -1900745847
REM
CELL 1.54180   50.00000   50.00000   50.00000   90.00000   90.00000   90.00000
LATT -1
SFAC C  
C      1  0.4937470000000  0.5655770000000  0.5727930000000 1.0
C      1  0.4780800000000  0.4589150000000  0.5718740000000 1.0
C      1  0.4463850000000  0.4904940000000  0.5604420000000 1.0
C      1  0.4815810000000  0.5181670000000  0.6097860000000 1.0
C      1  0.5599630000000  0.4189630000000  0.5217300000000 1.0
C      1  0.4414860000000  0.5442670000000  0.5102310000000 1.0
C      1  0.5166260000000  0.4589140000000  0.4844640000000 1.0
C      1  0.4469610000000  0.4757830000000  0.4389360000000 1.0
C      1  0.4550330000000  0.5036870000000  0.5307560000000 1.0
C      1  0.5345920000000  0.5316220000000  0.5368410000000 1.0
C      1  0.4714900000000  0.4682280000000  0.4296800000000 1.0
C      1  0.5359710000000  0.4872660000000  0.4250690000000 1.0
C      1  0.4682150000000  0.5657620000000  0.5306940000000 1.0
C      1  0.4835020000000  0.5872500000000  0.5211970000000 1.0
C      1  0.5317720000000  0.5460610000000  0.4558370000000 1.0
C      1  0.5435860000000  0.5830580000000  0.4731850000000 1.0
C      1  0.5390470000000  0.4917640000000  0.4849630000000 1.0
C      1  0.5006310000000  0.5435220000000  0.4582900000000 1.0
C      1  0.5506330000000  0.5468370000000  0.5818740000000 1.0
C      1  0.5346590000000  0.5162440000000  0.5844830000000 1.0
C      1  0.5368420000000  0.4663710000000  0.5074810000000 1.0
C      1  0.4715080000000  0.5633540000000  0.4770830000000 1.0
C      1  0.4400480000000  0.4284830000000  0.4729490000000 1.0
C      1  0.5356350000000  0.4417120000000  0.5281210000000 1.0
C      1  0.4848210000000  0.5125590000000  0.3693670000000 1.0
C      1  0.6075360000000  0.5621280000000  0.5321140000000 1.0
C      1  0.4733730000000  0.4110390000000  0.5520490000000 1.0
C      1  0.4898730000000  0.5427600000000  0.5334510000000 1.0
C      1  0.4568380000000  0.5566900000000  0.4458260000000 1.0
C      1  0.5597930000000  0.4430930000000  0.4805300000000 1.0
C      1  0.5158960000000  0.4815160000000  0.5522040000000 1.0
C      1  0.4229640000000  0.5126510000000  0.5257740000000 1.0
C      1  0.4966570000000  0.5025310000000  0.3904890000000 1.0
C      1  0.4330030000000  0.4861350000000  0.4976820000000 1.0
C      1  0.5850930000000  0.5532830000000  0.5237900000000 1.0
C      1  0.5446010000000  0.5486370000000  0.4279530000000 1.0
C      1  0.4857140000000  0.4686050000000  0.5073660000000 1.0
C      1  0.4719980000000  0.4191180000000  0.4656840000000 1.0
C      1  0.5134490000000  0.5788030000000  0.5094060000000 1.0
C      1  0.5523740000000  0.5236910000000  0.5598340000000 1.0
C      1  0.5020950000000  0.4165130000000  0.4591470000000 1.0
C      1  0.4784160000000  0.5016990000000  0.4578040000000 1.0
C      1  0.4856790000000  0.5652860000000  0.4399010000000 1.0
C      1  0.4411790000000  0.5020060000000  0.4432960000000 1.0
C      1  0.4391010000000  0.5357710000000  0.4413680000000 1.0
C      1  0.5449920000000  0.4939610000000  0.5228710000000 1.0
C      1  0.5141570000000  0.5067050000000  0.5294200000000 1.0
C      1  0.4709500000000  0.4381560000000  0.5476990000000 1.0
C      1  0.5087840000000  0.5120020000000  0.4691090000000 1.0
C      1  0.5130150000000  0.5547980000000  0.5503380000000 1.0
C      1  0.4292520000000  0.5169930000000  0.4931440000000 1.0
C      1  0.4301320000000  0.4533090000000  0.4521650000000 1.0
C      1  0.4923250000000  0.4628510000000  0.5382340000000 1.0
C      1  0.5322430000000  0.4317320000000  0.4805740000000 1.0
C      1  0.5858570000000  0.4603500000000  0.5214140000000 1.0
C      1  0.5018430000000  0.4262760000000  0.5005440000000 1.0
C      1  0.5826460000000  0.4925900000000  0.5271840000000 1.0
C      1  0.5178840000000  0.5879180000000  0.4805190000000 1.0
C      1  0.5083650000000  0.4950320000000  0.4122050000000 1.0
C      1  0.5336120000000  0.5004540000000  0.4531140000000 1.0
C      1  0.5285360000000  0.4617420000000  0.4449210000000 1.0
C      1  0.4222750000000  0.5200330000000  0.4638460000000 1.0
C      1  0.5179210000000  0.4015450000000  0.4836300000000 1.0
C      1  0.5432150000000  0.5646850000000  0.5573680000000 1.0
C      1  0.4448470000000  0.5677760000000  0.4933850000000 1.0
C      1  0.5627270000000  0.5027750000000  0.4257980000000 1.0
C      1  0.4930640000000  0.4757460000000  0.4749400000000 1.0
C      1  0.5004210000000  0.4810140000000  0.4421540000000 1.0
C      1  0.4837730000000  0.5142020000000  0.5427170000000 1.0
C      1  0.4467250000000  0.4607250000000  0.4810690000000 1.0
C      1  0.4152280000000  0.5356700000000  0.5390000000000 1.0
C      1  0.4642700000000  0.4092700000000  0.4975420000000 1.0
C      1  0.5018060000000  0.5206200000000  0.5012520000000 1.0
C      1  0.5575600000000  0.4648330000000  0.4625810000000 1.0
C      1  0.4729260000000  0.4415500000000  0.4912370000000 1.0
C      1  0.5718110000000  0.4926310000000  0.4760950000000 1.0
C      1  0.4963020000000  0.5828110000000  0.4643170000000 1.0
C      1  0.4928220000000  0.5536100000000  0.5017330000000 1.0
C      1  0.5677470000000  0.4717570000000  0.5470770000000 1.0
C      1  0.5174100000000  0.4314640000000  0.4413300000000 1.0
C      1  0.4688680000000  0.5626360000000  0.5826890000000 1.0
C      1  0.4436140000000  0.5618100000000  0.5724480000000 1.0
C      1  0.5285360000000  0.4112560000000  0.5146340000000 1.0
C      1  0.5532100000000  0.5540570000000  0.4812380000000 1.0
C      1  0.4162640000000  0.4590990000000  0.5069120000000 1.0
C      1  0.4450810000000  0.4485080000000  0.5325240000000 1.0
C      1  0.4401140000000  0.5561580000000  0.5420770000000 1.0
C      1  0.5799530000000  0.4946240000000  0.4451570000000 1.0
C      1  0.5132950000000  0.4986340000000  0.5790790000000 1.0
C      1  0.5410400000000  0.4637800000000  0.5487100000000 1.0
C      1  0.4681270000000  0.4844700000000  0.5776760000000 1.0
C      1  0.5678370000000  0.5106600000000  0.5049850000000 1.0
C      1  0.4302750000000  0.4683030000000  0.5537360000000 1.0
C      1  0.5466700000000  0.5232070000000  0.4737600000000 1.0
C      1  0.4567180000000  0.4741960000000  0.5172890000000 1.0
C      1  0.4042880000000  0.4469800000000  0.4382660000000 1.0
C      1  0.5395150000000  0.5690380000000  0.5242700000000 1.0
C      1  0.5735290000000  0.4398770000000  0.5053990000000 1.0
C      1  0.5563880000000  0.5418150000000  0.5128020000000 1.0
C      1  0.4740910000000  0.5295650000000  0.4743290000000 1.0
C      1  0.4674420000000  0.5229420000000  0.5056160000000 1.0
C      1  0.5604660000000  0.5292630000000  0.4170900000000 1.0
C      1  0.4875550000000  0.5014280000000  0.5895590000000 1.0
C      1  0.4312340000000  0.4332930000000  0.5054340000000 1.0
END
