TITL C-2847944-5688-603 530.430808403146 125000 -799.262092709527 0 0 149 (C1) n - 1
REM
REM in /home/bkarasulu/work/CARBON/AIRSS/Generating-Clusters/AIREBO/with-SteepDescent/Only-C1/SD-CG-opt/Try1-1.4A-POS3A/HFTN-CG
REM
REM
REM
REM
REM
REM ./C.cell (11c1c37f851c82e70ff6c80c92926a4b)
REM
REM compiler GCC version 9.2.1 20190827 (Red Hat 9.2.1-1)
REM options -cpp -mtune=generic -march=x86-64 -g -O0 -fpre-include=/usr/include/finclude/math-vector-fortran.h
REM seed 1677945220 1282236498 -609019999 2114545784 -4186099 -313806132 704998154 -753792864 175912392 1467499172 81227908 -1116862686 760245271 -1303356589 500977412 1254885251 403065180 1727504694 1094833960 1491738034 1812580589 1501886414 -321799655 173203499 309875200 -1036284805 1631647327 -1374010668 -1036478831 -1193505867 134245951 -1843115693 745388542
REM
CELL 1.54180   50.00000   50.00000   50.00000   90.00000   90.00000   90.00000
LATT -1
SFAC C  
C      1  0.5027520000000  0.4605160000000  0.4016320000000 1.0
C      1  0.4503210000000  0.4983920000000  0.4061060000000 1.0
C      1  0.4595270000000  0.4382180000000  0.5649300000000 1.0
C      1  0.4198770000000  0.4800830000000  0.4458400000000 1.0
C      1  0.4465750000000  0.4783170000000  0.4753840000000 1.0
C      1  0.5262280000000  0.5614810000000  0.4690520000000 1.0
C      1  0.4548340000000  0.4300760000000  0.4480750000000 1.0
C      1  0.4605470000000  0.5348520000000  0.4505250000000 1.0
C      1  0.4970540000000  0.5661510000000  0.4215910000000 1.0
C      1  0.4464220000000  0.4820110000000  0.5368550000000 1.0
C      1  0.4752190000000  0.5349630000000  0.5958380000000 1.0
C      1  0.5715100000000  0.4825440000000  0.5647210000000 1.0
C      1  0.4641520000000  0.5120110000000  0.5035510000000 1.0
C      1  0.5014190000000  0.6069640000000  0.4926410000000 1.0
C      1  0.5378370000000  0.5839200000000  0.5128500000000 1.0
C      1  0.4300730000000  0.5601740000000  0.5255630000000 1.0
C      1  0.5505750000000  0.5884440000000  0.4523880000000 1.0
C      1  0.4376930000000  0.4633440000000  0.5708000000000 1.0
C      1  0.5295830000000  0.3976370000000  0.5209210000000 1.0
C      1  0.4780540000000  0.5380070000000  0.4147750000000 1.0
C      1  0.4592620000000  0.6041160000000  0.4923670000000 1.0
C      1  0.4941440000000  0.5112060000000  0.4032000000000 1.0
C      1  0.4317730000000  0.5108090000000  0.4932270000000 1.0
C      1  0.4714570000000  0.4572910000000  0.5098930000000 1.0
C      1  0.4934350000000  0.4098630000000  0.5414870000000 1.0
C      1  0.5053900000000  0.4849110000000  0.6004230000000 1.0
C      1  0.4440890000000  0.5823850000000  0.5092160000000 1.0
C      1  0.5248790000000  0.5444850000000  0.5254740000000 1.0
C      1  0.5654050000000  0.5731720000000  0.5217020000000 1.0
C      1  0.4907740000000  0.5115740000000  0.5552920000000 1.0
C      1  0.5183280000000  0.5011760000000  0.4694690000000 1.0
C      1  0.4314480000000  0.5452520000000  0.5771280000000 1.0
C      1  0.5195770000000  0.4054970000000  0.5611930000000 1.0
C      1  0.5780910000000  0.5187760000000  0.4447080000000 1.0
C      1  0.4058640000000  0.4643500000000  0.5028720000000 1.0
C      1  0.5406020000000  0.5216160000000  0.4851480000000 1.0
C      1  0.4044830000000  0.5407090000000  0.4627430000000 1.0
C      1  0.4676350000000  0.4767280000000  0.5617630000000 1.0
C      1  0.4744650000000  0.5637950000000  0.4855500000000 1.0
C      1  0.5038440000000  0.5210280000000  0.5009900000000 1.0
C      1  0.5629460000000  0.5396360000000  0.4668830000000 1.0
C      1  0.4692980000000  0.5761630000000  0.5630400000000 1.0
C      1  0.4051380000000  0.5314030000000  0.4884710000000 1.0
C      1  0.4887860000000  0.4300550000000  0.5677930000000 1.0
C      1  0.5423820000000  0.4792270000000  0.5112900000000 1.0
C      1  0.4145480000000  0.4856540000000  0.4778360000000 1.0
C      1  0.4453110000000  0.5592430000000  0.5522880000000 1.0
C      1  0.5129970000000  0.5963170000000  0.5150050000000 1.0
C      1  0.4417170000000  0.5443740000000  0.4977840000000 1.0
C      1  0.4521450000000  0.4697410000000  0.4445890000000 1.0
C      1  0.4223410000000  0.5459310000000  0.4414830000000 1.0
C      1  0.5453760000000  0.4847810000000  0.4067500000000 1.0
C      1  0.5020200000000  0.4297050000000  0.5164290000000 1.0
C      1  0.5290310000000  0.4585010000000  0.4928600000000 1.0
C      1  0.4443380000000  0.5209730000000  0.5296950000000 1.0
C      1  0.4728610000000  0.5439270000000  0.5114190000000 1.0
C      1  0.4126630000000  0.5312210000000  0.5216580000000 1.0
C      1  0.4912730000000  0.5846800000000  0.5384640000000 1.0
C      1  0.5887670000000  0.5304470000000  0.4870230000000 1.0
C      1  0.5151300000000  0.4238460000000  0.5886150000000 1.0
C      1  0.5961500000000  0.5131240000000  0.5332910000000 1.0
C      1  0.4608660000000  0.5052040000000  0.4605890000000 1.0
C      1  0.5003380000000  0.4920110000000  0.4278780000000 1.0
C      1  0.5179900000000  0.5827130000000  0.5577290000000 1.0
C      1  0.5682320000000  0.4561350000000  0.4466420000000 1.0
C      1  0.5511970000000  0.4473030000000  0.4243220000000 1.0
C      1  0.5428120000000  0.5506730000000  0.4419940000000 1.0
C      1  0.5664030000000  0.5624160000000  0.5509570000000 1.0
C      1  0.5646070000000  0.5097650000000  0.5455370000000 1.0
C      1  0.4958190000000  0.4141860000000  0.4903000000000 1.0
C      1  0.5324280000000  0.4748090000000  0.5613890000000 1.0
C      1  0.5142820000000  0.5145670000000  0.5309080000000 1.0
C      1  0.4467040000000  0.5356900000000  0.4200610000000 1.0
C      1  0.5783740000000  0.4431430000000  0.4748900000000 1.0
C      1  0.4501460000000  0.4097350000000  0.4721890000000 1.0
C      1  0.5083010000000  0.3829810000000  0.5159110000000 1.0
C      1  0.5565270000000  0.4093390000000  0.5146400000000 1.0
C      1  0.5074070000000  0.5265440000000  0.5884260000000 1.0
C      1  0.5289710000000  0.4275790000000  0.5370510000000 1.0
C      1  0.4980460000000  0.4871490000000  0.3818130000000 1.0
C      1  0.4761790000000  0.5714330000000  0.4464830000000 1.0
C      1  0.4796340000000  0.4679070000000  0.4332820000000 1.0
C      1  0.4844630000000  0.4678120000000  0.4820480000000 1.0
C      1  0.5560580000000  0.5332910000000  0.5651540000000 1.0
C      1  0.5291800000000  0.4699390000000  0.4607020000000 1.0
C      1  0.4480870000000  0.5557920000000  0.4702370000000 1.0
C      1  0.4821680000000  0.4475150000000  0.4583370000000 1.0
C      1  0.4671400000000  0.5996160000000  0.5227730000000 1.0
C      1  0.5610770000000  0.4067610000000  0.5482480000000 1.0
C      1  0.4783790000000  0.3945930000000  0.5150310000000 1.0
C      1  0.4458030000000  0.5017640000000  0.5646130000000 1.0
C      1  0.5869230000000  0.4451870000000  0.5245100000000 1.0
C      1  0.5708900000000  0.4857400000000  0.5003030000000 1.0
C      1  0.4325900000000  0.4479030000000  0.5107190000000 1.0
C      1  0.5366000000000  0.5169910000000  0.5869910000000 1.0
C      1  0.5088590000000  0.5176050000000  0.4437280000000 1.0
C      1  0.5402280000000  0.5532180000000  0.4977250000000 1.0
C      1  0.5674950000000  0.5732080000000  0.4639470000000 1.0
C      1  0.5442040000000  0.5557860000000  0.5877410000000 1.0
C      1  0.5019330000000  0.5461240000000  0.4840650000000 1.0
C      1  0.5280710000000  0.4364510000000  0.4548060000000 1.0
C      1  0.5019090000000  0.4327560000000  0.4135080000000 1.0
C      1  0.4954800000000  0.4795850000000  0.5447020000000 1.0
C      1  0.5012250000000  0.5434950000000  0.5612960000000 1.0
C      1  0.4176180000000  0.5092990000000  0.5471930000000 1.0
C      1  0.4444560000000  0.5699590000000  0.4401030000000 1.0
C      1  0.4143230000000  0.4779320000000  0.5602190000000 1.0
C      1  0.5290910000000  0.4890910000000  0.5873410000000 1.0
C      1  0.6025560000000  0.5099730000000  0.5067970000000 1.0
C      1  0.5573490000000  0.4556490000000  0.5662660000000 1.0
C      1  0.4479100000000  0.5236860000000  0.5849940000000 1.0
C      1  0.5609830000000  0.4392670000000  0.5400010000000 1.0
C      1  0.4730670000000  0.4773060000000  0.4026740000000 1.0
C      1  0.5329180000000  0.5279060000000  0.4266080000000 1.0
C      1  0.5217390000000  0.5764960000000  0.4388800000000 1.0
C      1  0.4646460000000  0.4196610000000  0.4995920000000 1.0
C      1  0.5025150000000  0.4270260000000  0.4655070000000 1.0
C      1  0.5548850000000  0.5070210000000  0.4261230000000 1.0
C      1  0.5359210000000  0.4938170000000  0.5366400000000 1.0
C      1  0.4286450000000  0.4479590000000  0.4375910000000 1.0
C      1  0.5044250000000  0.4628690000000  0.5161130000000 1.0
C      1  0.4866990000000  0.4988280000000  0.4817700000000 1.0
C      1  0.4270540000000  0.4872140000000  0.5156190000000 1.0
C      1  0.4940250000000  0.5522390000000  0.5298540000000 1.0
C      1  0.4794270000000  0.5650520000000  0.5868930000000 1.0
C      1  0.4809900000000  0.5927530000000  0.4719340000000 1.0
C      1  0.5533000000000  0.4345460000000  0.4965430000000 1.0
C      1  0.5362890000000  0.5625950000000  0.5465850000000 1.0
C      1  0.4829460000000  0.5032220000000  0.5873120000000 1.0
C      1  0.5582540000000  0.4853800000000  0.4521390000000 1.0
C      1  0.5109990000000  0.5396530000000  0.4059370000000 1.0
C      1  0.3987440000000  0.4773330000000  0.5326800000000 1.0
C      1  0.5265490000000  0.4278960000000  0.4247430000000 1.0
C      1  0.4508700000000  0.4470060000000  0.4847990000000 1.0
C      1  0.5891220000000  0.4608060000000  0.4982150000000 1.0
C      1  0.5455050000000  0.4245550000000  0.5733410000000 1.0
C      1  0.5183600000000  0.5644580000000  0.5820460000000 1.0
C      1  0.4917170000000  0.5417960000000  0.4527820000000 1.0
C      1  0.4388770000000  0.5057000000000  0.4340530000000 1.0
C      1  0.5595880000000  0.5149300000000  0.5122930000000 1.0
C      1  0.4525750000000  0.4498050000000  0.5363580000000 1.0
C      1  0.5241300000000  0.4677270000000  0.4270960000000 1.0
C      1  0.5523420000000  0.4243640000000  0.4660140000000 1.0
C      1  0.4788020000000  0.4250340000000  0.4254440000000 1.0
C      1  0.6107010000000  0.4855180000000  0.4976310000000 1.0
C      1  0.4649500000000  0.5327530000000  0.5488800000000 1.0
C      1  0.5114660000000  0.4512880000000  0.5540220000000 1.0
C      1  0.5737890000000  0.5521840000000  0.5031000000000 1.0
C      1  0.5744420000000  0.5022360000000  0.4745500000000 1.0
END
