TITL C-2848497-6229-311 0.000763407285199453 125000 -824.77596763322 0 0 152 (C1) n - 1
REM
REM in /home/bkarasulu/work/CARBON/AIRSS/Generating-Clusters/AIREBO/with-SteepDescent/Only-C1/SD-CG-opt/Try1-1.4A-POS3A/HFTN-CG
REM
REM
REM
REM
REM
REM ./C.cell (11c1c37f851c82e70ff6c80c92926a4b)
REM
REM compiler GCC version 9.2.1 20190827 (Red Hat 9.2.1-1)
REM options -cpp -mtune=generic -march=x86-64 -g -O0 -fpre-include=/usr/include/finclude/math-vector-fortran.h
REM seed -1589331426 887945837 -931163023 -747224340 578445679 1378386000 -2130309326 -1633860651 -96194974 707698850 1386755774 1657914851 394817917 1882697130 411647262 1781579818 806433752 931398137 1461058149 579103404 1033754911 806769791 -582784906 27426838 710342920 -1403789270 1992669457 -1349991918 -38059693 -445461462 2066373215 1141495289 490060149
REM
CELL 1.54180   50.00000   50.00000   50.00000   90.00000   90.00000   90.00000
LATT -1
SFAC C  
C      1  0.4962580000000  0.5452320000000  0.4618020000000 1.0
C      1  0.5753830000000  0.5096660000000  0.4856330000000 1.0
C      1  0.4499280000000  0.4967760000000  0.5615110000000 1.0
C      1  0.4990060000000  0.5235540000000  0.5995560000000 1.0
C      1  0.4843350000000  0.4538090000000  0.5497170000000 1.0
C      1  0.5684350000000  0.4307430000000  0.4791030000000 1.0
C      1  0.4543310000000  0.5302020000000  0.4814970000000 1.0
C      1  0.5123720000000  0.5467150000000  0.5200940000000 1.0
C      1  0.5017970000000  0.6068510000000  0.4736320000000 1.0
C      1  0.4983280000000  0.5750410000000  0.5572090000000 1.0
C      1  0.4795840000000  0.3955550000000  0.5107060000000 1.0
C      1  0.4792160000000  0.4236210000000  0.4927790000000 1.0
C      1  0.4494370000000  0.5495770000000  0.5019690000000 1.0
C      1  0.4705130000000  0.4826260000000  0.5809110000000 1.0
C      1  0.5260910000000  0.5108970000000  0.4479090000000 1.0
C      1  0.5551060000000  0.5727670000000  0.5547230000000 1.0
C      1  0.5336940000000  0.4440550000000  0.5105220000000 1.0
C      1  0.4923130000000  0.5832880000000  0.4506120000000 1.0
C      1  0.5101840000000  0.4966090000000  0.6143910000000 1.0
C      1  0.5309620000000  0.5337620000000  0.5425350000000 1.0
C      1  0.4799870000000  0.4751960000000  0.4420030000000 1.0
C      1  0.4072710000000  0.4764580000000  0.4820310000000 1.0
C      1  0.5639240000000  0.4792480000000  0.4753930000000 1.0
C      1  0.4804830000000  0.5708340000000  0.5154140000000 1.0
C      1  0.5199220000000  0.5793360000000  0.4792230000000 1.0
C      1  0.5385860000000  0.5914210000000  0.5432000000000 1.0
C      1  0.4970980000000  0.4860960000000  0.5512840000000 1.0
C      1  0.4742470000000  0.4329260000000  0.4644190000000 1.0
C      1  0.3712010000000  0.4475380000000  0.5269900000000 1.0
C      1  0.5934000000000  0.5324400000000  0.5521540000000 1.0
C      1  0.5572290000000  0.4899220000000  0.5926250000000 1.0
C      1  0.4883310000000  0.4589180000000  0.4772340000000 1.0
C      1  0.5843610000000  0.4420740000000  0.5069880000000 1.0
C      1  0.5504270000000  0.5018990000000  0.5552200000000 1.0
C      1  0.4354790000000  0.4523350000000  0.5829910000000 1.0
C      1  0.4870250000000  0.5710550000000  0.4819090000000 1.0
C      1  0.4828120000000  0.5175300000000  0.4687610000000 1.0
C      1  0.4580830000000  0.5430890000000  0.4505190000000 1.0
C      1  0.5711380000000  0.4726120000000  0.5059730000000 1.0
C      1  0.6065060000000  0.4863240000000  0.4939140000000 1.0
C      1  0.4108880000000  0.5032570000000  0.5644860000000 1.0
C      1  0.4555310000000  0.5819110000000  0.4749330000000 1.0
C      1  0.4467370000000  0.5009550000000  0.4723540000000 1.0
C      1  0.4334540000000  0.4567340000000  0.4874520000000 1.0
C      1  0.4215470000000  0.4637890000000  0.5169910000000 1.0
C      1  0.5180270000000  0.5465590000000  0.4108160000000 1.0
C      1  0.5817990000000  0.5629390000000  0.5418310000000 1.0
C      1  0.4382630000000  0.4745690000000  0.4390220000000 1.0
C      1  0.5114890000000  0.4225890000000  0.4821250000000 1.0
C      1  0.4417120000000  0.5949000000000  0.4978460000000 1.0
C      1  0.5280250000000  0.5408850000000  0.4580600000000 1.0
C      1  0.5583670000000  0.5523100000000  0.5205420000000 1.0
C      1  0.5215570000000  0.4690020000000  0.4428710000000 1.0
C      1  0.4158490000000  0.4499450000000  0.4439810000000 1.0
C      1  0.5370080000000  0.4324580000000  0.5573080000000 1.0
C      1  0.5008250000000  0.4841820000000  0.5849350000000 1.0
C      1  0.5247720000000  0.4883810000000  0.4858190000000 1.0
C      1  0.5304980000000  0.5617130000000  0.4336050000000 1.0
C      1  0.5482250000000  0.5183130000000  0.5849230000000 1.0
C      1  0.4193440000000  0.5156100000000  0.5407050000000 1.0
C      1  0.4673330000000  0.4416680000000  0.4214050000000 1.0
C      1  0.4401460000000  0.5640080000000  0.4612870000000 1.0
C      1  0.5355330000000  0.5252070000000  0.4003650000000 1.0
C      1  0.4833650000000  0.5021390000000  0.4990900000000 1.0
C      1  0.4661540000000  0.4297660000000  0.5235960000000 1.0
C      1  0.5300260000000  0.4578650000000  0.4057550000000 1.0
C      1  0.5675970000000  0.5797580000000  0.4628170000000 1.0
C      1  0.5113590000000  0.5801570000000  0.5262060000000 1.0
C      1  0.5191720000000  0.4116740000000  0.4513630000000 1.0
C      1  0.5034410000000  0.4918350000000  0.4603810000000 1.0
C      1  0.5651770000000  0.4871070000000  0.4207430000000 1.0
C      1  0.5837450000000  0.5071820000000  0.5595000000000 1.0
C      1  0.4141110000000  0.5557940000000  0.4617790000000 1.0
C      1  0.5027560000000  0.5168920000000  0.5200390000000 1.0
C      1  0.4334010000000  0.4228180000000  0.4854110000000 1.0
C      1  0.5299720000000  0.5428420000000  0.4919480000000 1.0
C      1  0.4083790000000  0.5248550000000  0.4709930000000 1.0
C      1  0.5516540000000  0.4516370000000  0.4642490000000 1.0
C      1  0.4149360000000  0.5612720000000  0.5446270000000 1.0
C      1  0.4717310000000  0.5598370000000  0.5579200000000 1.0
C      1  0.4968620000000  0.4516540000000  0.4272000000000 1.0
C      1  0.4576220000000  0.4693270000000  0.4669400000000 1.0
C      1  0.4944630000000  0.4704490000000  0.5047820000000 1.0
C      1  0.5835970000000  0.5000150000000  0.5161900000000 1.0
C      1  0.5783530000000  0.5548950000000  0.4716320000000 1.0
C      1  0.4573750000000  0.4286280000000  0.4439500000000 1.0
C      1  0.6106030000000  0.4598100000000  0.4997240000000 1.0
C      1  0.4227200000000  0.5031540000000  0.4489350000000 1.0
C      1  0.5992940000000  0.4973580000000  0.4648240000000 1.0
C      1  0.5634180000000  0.5310240000000  0.4075310000000 1.0
C      1  0.3961500000000  0.4542930000000  0.5225960000000 1.0
C      1  0.5891370000000  0.5396370000000  0.4935890000000 1.0
C      1  0.4530610000000  0.4644800000000  0.4129080000000 1.0
C      1  0.5575620000000  0.5189860000000  0.5272660000000 1.0
C      1  0.4620360000000  0.5460960000000  0.5298210000000 1.0
C      1  0.5491430000000  0.4509350000000  0.4330070000000 1.0
C      1  0.4373800000000  0.5219040000000  0.4244950000000 1.0
C      1  0.5216530000000  0.3858910000000  0.4470800000000 1.0
C      1  0.4707540000000  0.4807360000000  0.3967500000000 1.0
C      1  0.4665190000000  0.5125430000000  0.4393080000000 1.0
C      1  0.4337960000000  0.5074950000000  0.5894560000000 1.0
C      1  0.4723040000000  0.4926030000000  0.5289310000000 1.0
C      1  0.5378800000000  0.5730050000000  0.5055030000000 1.0
C      1  0.5609210000000  0.5347430000000  0.4581640000000 1.0
C      1  0.5047130000000  0.4800990000000  0.4002880000000 1.0
C      1  0.5370060000000  0.4104550000000  0.5316340000000 1.0
C      1  0.5439180000000  0.5147260000000  0.4833980000000 1.0
C      1  0.4912340000000  0.5560450000000  0.4299340000000 1.0
C      1  0.5176230000000  0.4907170000000  0.5158660000000 1.0
C      1  0.5728870000000  0.5241450000000  0.4332690000000 1.0
C      1  0.4613520000000  0.5453210000000  0.4177170000000 1.0
C      1  0.5013100000000  0.5198350000000  0.5517930000000 1.0
C      1  0.5104720000000  0.4116240000000  0.5612730000000 1.0
C      1  0.5309980000000  0.4756430000000  0.5975650000000 1.0
C      1  0.5033560000000  0.6051920000000  0.5046040000000 1.0
C      1  0.5300270000000  0.4804210000000  0.5449110000000 1.0
C      1  0.4260930000000  0.5686380000000  0.4984050000000 1.0
C      1  0.5219660000000  0.4325350000000  0.4272920000000 1.0
C      1  0.5484190000000  0.4879800000000  0.4479830000000 1.0
C      1  0.4610380000000  0.5966350000000  0.5190190000000 1.0
C      1  0.4866170000000  0.4198880000000  0.5490590000000 1.0
C      1  0.4016720000000  0.5009770000000  0.4918610000000 1.0
C      1  0.5398240000000  0.5790210000000  0.4556200000000 1.0
C      1  0.5410760000000  0.5506970000000  0.5645720000000 1.0
C      1  0.5351450000000  0.4914990000000  0.4053580000000 1.0
C      1  0.4016270000000  0.4746360000000  0.4538490000000 1.0
C      1  0.4100270000000  0.5432890000000  0.4995510000000 1.0
C      1  0.4519680000000  0.5173910000000  0.5364420000000 1.0
C      1  0.4393440000000  0.5651610000000  0.5566620000000 1.0
C      1  0.4470660000000  0.4068910000000  0.5072000000000 1.0
C      1  0.4854210000000  0.4989070000000  0.4197900000000 1.0
C      1  0.5507230000000  0.4624720000000  0.5265720000000 1.0
C      1  0.5287370000000  0.4596970000000  0.5703350000000 1.0
C      1  0.4079190000000  0.5384100000000  0.5280680000000 1.0
C      1  0.4826180000000  0.5336470000000  0.5711280000000 1.0
C      1  0.5095340000000  0.4125750000000  0.5146620000000 1.0
C      1  0.5648810000000  0.4519620000000  0.5556480000000 1.0
C      1  0.5757090000000  0.4769720000000  0.5730310000000 1.0
C      1  0.5122680000000  0.5720130000000  0.5815730000000 1.0
C      1  0.4358010000000  0.4793120000000  0.5382600000000 1.0
C      1  0.4305260000000  0.4275790000000  0.4543130000000 1.0
C      1  0.4669760000000  0.5142090000000  0.5929980000000 1.0
C      1  0.5894510000000  0.4995640000000  0.4382580000000 1.0
C      1  0.5029680000000  0.4450860000000  0.5226290000000 1.0
C      1  0.5243110000000  0.5416780000000  0.5911950000000 1.0
C      1  0.5969690000000  0.5422170000000  0.5197860000000 1.0
C      1  0.4214840000000  0.4768660000000  0.5813060000000 1.0
C      1  0.5219660000000  0.4549060000000  0.4805020000000 1.0
C      1  0.4621190000000  0.4535830000000  0.5754990000000 1.0
C      1  0.4599770000000  0.4609650000000  0.5271000000000 1.0
C      1  0.5534950000000  0.4172710000000  0.5036970000000 1.0
C      1  0.5680750000000  0.4270700000000  0.5328100000000 1.0
END
