TITL C-2847951-7423-120 1.89521058438768e-05 125000 -849.67743188585 0 0 157 (C1) n - 1
REM
REM in /home/bkarasulu/work/CARBON/AIRSS/Generating-Clusters/AIREBO/with-SteepDescent/Only-C1/SD-CG-opt/Try1-1.4A-POS3A/HFTN-CG
REM
REM
REM
REM
REM
REM ./C.cell (11c1c37f851c82e70ff6c80c92926a4b)
REM
REM compiler GCC version 9.2.1 20190827 (Red Hat 9.2.1-1)
REM options -cpp -mtune=generic -march=x86-64 -g -O0 -fpre-include=/usr/include/finclude/math-vector-fortran.h
REM seed 2103115152 1765234763 -972887989 -1742019137 1326497661 1431163319 1575977275 -1833887214 -1592678735 -365729090 -1256833674 -1994344450 1977381726 -425555889 -2060902841 1257664717 -1813519924 -1406944253 1489458001 438043280 -1401898850 1885996820 1840209274 -1695627384 396049315 -1291154790 1999065328 435823508 -1375044278 -1430363460 2030471813 -670429006 943813234
REM
CELL 1.54180   50.00000   50.00000   50.00000   90.00000   90.00000   90.00000
LATT -1
SFAC C  
C      1  0.4568680000000  0.4388390000000  0.4630200000000 1.0
C      1  0.5059170000000  0.5438330000000  0.5765520000000 1.0
C      1  0.4585310000000  0.5215510000000  0.5180960000000 1.0
C      1  0.4542670000000  0.4726690000000  0.4635550000000 1.0
C      1  0.5691710000000  0.5598460000000  0.4433510000000 1.0
C      1  0.5195980000000  0.5520500000000  0.4192290000000 1.0
C      1  0.4106740000000  0.5067910000000  0.4946600000000 1.0
C      1  0.4797930000000  0.4808960000000  0.4782090000000 1.0
C      1  0.4338420000000  0.5698030000000  0.4387040000000 1.0
C      1  0.5284140000000  0.5743130000000  0.5574510000000 1.0
C      1  0.4948720000000  0.5409610000000  0.4671120000000 1.0
C      1  0.6081500000000  0.4929620000000  0.4395920000000 1.0
C      1  0.5402930000000  0.4601980000000  0.5972160000000 1.0
C      1  0.5301680000000  0.4461320000000  0.5025940000000 1.0
C      1  0.4085130000000  0.4834830000000  0.5397990000000 1.0
C      1  0.6021300000000  0.4631870000000  0.4850370000000 1.0
C      1  0.4373870000000  0.5100620000000  0.4298770000000 1.0
C      1  0.4181620000000  0.5336170000000  0.5615200000000 1.0
C      1  0.5753770000000  0.5712330000000  0.4990060000000 1.0
C      1  0.5450830000000  0.4534160000000  0.4459670000000 1.0
C      1  0.4409300000000  0.4582820000000  0.4984100000000 1.0
C      1  0.3885270000000  0.5342080000000  0.5493520000000 1.0
C      1  0.5923340000000  0.5140400000000  0.4838930000000 1.0
C      1  0.4832680000000  0.5066780000000  0.5001250000000 1.0
C      1  0.5844800000000  0.4341250000000  0.4843730000000 1.0
C      1  0.5030450000000  0.4650980000000  0.5582840000000 1.0
C      1  0.4292950000000  0.5373300000000  0.4476950000000 1.0
C      1  0.5002030000000  0.4073220000000  0.5105920000000 1.0
C      1  0.4688330000000  0.5266510000000  0.6004310000000 1.0
C      1  0.5129100000000  0.5326450000000  0.4920900000000 1.0
C      1  0.4238740000000  0.5796410000000  0.5109140000000 1.0
C      1  0.4247970000000  0.4540060000000  0.5463970000000 1.0
C      1  0.5384410000000  0.5298160000000  0.4063650000000 1.0
C      1  0.4768800000000  0.5796160000000  0.5040620000000 1.0
C      1  0.4535990000000  0.4561790000000  0.4105280000000 1.0
C      1  0.4530500000000  0.4785830000000  0.5856260000000 1.0
C      1  0.5084730000000  0.4281680000000  0.4591920000000 1.0
C      1  0.5423350000000  0.5659450000000  0.5068620000000 1.0
C      1  0.5328660000000  0.4588460000000  0.5539010000000 1.0
C      1  0.5066120000000  0.5143450000000  0.4493790000000 1.0
C      1  0.4915360000000  0.4206450000000  0.5389460000000 1.0
C      1  0.4938350000000  0.5604890000000  0.4161190000000 1.0
C      1  0.5547240000000  0.5449510000000  0.5900990000000 1.0
C      1  0.5813570000000  0.4639350000000  0.4341720000000 1.0
C      1  0.5215870000000  0.4588500000000  0.4658400000000 1.0
C      1  0.4562930000000  0.5057550000000  0.5542170000000 1.0
C      1  0.5261200000000  0.5917690000000  0.4939330000000 1.0
C      1  0.5226090000000  0.4276680000000  0.5627870000000 1.0
C      1  0.5310300000000  0.5826340000000  0.4640620000000 1.0
C      1  0.4875170000000  0.5117870000000  0.3966260000000 1.0
C      1  0.4599230000000  0.5109810000000  0.4142150000000 1.0
C      1  0.5734670000000  0.4285840000000  0.5338040000000 1.0
C      1  0.5388880000000  0.5076780000000  0.4459140000000 1.0
C      1  0.3960030000000  0.4847210000000  0.5108420000000 1.0
C      1  0.4418240000000  0.6065700000000  0.5339250000000 1.0
C      1  0.4865180000000  0.4499680000000  0.5376330000000 1.0
C      1  0.4402880000000  0.5422070000000  0.4795420000000 1.0
C      1  0.5582890000000  0.4848120000000  0.5079140000000 1.0
C      1  0.5625370000000  0.4317340000000  0.4585110000000 1.0
C      1  0.4601580000000  0.5538870000000  0.5819450000000 1.0
C      1  0.4692960000000  0.5603630000000  0.4783870000000 1.0
C      1  0.5353070000000  0.5018410000000  0.5262960000000 1.0
C      1  0.6146470000000  0.4751440000000  0.4562470000000 1.0
C      1  0.5429560000000  0.4412010000000  0.5314780000000 1.0
C      1  0.5312350000000  0.5326120000000  0.5568230000000 1.0
C      1  0.4412910000000  0.4920620000000  0.4960350000000 1.0
C      1  0.5199540000000  0.4435490000000  0.5884840000000 1.0
C      1  0.5531750000000  0.5873780000000  0.4426440000000 1.0
C      1  0.5401810000000  0.4899930000000  0.5838580000000 1.0
C      1  0.5838380000000  0.5286150000000  0.5322760000000 1.0
C      1  0.4343170000000  0.4820770000000  0.5604920000000 1.0
C      1  0.5834950000000  0.5593430000000  0.4691330000000 1.0
C      1  0.4837720000000  0.5251000000000  0.5595380000000 1.0
C      1  0.4507750000000  0.5969750000000  0.5031210000000 1.0
C      1  0.5802690000000  0.4817700000000  0.5454600000000 1.0
C      1  0.5004130000000  0.5755250000000  0.5527790000000 1.0
C      1  0.4571870000000  0.5469780000000  0.4306780000000 1.0
C      1  0.4593930000000  0.5814420000000  0.4536620000000 1.0
C      1  0.5246590000000  0.4019610000000  0.4550950000000 1.0
C      1  0.4584720000000  0.4882790000000  0.5251320000000 1.0
C      1  0.5023090000000  0.5225680000000  0.6024850000000 1.0
C      1  0.4223200000000  0.4634830000000  0.4706990000000 1.0
C      1  0.5016180000000  0.5058300000000  0.5287780000000 1.0
C      1  0.4851400000000  0.5706860000000  0.5783720000000 1.0
C      1  0.5297040000000  0.4787440000000  0.4038000000000 1.0
C      1  0.5859480000000  0.5017320000000  0.5114760000000 1.0
C      1  0.4309470000000  0.5282920000000  0.5091470000000 1.0
C      1  0.4751430000000  0.4224340000000  0.4388070000000 1.0
C      1  0.5009030000000  0.5991990000000  0.5003080000000 1.0
C      1  0.5049090000000  0.4816250000000  0.4269050000000 1.0
C      1  0.5019730000000  0.4321150000000  0.4897180000000 1.0
C      1  0.4943440000000  0.4942540000000  0.5583030000000 1.0
C      1  0.4573480000000  0.5134300000000  0.4791550000000 1.0
C      1  0.4466320000000  0.4383990000000  0.4305890000000 1.0
C      1  0.5928760000000  0.4398260000000  0.5154870000000 1.0
C      1  0.5136870000000  0.4758110000000  0.5045840000000 1.0
C      1  0.4223470000000  0.4426550000000  0.5184940000000 1.0
C      1  0.5339160000000  0.5615550000000  0.5842180000000 1.0
C      1  0.4998010000000  0.4836490000000  0.3880730000000 1.0
C      1  0.5498180000000  0.4662000000000  0.4834260000000 1.0
C      1  0.4296300000000  0.5798550000000  0.5413700000000 1.0
C      1  0.5544840000000  0.5173330000000  0.5736880000000 1.0
C      1  0.4810260000000  0.4679260000000  0.5096290000000 1.0
C      1  0.4695370000000  0.4067480000000  0.5591060000000 1.0
C      1  0.4737280000000  0.3892000000000  0.5038870000000 1.0
C      1  0.5007120000000  0.5379700000000  0.5198630000000 1.0
C      1  0.5129840000000  0.5128060000000  0.4160110000000 1.0
C      1  0.4514900000000  0.6055800000000  0.4730430000000 1.0
C      1  0.5775680000000  0.5050870000000  0.4309850000000 1.0
C      1  0.5264190000000  0.5056950000000  0.4945380000000 1.0
C      1  0.5658180000000  0.5317360000000  0.4239270000000 1.0
C      1  0.4516670000000  0.4212990000000  0.5372340000000 1.0
C      1  0.4252280000000  0.4310110000000  0.4737200000000 1.0
C      1  0.3947110000000  0.4717110000000  0.4842080000000 1.0
C      1  0.5784920000000  0.5102470000000  0.5562980000000 1.0
C      1  0.5763990000000  0.4995900000000  0.4628550000000 1.0
C      1  0.4691870000000  0.4397320000000  0.4947130000000 1.0
C      1  0.4003620000000  0.5374160000000  0.4853130000000 1.0
C      1  0.5491810000000  0.5751280000000  0.5388840000000 1.0
C      1  0.5527380000000  0.4236910000000  0.4901430000000 1.0
C      1  0.4444850000000  0.5238660000000  0.5775500000000 1.0
C      1  0.4609970000000  0.4474920000000  0.5895490000000 1.0
C      1  0.5528840000000  0.4817630000000  0.4288640000000 1.0
C      1  0.4107920000000  0.5160850000000  0.5335390000000 1.0
C      1  0.5552990000000  0.5270060000000  0.5151440000000 1.0
C      1  0.5495440000000  0.4095530000000  0.5208990000000 1.0
C      1  0.5975020000000  0.4712300000000  0.5181010000000 1.0
C      1  0.4925560000000  0.4601440000000  0.5891940000000 1.0
C      1  0.4765830000000  0.4967910000000  0.5871970000000 1.0
C      1  0.5026550000000  0.4814710000000  0.4582190000000 1.0
C      1  0.5008710000000  0.4400910000000  0.4282710000000 1.0
C      1  0.4842710000000  0.4615660000000  0.4088020000000 1.0
C      1  0.4398270000000  0.4318120000000  0.5673320000000 1.0
C      1  0.5497270000000  0.4034500000000  0.4521200000000 1.0
C      1  0.4321720000000  0.4856430000000  0.4412040000000 1.0
C      1  0.5763890000000  0.4685300000000  0.4657200000000 1.0
C      1  0.5221710000000  0.4075600000000  0.5366420000000 1.0
C      1  0.4677570000000  0.5289270000000  0.4537060000000 1.0
C      1  0.4408710000000  0.5556420000000  0.5539990000000 1.0
C      1  0.4633780000000  0.4538300000000  0.5565250000000 1.0
C      1  0.4609290000000  0.4142230000000  0.5125580000000 1.0
C      1  0.5307480000000  0.5415510000000  0.5275470000000 1.0
C      1  0.4855900000000  0.5635650000000  0.5283400000000 1.0
C      1  0.4134580000000  0.4246910000000  0.4979740000000 1.0
C      1  0.4156230000000  0.5614640000000  0.4928390000000 1.0
C      1  0.4660620000000  0.5415800000000  0.5393990000000 1.0
C      1  0.4725780000000  0.5407800000000  0.4031520000000 1.0
C      1  0.5062180000000  0.5678990000000  0.4533840000000 1.0
C      1  0.4845610000000  0.5796600000000  0.4362600000000 1.0
C      1  0.5404680000000  0.5416170000000  0.4443590000000 1.0
C      1  0.5089450000000  0.4900200000000  0.5952300000000 1.0
C      1  0.5342230000000  0.5511570000000  0.4765190000000 1.0
C      1  0.5481270000000  0.4846680000000  0.5517900000000 1.0
C      1  0.5291470000000  0.4503330000000  0.4192940000000 1.0
C      1  0.5759450000000  0.5382610000000  0.4940430000000 1.0
C      1  0.5744810000000  0.5594030000000  0.5296500000000 1.0
C      1  0.5480250000000  0.5052270000000  0.4751650000000 1.0
END
