TITL C-2848504-8560-300 0.00293701364976419 125000 -455.958247899661 0 0 84 (C1) n - 1
REM
REM in /home/bkarasulu/work/CARBON/AIRSS/Generating-Clusters/AIREBO/with-SteepDescent/Only-C1/SD-CG-opt/Try1-1.4A-POS3A/HFTN-CG
REM
REM
REM
REM
REM
REM ./C.cell (11c1c37f851c82e70ff6c80c92926a4b)
REM
REM compiler GCC version 9.2.1 20190827 (Red Hat 9.2.1-1)
REM options -cpp -mtune=generic -march=x86-64 -g -O0 -fpre-include=/usr/include/finclude/math-vector-fortran.h
REM seed 831393293 -896966701 1363545627 -644268058 650227311 -1025375275 766227983 1588079678 2024355370 447221976 -1442486075 -1098949112 -1034963843 389631731 1169948296 443695998 -1158999035 -244236404 967960553 1725448631 -1327619855 1413922660 940174768 -378408742 1013647286 -850730546 -857812371 -2144768576 1514830799 -2072071874 2083280596 -1752692027 1615528754
REM
CELL 1.54180   50.00000   50.00000   50.00000   90.00000   90.00000   90.00000
LATT -1
SFAC C  
C      1  0.5114750000000  0.4345630000000  0.5573990000000 1.0
C      1  0.4718820000000  0.5851330000000  0.4628110000000 1.0
C      1  0.4623490000000  0.4426220000000  0.5466560000000 1.0
C      1  0.4643110000000  0.5118100000000  0.4679850000000 1.0
C      1  0.5607750000000  0.5209170000000  0.4755680000000 1.0
C      1  0.4935530000000  0.5388730000000  0.4961090000000 1.0
C      1  0.4385220000000  0.5149540000000  0.5105730000000 1.0
C      1  0.5686960000000  0.4959200000000  0.5186510000000 1.0
C      1  0.4889180000000  0.4703380000000  0.4122550000000 1.0
C      1  0.5109910000000  0.4651530000000  0.4715610000000 1.0
C      1  0.5632530000000  0.5449770000000  0.5178490000000 1.0
C      1  0.5308720000000  0.5425930000000  0.5137780000000 1.0
C      1  0.5551090000000  0.5737870000000  0.5189120000000 1.0
C      1  0.4783750000000  0.5180170000000  0.5109980000000 1.0
C      1  0.4233120000000  0.4781910000000  0.4685710000000 1.0
C      1  0.5960490000000  0.4884960000000  0.4603210000000 1.0
C      1  0.5124480000000  0.4807690000000  0.4209600000000 1.0
C      1  0.5171580000000  0.5122080000000  0.5787430000000 1.0
C      1  0.5607620000000  0.4463360000000  0.5336220000000 1.0
C      1  0.4500890000000  0.4498080000000  0.4768310000000 1.0
C      1  0.4811680000000  0.5578970000000  0.5621490000000 1.0
C      1  0.5704520000000  0.5420330000000  0.4560880000000 1.0
C      1  0.5074090000000  0.4295670000000  0.5260650000000 1.0
C      1  0.4736710000000  0.4805350000000  0.5777740000000 1.0
C      1  0.5231590000000  0.4592360000000  0.5371060000000 1.0
C      1  0.5393580000000  0.4731490000000  0.4160060000000 1.0
C      1  0.4486270000000  0.6110390000000  0.4221010000000 1.0
C      1  0.5450660000000  0.4344270000000  0.4870860000000 1.0
C      1  0.5159710000000  0.5308770000000  0.5364060000000 1.0
C      1  0.5186420000000  0.4398250000000  0.4792970000000 1.0
C      1  0.4397030000000  0.4604120000000  0.4509070000000 1.0
C      1  0.5729820000000  0.5223540000000  0.5046460000000 1.0
C      1  0.5101020000000  0.5537130000000  0.5579240000000 1.0
C      1  0.4375670000000  0.4384090000000  0.5039570000000 1.0
C      1  0.4830030000000  0.5343780000000  0.4249520000000 1.0
C      1  0.5587530000000  0.4745430000000  0.4353790000000 1.0
C      1  0.4786970000000  0.5650410000000  0.5076190000000 1.0
C      1  0.5301110000000  0.5249640000000  0.4877810000000 1.0
C      1  0.5381150000000  0.4849580000000  0.5201530000000 1.0
C      1  0.5475980000000  0.4621390000000  0.5607000000000 1.0
C      1  0.4607180000000  0.5660010000000  0.4801290000000 1.0
C      1  0.4684310000000  0.4737930000000  0.5463260000000 1.0
C      1  0.5166200000000  0.4995710000000  0.5409090000000 1.0
C      1  0.4958820000000  0.4227120000000  0.4823970000000 1.0
C      1  0.5609770000000  0.4888020000000  0.5674310000000 1.0
C      1  0.5117810000000  0.4974230000000  0.4434890000000 1.0
C      1  0.4311010000000  0.5050020000000  0.4653150000000 1.0
C      1  0.5001060000000  0.5860580000000  0.4700910000000 1.0
C      1  0.5035450000000  0.4845710000000  0.5684790000000 1.0
C      1  0.4401870000000  0.5556860000000  0.5125160000000 1.0
C      1  0.5656840000000  0.4891450000000  0.4652990000000 1.0
C      1  0.5264640000000  0.5761090000000  0.5097040000000 1.0
C      1  0.4601970000000  0.4303210000000  0.5211650000000 1.0
C      1  0.4825220000000  0.4830970000000  0.4666790000000 1.0
C      1  0.4791480000000  0.4544340000000  0.4498900000000 1.0
C      1  0.5189720000000  0.4595030000000  0.5767730000000 1.0
C      1  0.4669560000000  0.5060010000000  0.5894770000000 1.0
C      1  0.5082770000000  0.5372630000000  0.4685720000000 1.0
C      1  0.4864680000000  0.4227120000000  0.5095170000000 1.0
C      1  0.4867860000000  0.5275970000000  0.5769830000000 1.0
C      1  0.4612300000000  0.4697170000000  0.4975890000000 1.0
C      1  0.5680380000000  0.4743290000000  0.4958780000000 1.0
C      1  0.4589220000000  0.4603820000000  0.4258990000000 1.0
C      1  0.4673230000000  0.4573180000000  0.3932900000000 1.0
C      1  0.5788920000000  0.4960050000000  0.5480210000000 1.0
C      1  0.4162540000000  0.4627230000000  0.4933590000000 1.0
C      1  0.5216290000000  0.4950690000000  0.4958610000000 1.0
C      1  0.4596890000000  0.5993800000000  0.4428040000000 1.0
C      1  0.4840700000000  0.5223940000000  0.5442340000000 1.0
C      1  0.4795880000000  0.4288450000000  0.4601080000000 1.0
C      1  0.4917490000000  0.5192810000000  0.4503750000000 1.0
C      1  0.4847900000000  0.4480690000000  0.5716360000000 1.0
C      1  0.5026690000000  0.5836310000000  0.4989350000000 1.0
C      1  0.5440540000000  0.5072650000000  0.5819930000000 1.0
C      1  0.4463330000000  0.5356950000000  0.4856890000000 1.0
C      1  0.4178970000000  0.5317360000000  0.4674630000000 1.0
C      1  0.4897670000000  0.4881040000000  0.4995300000000 1.0
C      1  0.5605010000000  0.4494770000000  0.5051750000000 1.0
C      1  0.5152390000000  0.5653860000000  0.4574000000000 1.0
C      1  0.4509320000000  0.5271650000000  0.5382800000000 1.0
C      1  0.4947320000000  0.4764840000000  0.5303340000000 1.0
C      1  0.4643400000000  0.5573790000000  0.5364410000000 1.0
C      1  0.5318610000000  0.4880500000000  0.4662480000000 1.0
C      1  0.4596270000000  0.4953530000000  0.5280690000000 1.0
END
