TITL C-2848495-5024-510 0.000594325852467701 125000 -353.318584573604 0 0 63 (C1) n - 1
REM
REM in /home/bkarasulu/work/CARBON/AIRSS/Generating-Clusters/AIREBO/with-SteepDescent/Only-C1/SD-CG-opt/Try1-1.4A-POS3A/HFTN-CG
REM
REM
REM
REM
REM
REM ./C.cell (11c1c37f851c82e70ff6c80c92926a4b)
REM
REM compiler GCC version 9.2.1 20190827 (Red Hat 9.2.1-1)
REM options -cpp -mtune=generic -march=x86-64 -g -O0 -fpre-include=/usr/include/finclude/math-vector-fortran.h
REM seed 1962421376 462712906 -398354952 -1482708756 629266069 -746619809 1194968542 1360645454 1789787138 -1259550239 933818735 1350956268 -1278122896 1222931288 -687901459 -888636991 356050360 -1848340570 -1494661204 -157192564 -854052190 -402147922 975875996 515969332 151955107 -1150486143 738213082 -359173510 608492418 1259951260 1470772611 2034448332 82448032
REM
CELL 1.54180   50.00000   50.00000   50.00000   90.00000   90.00000   90.00000
LATT -1
SFAC C  
C      1  0.5229600000000  0.4459640000000  0.4622880000000 1.0
C      1  0.5285510000000  0.4960010000000  0.4753490000000 1.0
C      1  0.5431320000000  0.4790660000000  0.4396030000000 1.0
C      1  0.4659500000000  0.4482620000000  0.4928440000000 1.0
C      1  0.4937030000000  0.5300630000000  0.4765750000000 1.0
C      1  0.4614550000000  0.4859430000000  0.5644730000000 1.0
C      1  0.5664570000000  0.4616570000000  0.4894050000000 1.0
C      1  0.4711180000000  0.5860370000000  0.5585890000000 1.0
C      1  0.4811690000000  0.4783130000000  0.4936320000000 1.0
C      1  0.5704160000000  0.5220550000000  0.4502010000000 1.0
C      1  0.4413750000000  0.5018560000000  0.4541810000000 1.0
C      1  0.5550830000000  0.5448480000000  0.4942650000000 1.0
C      1  0.5047290000000  0.5057030000000  0.5704410000000 1.0
C      1  0.4966490000000  0.4578040000000  0.4486360000000 1.0
C      1  0.5110840000000  0.5122420000000  0.4997390000000 1.0
C      1  0.4509490000000  0.5284680000000  0.4515830000000 1.0
C      1  0.4922600000000  0.4832080000000  0.4666470000000 1.0
C      1  0.4387730000000  0.4443630000000  0.5065400000000 1.0
C      1  0.4279510000000  0.5655990000000  0.4748370000000 1.0
C      1  0.4927020000000  0.4536490000000  0.5132190000000 1.0
C      1  0.4334590000000  0.5681340000000  0.5361620000000 1.0
C      1  0.4869640000000  0.4431150000000  0.5434740000000 1.0
C      1  0.4248580000000  0.4565090000000  0.5235950000000 1.0
C      1  0.5104850000000  0.5571140000000  0.5244430000000 1.0
C      1  0.4680310000000  0.5329420000000  0.4285550000000 1.0
C      1  0.5016350000000  0.4528150000000  0.5656700000000 1.0
C      1  0.4498970000000  0.5496260000000  0.4711240000000 1.0
C      1  0.4799260000000  0.5565670000000  0.5172140000000 1.0
C      1  0.4918160000000  0.4775200000000  0.5747070000000 1.0
C      1  0.5556270000000  0.5035850000000  0.5195940000000 1.0
C      1  0.4603600000000  0.4878130000000  0.5308420000000 1.0
C      1  0.5724410000000  0.4871220000000  0.5069920000000 1.0
C      1  0.4651930000000  0.4547850000000  0.4610990000000 1.0
C      1  0.5543710000000  0.5320570000000  0.5212350000000 1.0
C      1  0.5206140000000  0.5136170000000  0.5492550000000 1.0
C      1  0.5290280000000  0.4447770000000  0.5660370000000 1.0
C      1  0.5256680000000  0.4937100000000  0.5240880000000 1.0
C      1  0.5268890000000  0.4339260000000  0.5067840000000 1.0
C      1  0.5071080000000  0.5610560000000  0.4750170000000 1.0
C      1  0.4607260000000  0.5490880000000  0.4082790000000 1.0
C      1  0.5036500000000  0.5094080000000  0.4564740000000 1.0
C      1  0.5213040000000  0.4664380000000  0.4279600000000 1.0
C      1  0.5239710000000  0.5441820000000  0.4983390000000 1.0
C      1  0.4750360000000  0.5135180000000  0.5721240000000 1.0
C      1  0.5589360000000  0.5018880000000  0.4356850000000 1.0
C      1  0.4344650000000  0.4705710000000  0.5505620000000 1.0
C      1  0.4803880000000  0.5043750000000  0.5121150000000 1.0
C      1  0.5307840000000  0.5386900000000  0.5375600000000 1.0
C      1  0.5556860000000  0.4443320000000  0.5129650000000 1.0
C      1  0.5438340000000  0.4690060000000  0.4695410000000 1.0
C      1  0.5222820000000  0.4644540000000  0.5211130000000 1.0
C      1  0.4485360000000  0.4753590000000  0.4538860000000 1.0
C      1  0.4605890000000  0.5647870000000  0.5433650000000 1.0
C      1  0.4663420000000  0.5341530000000  0.5568120000000 1.0
C      1  0.5139490000000  0.5873840000000  0.4635240000000 1.0
C      1  0.5890110000000  0.4504520000000  0.4767670000000 1.0
C      1  0.4757540000000  0.5552320000000  0.4864630000000 1.0
C      1  0.5415800000000  0.4471390000000  0.5411950000000 1.0
C      1  0.4618740000000  0.4556650000000  0.5385350000000 1.0
C      1  0.5207810000000  0.4264930000000  0.4808750000000 1.0
C      1  0.4691510000000  0.5292990000000  0.5274530000000 1.0
C      1  0.4930540000000  0.5195430000000  0.4295240000000 1.0
C      1  0.5674790000000  0.5406480000000  0.4699460000000 1.0
END
