TITL C-2848501-3133-544 0.00051253628696716 125000 -304.832703506866 0 0 55 (C1) n - 1
REM
REM in /home/bkarasulu/work/CARBON/AIRSS/Generating-Clusters/AIREBO/with-SteepDescent/Only-C1/SD-CG-opt/Try1-1.4A-POS3A/HFTN-CG
REM
REM
REM
REM
REM
REM ./C.cell (11c1c37f851c82e70ff6c80c92926a4b)
REM
REM compiler GCC version 9.2.1 20190827 (Red Hat 9.2.1-1)
REM options -cpp -mtune=generic -march=x86-64 -g -O0 -fpre-include=/usr/include/finclude/math-vector-fortran.h
REM seed 2062120791 1578359862 -590447925 1204678222 -697183804 771066864 -658046021 -1871726048 1682410868 562855091 -220732672 -1445703128 -508190839 1071870656 1683655723 1590120439 -8632586 -1805957348 1339288776 1285365996 845303092 -1174209599 -558117804 -1950463299 1290827862 -1241534623 203801684 394337961 93812152 -1256582078 998768052 -451132176 -385607497
REM
CELL 1.54180   50.00000   50.00000   50.00000   90.00000   90.00000   90.00000
LATT -1
SFAC C  
C      1  0.5344110000000  0.5264160000000  0.5448990000000 1.0
C      1  0.5020390000000  0.4805870000000  0.4316700000000 1.0
C      1  0.4442850000000  0.4613950000000  0.4819100000000 1.0
C      1  0.5242100000000  0.5042980000000  0.5107300000000 1.0
C      1  0.4383150000000  0.4691090000000  0.5084390000000 1.0
C      1  0.5104120000000  0.5131890000000  0.5638450000000 1.0
C      1  0.4659540000000  0.4876840000000  0.4473980000000 1.0
C      1  0.5092390000000  0.5163030000000  0.4480210000000 1.0
C      1  0.4723870000000  0.5368660000000  0.4817770000000 1.0
C      1  0.5283850000000  0.4892410000000  0.4429690000000 1.0
C      1  0.5182060000000  0.5594940000000  0.4667280000000 1.0
C      1  0.5568320000000  0.4970820000000  0.4551420000000 1.0
C      1  0.4390050000000  0.5022660000000  0.5172050000000 1.0
C      1  0.5513370000000  0.4711910000000  0.4740930000000 1.0
C      1  0.4572110000000  0.4985080000000  0.4887320000000 1.0
C      1  0.4405050000000  0.4841690000000  0.4628170000000 1.0
C      1  0.5072010000000  0.5693890000000  0.5542350000000 1.0
C      1  0.4653410000000  0.5389540000000  0.4498830000000 1.0
C      1  0.5147370000000  0.5357870000000  0.5097830000000 1.0
C      1  0.5137230000000  0.4921890000000  0.5376170000000 1.0
C      1  0.4756360000000  0.5738050000000  0.4967050000000 1.0
C      1  0.4531340000000  0.5642880000000  0.5035720000000 1.0
C      1  0.5613050000000  0.5400840000000  0.5239050000000 1.0
C      1  0.5687970000000  0.4941010000000  0.4891300000000 1.0
C      1  0.5646410000000  0.4881820000000  0.5201280000000 1.0
C      1  0.4817700000000  0.5241560000000  0.5593540000000 1.0
C      1  0.4524430000000  0.5324650000000  0.5090270000000 1.0
C      1  0.5090520000000  0.4327420000000  0.5014780000000 1.0
C      1  0.4635160000000  0.4295210000000  0.5195780000000 1.0
C      1  0.5338620000000  0.4706240000000  0.5493030000000 1.0
C      1  0.4800260000000  0.5311430000000  0.5285150000000 1.0
C      1  0.5236950000000  0.4795980000000  0.4903840000000 1.0
C      1  0.4988710000000  0.4784970000000  0.4750900000000 1.0
C      1  0.5293550000000  0.5371200000000  0.4565590000000 1.0
C      1  0.5514050000000  0.5243100000000  0.4686910000000 1.0
C      1  0.4835850000000  0.5075880000000  0.4685870000000 1.0
C      1  0.4885690000000  0.5010590000000  0.4173660000000 1.0
C      1  0.4575580000000  0.5139900000000  0.5671970000000 1.0
C      1  0.4633280000000  0.4715910000000  0.5450280000000 1.0
C      1  0.5503270000000  0.5205480000000  0.4998530000000 1.0
C      1  0.5257850000000  0.4847570000000  0.5746840000000 1.0
C      1  0.4861160000000  0.4820970000000  0.5318300000000 1.0
C      1  0.5504650000000  0.4648090000000  0.5276480000000 1.0
C      1  0.4692340000000  0.4476000000000  0.4765140000000 1.0
C      1  0.5350870000000  0.4506050000000  0.5040110000000 1.0
C      1  0.4786680000000  0.5029820000000  0.5130770000000 1.0
C      1  0.4461300000000  0.4950290000000  0.5494370000000 1.0
C      1  0.5084530000000  0.5462350000000  0.5395040000000 1.0
C      1  0.5614850000000  0.5103450000000  0.5367810000000 1.0
C      1  0.4498010000000  0.4525400000000  0.5286680000000 1.0
C      1  0.4995590000000  0.5531540000000  0.4898460000000 1.0
C      1  0.4816710000000  0.5256600000000  0.4329950000000 1.0
C      1  0.4811450000000  0.4333380000000  0.4975720000000 1.0
C      1  0.5567850000000  0.4416100000000  0.4793880000000 1.0
C      1  0.4850060000000  0.4597100000000  0.4507020000000 1.0
END
