TITL C-2848500-1637-696 -0.00227354657309892 125000 -542.697525552338 0 0 103 (C1) n - 1
REM
REM in /home/bkarasulu/work/CARBON/AIRSS/Generating-Clusters/AIREBO/with-SteepDescent/Only-C1/SD-CG-opt/Try1-1.4A-POS3A/HFTN-CG
REM
REM
REM
REM
REM
REM ./C.cell (11c1c37f851c82e70ff6c80c92926a4b)
REM
REM compiler GCC version 9.2.1 20190827 (Red Hat 9.2.1-1)
REM options -cpp -mtune=generic -march=x86-64 -g -O0 -fpre-include=/usr/include/finclude/math-vector-fortran.h
REM seed -400323471 -1257086497 2044429184 596829336 137964298 1555524395 611567869 1721504625 -2134938347 1253894911 -1177155707 -2110608269 -1759710631 1797642496 1844277772 1533043444 378373234 -1262854324 -2104112379 -1780224824 2107776833 -1953674358 -1802791459 1022008199 -1424040741 2028380023 596051843 422130871 1129184472 1676861120 -116299294 -1231955087 40212108
REM
CELL 1.54180   50.00000   50.00000   50.00000   90.00000   90.00000   90.00000
LATT -1
SFAC C  
C      1  0.4320720000000  0.4825180000000  0.5605860000000 1.0
C      1  0.5800890000000  0.4824550000000  0.4723400000000 1.0
C      1  0.5173690000000  0.4477670000000  0.4364420000000 1.0
C      1  0.5181040000000  0.5300520000000  0.5027410000000 1.0
C      1  0.5643640000000  0.4662590000000  0.4472810000000 1.0
C      1  0.4382390000000  0.5383300000000  0.5304920000000 1.0
C      1  0.4924270000000  0.4162010000000  0.4719040000000 1.0
C      1  0.5046170000000  0.5060290000000  0.5779210000000 1.0
C      1  0.4770330000000  0.5248720000000  0.4798280000000 1.0
C      1  0.4838030000000  0.4560120000000  0.4933550000000 1.0
C      1  0.5496720000000  0.5321930000000  0.5037030000000 1.0
C      1  0.4262510000000  0.4987390000000  0.5092950000000 1.0
C      1  0.5219010000000  0.4667820000000  0.4155050000000 1.0
C      1  0.5193520000000  0.5123260000000  0.4066080000000 1.0
C      1  0.4601420000000  0.5434320000000  0.5559930000000 1.0
C      1  0.5406040000000  0.5218340000000  0.4258270000000 1.0
C      1  0.5052090000000  0.4393950000000  0.5127180000000 1.0
C      1  0.4694750000000  0.4378370000000  0.5689360000000 1.0
C      1  0.4969210000000  0.4483570000000  0.5631330000000 1.0
C      1  0.5666570000000  0.4920390000000  0.4298510000000 1.0
C      1  0.4710400000000  0.5588200000000  0.5208710000000 1.0
C      1  0.4720730000000  0.5738160000000  0.5575620000000 1.0
C      1  0.5329100000000  0.4938770000000  0.5140640000000 1.0
C      1  0.4436330000000  0.5575060000000  0.5028360000000 1.0
C      1  0.5043440000000  0.5189750000000  0.5261290000000 1.0
C      1  0.5388730000000  0.4509430000000  0.5383110000000 1.0
C      1  0.4895100000000  0.5424500000000  0.5831080000000 1.0
C      1  0.4987580000000  0.5757120000000  0.4921040000000 1.0
C      1  0.5005620000000  0.4648050000000  0.5348310000000 1.0
C      1  0.5406990000000  0.5374890000000  0.4511490000000 1.0
C      1  0.4636810000000  0.4242270000000  0.5424540000000 1.0
C      1  0.4700230000000  0.5284830000000  0.5087010000000 1.0
C      1  0.4539120000000  0.5079450000000  0.5236640000000 1.0
C      1  0.5344260000000  0.4904330000000  0.4364780000000 1.0
C      1  0.4443570000000  0.5341900000000  0.4785750000000 1.0
C      1  0.4537630000000  0.4975050000000  0.4600080000000 1.0
C      1  0.5398340000000  0.4522800000000  0.4571520000000 1.0
C      1  0.4610030000000  0.4603270000000  0.5054360000000 1.0
C      1  0.5543340000000  0.5527820000000  0.5279600000000 1.0
C      1  0.4650080000000  0.5139140000000  0.4227670000000 1.0
C      1  0.5415530000000  0.4727960000000  0.5632080000000 1.0
C      1  0.5608750000000  0.4926060000000  0.5333670000000 1.0
C      1  0.5439390000000  0.4294520000000  0.4802490000000 1.0
C      1  0.5283170000000  0.5158920000000  0.4740980000000 1.0
C      1  0.4409660000000  0.4371880000000  0.4716320000000 1.0
C      1  0.4125210000000  0.4488100000000  0.5093640000000 1.0
C      1  0.5105880000000  0.4734780000000  0.5778300000000 1.0
C      1  0.4641350000000  0.5900670000000  0.5323920000000 1.0
C      1  0.5410320000000  0.5384340000000  0.5537970000000 1.0
C      1  0.4523530000000  0.4564690000000  0.5380960000000 1.0
C      1  0.5689040000000  0.4526890000000  0.4844440000000 1.0
C      1  0.4870910000000  0.4162180000000  0.5297750000000 1.0
C      1  0.5166950000000  0.4292670000000  0.5431120000000 1.0
C      1  0.4483400000000  0.4585640000000  0.5718030000000 1.0
C      1  0.4672370000000  0.4855970000000  0.5414480000000 1.0
C      1  0.4986400000000  0.4602580000000  0.4630160000000 1.0
C      1  0.4454400000000  0.5137720000000  0.5621580000000 1.0
C      1  0.4684680000000  0.4283760000000  0.4624530000000 1.0
C      1  0.5095020000000  0.4929620000000  0.4907310000000 1.0
C      1  0.4655790000000  0.4818510000000  0.4223760000000 1.0
C      1  0.4778790000000  0.5447740000000  0.4289680000000 1.0
C      1  0.5028870000000  0.4888580000000  0.4451060000000 1.0
C      1  0.5774590000000  0.5128600000000  0.4469200000000 1.0
C      1  0.4958380000000  0.5078510000000  0.4216800000000 1.0
C      1  0.4459580000000  0.5272060000000  0.4453280000000 1.0
C      1  0.4841590000000  0.5585190000000  0.4516780000000 1.0
C      1  0.4196570000000  0.5115160000000  0.5401080000000 1.0
C      1  0.5015140000000  0.5452440000000  0.4772430000000 1.0
C      1  0.5008050000000  0.5796150000000  0.5443480000000 1.0
C      1  0.5567970000000  0.5072110000000  0.4733340000000 1.0
C      1  0.5193160000000  0.5169020000000  0.5540850000000 1.0
C      1  0.5412440000000  0.5802590000000  0.5215400000000 1.0
C      1  0.5222480000000  0.4870570000000  0.5421370000000 1.0
C      1  0.5762590000000  0.4724040000000  0.5107470000000 1.0
C      1  0.4392540000000  0.4684240000000  0.4350250000000 1.0
C      1  0.5260870000000  0.4870570000000  0.3940330000000 1.0
C      1  0.5846150000000  0.5387730000000  0.5213720000000 1.0
C      1  0.4447720000000  0.5599060000000  0.4563290000000 1.0
C      1  0.5130030000000  0.5552970000000  0.5629100000000 1.0
C      1  0.4902300000000  0.4919590000000  0.5187340000000 1.0
C      1  0.5161070000000  0.4234250000000  0.4875090000000 1.0
C      1  0.5674810000000  0.4932870000000  0.5667190000000 1.0
C      1  0.4319430000000  0.4717080000000  0.4987880000000 1.0
C      1  0.4378080000000  0.4697390000000  0.4675640000000 1.0
C      1  0.4189520000000  0.4635030000000  0.5356350000000 1.0
C      1  0.4799360000000  0.4868830000000  0.5683560000000 1.0
C      1  0.5693130000000  0.5052570000000  0.5031700000000 1.0
C      1  0.5701010000000  0.5220980000000  0.5475740000000 1.0
C      1  0.4845310000000  0.4970630000000  0.4695870000000 1.0
C      1  0.5463520000000  0.4563250000000  0.5097040000000 1.0
C      1  0.5246340000000  0.4639040000000  0.4846480000000 1.0
C      1  0.5954830000000  0.5139550000000  0.4742330000000 1.0
C      1  0.4678460000000  0.5664520000000  0.4804550000000 1.0
C      1  0.4898930000000  0.5413490000000  0.5425400000000 1.0
C      1  0.5867270000000  0.5384490000000  0.4901980000000 1.0
C      1  0.5141040000000  0.5840190000000  0.5201960000000 1.0
C      1  0.5432690000000  0.5712190000000  0.4477210000000 1.0
C      1  0.4198310000000  0.5165910000000  0.4877880000000 1.0
C      1  0.5275380000000  0.5669940000000  0.4747160000000 1.0
C      1  0.4205910000000  0.4283340000000  0.4900100000000 1.0
C      1  0.4694130000000  0.4571000000000  0.4459130000000 1.0
C      1  0.5568100000000  0.5494710000000  0.4783150000000 1.0
C      1  0.4721350000000  0.5165290000000  0.5830650000000 1.0
END
