TITL C-2847959-7740-697 0.00360456003116916 125000 -800.145312869827 0 0 145 (C1) n - 1
REM
REM in /home/bkarasulu/work/CARBON/AIRSS/Generating-Clusters/AIREBO/with-SteepDescent/Only-C1/SD-CG-opt/Try1-1.4A-POS3A/HFTN-CG
REM
REM
REM
REM
REM
REM ./C.cell (11c1c37f851c82e70ff6c80c92926a4b)
REM
REM compiler GCC version 9.2.1 20190827 (Red Hat 9.2.1-1)
REM options -cpp -mtune=generic -march=x86-64 -g -O0 -fpre-include=/usr/include/finclude/math-vector-fortran.h
REM seed 616369848 -411464551 904010715 -1765374134 1330542545 -522530956 -2002785609 -848310726 479730358 -1302865701 213248935 -669033980 -584234072 -1968603332 874019203 -66670038 -1711215631 178170384 -939283142 -1917540078 1193917030 -1080176046 482402089 1670599978 1673062531 -2009498268 -1005149093 -1532131668 658634418 1306582175 203789126 677666616 -421944076
REM
CELL 1.54180   50.00000   50.00000   50.00000   90.00000   90.00000   90.00000
LATT -1
SFAC C  
C      1  0.4531230000000  0.5026160000000  0.5623290000000 1.0
C      1  0.4885830000000  0.4596490000000  0.5965250000000 1.0
C      1  0.5198560000000  0.4128050000000  0.5260750000000 1.0
C      1  0.4951560000000  0.4062100000000  0.4387560000000 1.0
C      1  0.4055880000000  0.5452090000000  0.4578850000000 1.0
C      1  0.4998620000000  0.4909510000000  0.5217900000000 1.0
C      1  0.5326220000000  0.5926640000000  0.4412150000000 1.0
C      1  0.4636590000000  0.4803300000000  0.4769560000000 1.0
C      1  0.4018400000000  0.5215410000000  0.4725160000000 1.0
C      1  0.5317600000000  0.5542720000000  0.5206420000000 1.0
C      1  0.4471370000000  0.5414620000000  0.4392220000000 1.0
C      1  0.5979900000000  0.5409020000000  0.5185690000000 1.0
C      1  0.4621360000000  0.4343430000000  0.5359820000000 1.0
C      1  0.5463090000000  0.4304670000000  0.5553550000000 1.0
C      1  0.5624840000000  0.5338670000000  0.5355530000000 1.0
C      1  0.4668370000000  0.4121100000000  0.4914140000000 1.0
C      1  0.4515770000000  0.5144460000000  0.4412020000000 1.0
C      1  0.4909960000000  0.5416590000000  0.5190110000000 1.0
C      1  0.4690890000000  0.3989680000000  0.5187750000000 1.0
C      1  0.4177040000000  0.4623660000000  0.4644740000000 1.0
C      1  0.4764880000000  0.5857300000000  0.4610520000000 1.0
C      1  0.5622320000000  0.5228990000000  0.4393460000000 1.0
C      1  0.4994000000000  0.4223120000000  0.5676960000000 1.0
C      1  0.5038630000000  0.5179910000000  0.4044100000000 1.0
C      1  0.5045960000000  0.5834880000000  0.4475310000000 1.0
C      1  0.4198170000000  0.4375810000000  0.4859580000000 1.0
C      1  0.4296470000000  0.5695830000000  0.4968810000000 1.0
C      1  0.5772960000000  0.4194210000000  0.5076220000000 1.0
C      1  0.4783180000000  0.4846120000000  0.6032770000000 1.0
C      1  0.5323630000000  0.4434230000000  0.4193760000000 1.0
C      1  0.5376100000000  0.5525440000000  0.4333410000000 1.0
C      1  0.5329210000000  0.5211680000000  0.4210390000000 1.0
C      1  0.4841090000000  0.5367320000000  0.4700860000000 1.0
C      1  0.4613910000000  0.5646070000000  0.4529060000000 1.0
C      1  0.4779890000000  0.4373850000000  0.5824790000000 1.0
C      1  0.5216840000000  0.5353070000000  0.4565460000000 1.0
C      1  0.4859480000000  0.4828140000000  0.5510160000000 1.0
C      1  0.4759540000000  0.5140480000000  0.5435240000000 1.0
C      1  0.5698190000000  0.4956350000000  0.4815260000000 1.0
C      1  0.3723010000000  0.4924360000000  0.5201140000000 1.0
C      1  0.5908650000000  0.4830700000000  0.4361950000000 1.0
C      1  0.4192600000000  0.4607410000000  0.5347700000000 1.0
C      1  0.5421930000000  0.5878900000000  0.4857360000000 1.0
C      1  0.4220380000000  0.5491140000000  0.5631430000000 1.0
C      1  0.5857490000000  0.5418140000000  0.4733240000000 1.0
C      1  0.5676120000000  0.4469970000000  0.5347560000000 1.0
C      1  0.5052110000000  0.5604190000000  0.4725650000000 1.0
C      1  0.4170970000000  0.4860540000000  0.5579640000000 1.0
C      1  0.4994830000000  0.4165480000000  0.4998160000000 1.0
C      1  0.4988510000000  0.5123030000000  0.5965650000000 1.0
C      1  0.5283430000000  0.4973010000000  0.3970660000000 1.0
C      1  0.4832680000000  0.4730980000000  0.4178590000000 1.0
C      1  0.4591310000000  0.4423310000000  0.4881750000000 1.0
C      1  0.5001120000000  0.5326430000000  0.5508030000000 1.0
C      1  0.5292280000000  0.5599030000000  0.5517600000000 1.0
C      1  0.5346090000000  0.4997000000000  0.5394810000000 1.0
C      1  0.4922650000000  0.5356430000000  0.4395040000000 1.0
C      1  0.4181240000000  0.4962970000000  0.4666720000000 1.0
C      1  0.5359080000000  0.5223110000000  0.5169830000000 1.0
C      1  0.5556850000000  0.5713620000000  0.5060240000000 1.0
C      1  0.6050520000000  0.4913250000000  0.5000560000000 1.0
C      1  0.5113230000000  0.5985380000000  0.4948190000000 1.0
C      1  0.5434880000000  0.4285640000000  0.4636840000000 1.0
C      1  0.5471310000000  0.4274970000000  0.5158410000000 1.0
C      1  0.4470890000000  0.5671260000000  0.5600840000000 1.0
C      1  0.4040600000000  0.4667800000000  0.4338030000000 1.0
C      1  0.4717900000000  0.5328780000000  0.5957220000000 1.0
C      1  0.5051660000000  0.4879690000000  0.5739440000000 1.0
C      1  0.4561670000000  0.4649800000000  0.4314300000000 1.0
C      1  0.5182830000000  0.5921880000000  0.5533660000000 1.0
C      1  0.5722120000000  0.5209240000000  0.5627370000000 1.0
C      1  0.4417450000000  0.5357370000000  0.5310500000000 1.0
C      1  0.4196910000000  0.5470180000000  0.5118550000000 1.0
C      1  0.4345410000000  0.5015260000000  0.4059310000000 1.0
C      1  0.4895630000000  0.4920370000000  0.3903340000000 1.0
C      1  0.5105740000000  0.4700690000000  0.4594050000000 1.0
C      1  0.5138740000000  0.4377090000000  0.4542940000000 1.0
C      1  0.5111020000000  0.4576620000000  0.4886730000000 1.0
C      1  0.4227300000000  0.4874940000000  0.5162010000000 1.0
C      1  0.4602230000000  0.5051220000000  0.5909350000000 1.0
C      1  0.5434180000000  0.4825980000000  0.4213550000000 1.0
C      1  0.5469810000000  0.5414700000000  0.5715130000000 1.0
C      1  0.5886440000000  0.4482330000000  0.4717000000000 1.0
C      1  0.5686200000000  0.4913470000000  0.5142450000000 1.0
C      1  0.5998320000000  0.5317640000000  0.5496210000000 1.0
C      1  0.5903260000000  0.4652770000000  0.5166760000000 1.0
C      1  0.5189500000000  0.4625550000000  0.5874910000000 1.0
C      1  0.5974210000000  0.5115290000000  0.4740850000000 1.0
C      1  0.5504340000000  0.4464760000000  0.4406660000000 1.0
C      1  0.4260720000000  0.5178710000000  0.5553730000000 1.0
C      1  0.5056220000000  0.5670560000000  0.5053460000000 1.0
C      1  0.5681440000000  0.5618020000000  0.5346420000000 1.0
C      1  0.5512810000000  0.4618160000000  0.5834130000000 1.0
C      1  0.5155670000000  0.4678930000000  0.4083820000000 1.0
C      1  0.4011910000000  0.5270780000000  0.5008070000000 1.0
C      1  0.4690360000000  0.5547000000000  0.5390050000000 1.0
C      1  0.4395760000000  0.4956270000000  0.4897670000000 1.0
C      1  0.5368600000000  0.4827260000000  0.4519160000000 1.0
C      1  0.4320800000000  0.4141990000000  0.4771500000000 1.0
C      1  0.5153330000000  0.4194660000000  0.4222040000000 1.0
C      1  0.4983810000000  0.5605280000000  0.5660600000000 1.0
C      1  0.4372880000000  0.4442040000000  0.5141860000000 1.0
C      1  0.5244950000000  0.5122220000000  0.4913140000000 1.0
C      1  0.5502270000000  0.5825620000000  0.4594730000000 1.0
C      1  0.4505290000000  0.5896890000000  0.5348680000000 1.0
C      1  0.4883790000000  0.4140150000000  0.5389330000000 1.0
C      1  0.5291820000000  0.5246180000000  0.5926810000000 1.0
C      1  0.5670370000000  0.5547490000000  0.4502440000000 1.0
C      1  0.4959180000000  0.4151050000000  0.4677570000000 1.0
C      1  0.5837060000000  0.5535530000000  0.4988200000000 1.0
C      1  0.5957150000000  0.5084550000000  0.5256390000000 1.0
C      1  0.4536850000000  0.5435570000000  0.4784720000000 1.0
C      1  0.4368610000000  0.4613200000000  0.5629210000000 1.0
C      1  0.5225740000000  0.4502850000000  0.5581590000000 1.0
C      1  0.4545940000000  0.4405720000000  0.5663210000000 1.0
C      1  0.5201890000000  0.4693600000000  0.5345360000000 1.0
C      1  0.4783910000000  0.5917480000000  0.4895870000000 1.0
C      1  0.4807170000000  0.4632850000000  0.4981690000000 1.0
C      1  0.4712510000000  0.4637050000000  0.5272480000000 1.0
C      1  0.6096480000000  0.4984340000000  0.4487840000000 1.0
C      1  0.4915590000000  0.5617480000000  0.4268390000000 1.0
C      1  0.4944500000000  0.5771940000000  0.5366850000000 1.0
C      1  0.5287550000000  0.4135910000000  0.5721010000000 1.0
C      1  0.4584020000000  0.5107640000000  0.4020590000000 1.0
C      1  0.4712610000000  0.5554930000000  0.5788480000000 1.0
C      1  0.4787950000000  0.5138300000000  0.5096330000000 1.0
C      1  0.3969740000000  0.5030770000000  0.5150660000000 1.0
C      1  0.4486450000000  0.4565660000000  0.4611370000000 1.0
C      1  0.5197570000000  0.5137340000000  0.5625120000000 1.0
C      1  0.5638630000000  0.4942290000000  0.5478110000000 1.0
C      1  0.4312530000000  0.4875790000000  0.4365370000000 1.0
C      1  0.4494390000000  0.5228390000000  0.5005310000000 1.0
C      1  0.5645410000000  0.4667340000000  0.5598800000000 1.0
C      1  0.4878640000000  0.4917160000000  0.4569820000000 1.0
C      1  0.4521560000000  0.5861660000000  0.5060380000000 1.0
C      1  0.5698310000000  0.4973900000000  0.4231730000000 1.0
C      1  0.5441850000000  0.5115600000000  0.4658520000000 1.0
C      1  0.4258750000000  0.5607180000000  0.4689860000000 1.0
C      1  0.5087910000000  0.4440090000000  0.5184990000000 1.0
C      1  0.4498020000000  0.4859070000000  0.5343380000000 1.0
C      1  0.4950580000000  0.5109800000000  0.4821230000000 1.0
C      1  0.5357460000000  0.4381410000000  0.4897380000000 1.0
C      1  0.4812480000000  0.5060710000000  0.4268440000000 1.0
C      1  0.5680540000000  0.4703080000000  0.4573420000000 1.0
C      1  0.5906500000000  0.4409700000000  0.4976190000000 1.0
END
