TITL C-2847955-7945-552 -0.00268060988543178 125000 -1005.42537576829 0 0 195 (C1) n - 1
REM
REM in /home/bkarasulu/work/CARBON/AIRSS/Generating-Clusters/AIREBO/with-SteepDescent/Only-C1/SD-CG-opt/Try1-1.4A-POS3A/HFTN-CG
REM
REM
REM
REM
REM
REM ./C.cell (11c1c37f851c82e70ff6c80c92926a4b)
REM
REM compiler GCC version 9.2.1 20190827 (Red Hat 9.2.1-1)
REM options -cpp -mtune=generic -march=x86-64 -g -O0 -fpre-include=/usr/include/finclude/math-vector-fortran.h
REM seed 1408210344 -931783085 1500196130 -890665775 -1818012042 30958599 1485743159 -799586954 81740265 559211475 73645403 -1273054078 -459130403 518538010 -866145401 -64452587 -228875466 1730965754 -870066558 1439541233 917462530 -22739492 1262108727 -1610190118 -1640121031 -284079832 1427960148 1098385731 925335727 1984947574 1983635912 -2062587752 1283223942
REM
CELL 1.54180   50.00000   50.00000   50.00000   90.00000   90.00000   90.00000
LATT -1
SFAC C  
C      1  0.3849340000000  0.5124640000000  0.5306280000000 1.0
C      1  0.5605640000000  0.4722700000000  0.5906380000000 1.0
C      1  0.5900880000000  0.4791820000000  0.5761140000000 1.0
C      1  0.6141140000000  0.4903610000000  0.5320910000000 1.0
C      1  0.4452590000000  0.4754500000000  0.5765180000000 1.0
C      1  0.4951600000000  0.4083220000000  0.4487070000000 1.0
C      1  0.5680620000000  0.5002270000000  0.4536870000000 1.0
C      1  0.5428670000000  0.5175910000000  0.5264040000000 1.0
C      1  0.5421060000000  0.3884710000000  0.4830710000000 1.0
C      1  0.3840440000000  0.4840020000000  0.4751450000000 1.0
C      1  0.5078470000000  0.4835490000000  0.4702600000000 1.0
C      1  0.3912620000000  0.5162440000000  0.4682280000000 1.0
C      1  0.4155270000000  0.5541720000000  0.4397620000000 1.0
C      1  0.4811500000000  0.5619460000000  0.5230560000000 1.0
C      1  0.5081010000000  0.3999650000000  0.5390840000000 1.0
C      1  0.4875720000000  0.5352120000000  0.3901350000000 1.0
C      1  0.5313170000000  0.5838950000000  0.4374130000000 1.0
C      1  0.4467780000000  0.4224850000000  0.5714330000000 1.0
C      1  0.5516470000000  0.4890650000000  0.5426900000000 1.0
C      1  0.4517750000000  0.4694860000000  0.4244180000000 1.0
C      1  0.5882800000000  0.5669060000000  0.4934760000000 1.0
C      1  0.5145760000000  0.6127530000000  0.5154980000000 1.0
C      1  0.4250880000000  0.4791240000000  0.4053390000000 1.0
C      1  0.4868370000000  0.5257750000000  0.6048830000000 1.0
C      1  0.5094270000000  0.5394110000000  0.5669930000000 1.0
C      1  0.5094100000000  0.3949340000000  0.4901120000000 1.0
C      1  0.4896040000000  0.4707930000000  0.5522540000000 1.0
C      1  0.4739870000000  0.4893150000000  0.4079980000000 1.0
C      1  0.5142110000000  0.5646860000000  0.5306900000000 1.0
C      1  0.4201520000000  0.5219160000000  0.5146780000000 1.0
C      1  0.5278810000000  0.5849910000000  0.5543200000000 1.0
C      1  0.5114560000000  0.4408620000000  0.5266800000000 1.0
C      1  0.4017520000000  0.4615320000000  0.4662540000000 1.0
C      1  0.4230890000000  0.4807210000000  0.4826490000000 1.0
C      1  0.5366520000000  0.4616140000000  0.6090900000000 1.0
C      1  0.3913070000000  0.5591550000000  0.5051960000000 1.0
C      1  0.5583210000000  0.4692850000000  0.4638850000000 1.0
C      1  0.4612970000000  0.5348480000000  0.4698670000000 1.0
C      1  0.5586390000000  0.4960970000000  0.4013890000000 1.0
C      1  0.5578440000000  0.4136310000000  0.5472470000000 1.0
C      1  0.5560290000000  0.5297710000000  0.5553000000000 1.0
C      1  0.6230020000000  0.4663870000000  0.5324450000000 1.0
C      1  0.5147810000000  0.5324910000000  0.5370880000000 1.0
C      1  0.4977500000000  0.5591660000000  0.4636200000000 1.0
C      1  0.5263490000000  0.4058650000000  0.5149330000000 1.0
C      1  0.5463980000000  0.4386950000000  0.4862580000000 1.0
C      1  0.4936550000000  0.4777740000000  0.5006390000000 1.0
C      1  0.4876320000000  0.4268490000000  0.5068780000000 1.0
C      1  0.4442980000000  0.5973520000000  0.4961840000000 1.0
C      1  0.4189680000000  0.5025160000000  0.4285510000000 1.0
C      1  0.5079550000000  0.6037820000000  0.5421500000000 1.0
C      1  0.5912060000000  0.4677480000000  0.5084000000000 1.0
C      1  0.5990850000000  0.4667040000000  0.4804560000000 1.0
C      1  0.4790940000000  0.5831840000000  0.4186230000000 1.0
C      1  0.4015840000000  0.5433270000000  0.5334780000000 1.0
C      1  0.5821550000000  0.5511780000000  0.5527360000000 1.0
C      1  0.4499980000000  0.4500470000000  0.4709400000000 1.0
C      1  0.5079450000000  0.5177550000000  0.4426680000000 1.0
C      1  0.5493890000000  0.4309670000000  0.5192360000000 1.0
C      1  0.5578650000000  0.5367860000000  0.5026710000000 1.0
C      1  0.5697040000000  0.4991300000000  0.4963230000000 1.0
C      1  0.5014460000000  0.4241160000000  0.4759120000000 1.0
C      1  0.4239710000000  0.4214800000000  0.4917030000000 1.0
C      1  0.4372800000000  0.4487950000000  0.5018050000000 1.0
C      1  0.5389280000000  0.4580240000000  0.5370580000000 1.0
C      1  0.5818880000000  0.5300610000000  0.4448570000000 1.0
C      1  0.4792880000000  0.5920710000000  0.4514620000000 1.0
C      1  0.4018740000000  0.5301500000000  0.5648200000000 1.0
C      1  0.4161350000000  0.4903240000000  0.5854660000000 1.0
C      1  0.5599640000000  0.5470910000000  0.4012230000000 1.0
C      1  0.4504930000000  0.5910760000000  0.5293620000000 1.0
C      1  0.5746880000000  0.5537960000000  0.4265360000000 1.0
C      1  0.4768000000000  0.5094150000000  0.4534680000000 1.0
C      1  0.4211180000000  0.4461450000000  0.5378850000000 1.0
C      1  0.4634040000000  0.4492190000000  0.5851960000000 1.0
C      1  0.4631470000000  0.3968160000000  0.5620810000000 1.0
C      1  0.4960720000000  0.5120130000000  0.4803650000000 1.0
C      1  0.4904890000000  0.4677550000000  0.3875290000000 1.0
C      1  0.5538570000000  0.5213230000000  0.4164580000000 1.0
C      1  0.4031670000000  0.5021320000000  0.5646210000000 1.0
C      1  0.5287530000000  0.4950520000000  0.5671260000000 1.0
C      1  0.5310070000000  0.5056430000000  0.4987340000000 1.0
C      1  0.4924700000000  0.4537500000000  0.4645670000000 1.0
C      1  0.5647580000000  0.5776470000000  0.4372720000000 1.0
C      1  0.4996430000000  0.5088570000000  0.5783110000000 1.0
C      1  0.4702940000000  0.4549490000000  0.5071300000000 1.0
C      1  0.5017810000000  0.5153730000000  0.5123370000000 1.0
C      1  0.5809020000000  0.4948170000000  0.5262740000000 1.0
C      1  0.4901410000000  0.4979800000000  0.5389050000000 1.0
C      1  0.4692470000000  0.5186530000000  0.4033070000000 1.0
C      1  0.4229130000000  0.5498450000000  0.4954750000000 1.0
C      1  0.4673150000000  0.4457270000000  0.4431350000000 1.0
C      1  0.5538250000000  0.5437250000000  0.4695790000000 1.0
C      1  0.4826180000000  0.5638850000000  0.3955740000000 1.0
C      1  0.4970390000000  0.4205010000000  0.5913580000000 1.0
C      1  0.5654330000000  0.4043370000000  0.4829890000000 1.0
C      1  0.4997220000000  0.5548560000000  0.6023190000000 1.0
C      1  0.5909600000000  0.4472070000000  0.4602640000000 1.0
C      1  0.5674180000000  0.5713430000000  0.5202710000000 1.0
C      1  0.4902950000000  0.5671570000000  0.5716350000000 1.0
C      1  0.4715350000000  0.5300520000000  0.5161750000000 1.0
C      1  0.6006500000000  0.4415370000000  0.5261840000000 1.0
C      1  0.4364090000000  0.5289520000000  0.4391890000000 1.0
C      1  0.4390330000000  0.4939380000000  0.5188910000000 1.0
C      1  0.4455790000000  0.5058180000000  0.4780660000000 1.0
C      1  0.5923950000000  0.4547300000000  0.5552270000000 1.0
C      1  0.5119770000000  0.4657020000000  0.5976320000000 1.0
C      1  0.4551150000000  0.5265050000000  0.5997400000000 1.0
C      1  0.4607620000000  0.5714730000000  0.5879230000000 1.0
C      1  0.4482940000000  0.5620800000000  0.5142290000000 1.0
C      1  0.4384260000000  0.4128990000000  0.4621450000000 1.0
C      1  0.4448130000000  0.5492870000000  0.5868710000000 1.0
C      1  0.4464540000000  0.4233730000000  0.5374210000000 1.0
C      1  0.5117920000000  0.5901250000000  0.4626310000000 1.0
C      1  0.4697350000000  0.5147770000000  0.5527400000000 1.0
C      1  0.5147730000000  0.5268320000000  0.3927680000000 1.0
C      1  0.5301250000000  0.5566230000000  0.5871990000000 1.0
C      1  0.4701080000000  0.4497910000000  0.4034510000000 1.0
C      1  0.5257260000000  0.5461400000000  0.4971890000000 1.0
C      1  0.5178920000000  0.4629600000000  0.5642610000000 1.0
C      1  0.4278470000000  0.5745090000000  0.4540090000000 1.0
C      1  0.5374990000000  0.4871540000000  0.4347970000000 1.0
C      1  0.5866130000000  0.5418240000000  0.4754810000000 1.0
C      1  0.4495010000000  0.3987210000000  0.5141660000000 1.0
C      1  0.4791650000000  0.4128490000000  0.5367140000000 1.0
C      1  0.4663200000000  0.5018540000000  0.5806530000000 1.0
C      1  0.5248000000000  0.4965390000000  0.4046770000000 1.0
C      1  0.5434890000000  0.5282440000000  0.5842980000000 1.0
C      1  0.3947380000000  0.5050410000000  0.4996470000000 1.0
C      1  0.5206530000000  0.4320510000000  0.5781750000000 1.0
C      1  0.4194730000000  0.4407660000000  0.4575850000000 1.0
C      1  0.5623300000000  0.4295170000000  0.4603320000000 1.0
C      1  0.5136330000000  0.5354170000000  0.4712460000000 1.0
C      1  0.5421610000000  0.4994390000000  0.5973630000000 1.0
C      1  0.4295600000000  0.5448150000000  0.5619370000000 1.0
C      1  0.4587810000000  0.5679460000000  0.4643500000000 1.0
C      1  0.5448840000000  0.4759640000000  0.4943950000000 1.0
C      1  0.5467250000000  0.5561240000000  0.5358500000000 1.0
C      1  0.4829650000000  0.4701090000000  0.6036200000000 1.0
C      1  0.5589920000000  0.5851270000000  0.4918050000000 1.0
C      1  0.5737860000000  0.5020940000000  0.5649440000000 1.0
C      1  0.5267960000000  0.4226180000000  0.5510210000000 1.0
C      1  0.4218320000000  0.5287850000000  0.4700000000000 1.0
C      1  0.4196520000000  0.4565090000000  0.5645570000000 1.0
C      1  0.5186790000000  0.4650290000000  0.3936880000000 1.0
C      1  0.4257860000000  0.5807130000000  0.4829520000000 1.0
C      1  0.4466870000000  0.4764260000000  0.5431600000000 1.0
C      1  0.5772940000000  0.4628130000000  0.4364170000000 1.0
C      1  0.4838040000000  0.4337640000000  0.5631180000000 1.0
C      1  0.5435970000000  0.4269630000000  0.4319870000000 1.0
C      1  0.5110050000000  0.4183670000000  0.4274590000000 1.0
C      1  0.3972140000000  0.5265770000000  0.4387700000000 1.0
C      1  0.5342870000000  0.4446290000000  0.4044070000000 1.0
C      1  0.4666300000000  0.6046590000000  0.4804480000000 1.0
C      1  0.5819840000000  0.5288830000000  0.5253320000000 1.0
C      1  0.5164100000000  0.4808720000000  0.5257370000000 1.0
C      1  0.5061490000000  0.4624500000000  0.4363840000000 1.0
C      1  0.5150780000000  0.5663290000000  0.4187550000000 1.0
C      1  0.5370320000000  0.4563210000000  0.4424090000000 1.0
C      1  0.4666200000000  0.4507020000000  0.5391490000000 1.0
C      1  0.4870020000000  0.5550670000000  0.4343330000000 1.0
C      1  0.5296220000000  0.5493250000000  0.4014900000000 1.0
C      1  0.5994250000000  0.4981620000000  0.4407090000000 1.0
C      1  0.4272900000000  0.5674370000000  0.5392460000000 1.0
C      1  0.5986120000000  0.5585390000000  0.5246360000000 1.0
C      1  0.5801450000000  0.4226570000000  0.5076440000000 1.0
C      1  0.4663580000000  0.4141410000000  0.4451600000000 1.0
C      1  0.4928600000000  0.5989290000000  0.4966380000000 1.0
C      1  0.4094360000000  0.4892890000000  0.5350090000000 1.0
C      1  0.4813640000000  0.5688440000000  0.4897530000000 1.0
C      1  0.4322380000000  0.4808090000000  0.4498530000000 1.0
C      1  0.5754060000000  0.4769530000000  0.4128690000000 1.0
C      1  0.4667200000000  0.4987620000000  0.5037430000000 1.0
C      1  0.5913820000000  0.5125160000000  0.4836520000000 1.0
C      1  0.4628380000000  0.4803890000000  0.4624550000000 1.0
C      1  0.4627640000000  0.4214850000000  0.4842870000000 1.0
C      1  0.5183560000000  0.4547580000000  0.4964140000000 1.0
C      1  0.5189510000000  0.5761800000000  0.5007260000000 1.0
C      1  0.5406150000000  0.5271780000000  0.4432380000000 1.0
C      1  0.4947160000000  0.4967000000000  0.6159610000000 1.0
C      1  0.5310750000000  0.6039660000000  0.4870770000000 1.0
C      1  0.5624400000000  0.4549400000000  0.5614400000000 1.0
C      1  0.4806060000000  0.5875560000000  0.5454330000000 1.0
C      1  0.4648310000000  0.5311080000000  0.4302000000000 1.0
C      1  0.5483450000000  0.5741040000000  0.4651650000000 1.0
C      1  0.4989870000000  0.4906340000000  0.4260130000000 1.0
C      1  0.5218820000000  0.4966080000000  0.6211470000000 1.0
C      1  0.4736280000000  0.5467410000000  0.5525240000000 1.0
C      1  0.4963360000000  0.4406720000000  0.4161990000000 1.0
C      1  0.5361490000000  0.5018240000000  0.4654480000000 1.0
C      1  0.4124810000000  0.4658180000000  0.5114370000000 1.0
C      1  0.4755710000000  0.3915150000000  0.4939980000000 1.0
C      1  0.4437370000000  0.5292240000000  0.5362500000000 1.0
C      1  0.5547850000000  0.5679560000000  0.5666940000000 1.0
C      1  0.6056360000000  0.4928220000000  0.4695090000000 1.0
END
