TITL C-2848504-8560-485 -0.00352207676084682 125000 -257.527691751068 0 0 45 (C1) n - 1
REM
REM in /home/bkarasulu/work/CARBON/AIRSS/Generating-Clusters/AIREBO/with-SteepDescent/Only-C1/SD-CG-opt/Try1-1.4A-POS3A/HFTN-CG
REM
REM
REM
REM
REM
REM ./C.cell (11c1c37f851c82e70ff6c80c92926a4b)
REM
REM compiler GCC version 9.2.1 20190827 (Red Hat 9.2.1-1)
REM options -cpp -mtune=generic -march=x86-64 -g -O0 -fpre-include=/usr/include/finclude/math-vector-fortran.h
REM seed -296558778 1658266138 -773507373 144751868 1120758922 1463295314 -740309035 1302643573 -826886874 744928994 1610037637 1777300712 -2083194979 1743337746 -1782652092 -166790078 -1101906528 1913886820 -924853680 -143048741 -574160184 1493054505 -781420207 -1487676614 -2009649771 -976948922 -925331548 -861373468 777626768 1409036257 -1880103641 -1661327240 1486252865
REM
CELL 1.54180   50.00000   50.00000   50.00000   90.00000   90.00000   90.00000
LATT -1
SFAC C  
C      1  0.5572870000000  0.5516440000000  0.4672800000000 1.0
C      1  0.6000570000000  0.4920060000000  0.5183200000000 1.0
C      1  0.5262660000000  0.5150750000000  0.4619610000000 1.0
C      1  0.4364310000000  0.5337370000000  0.4473600000000 1.0
C      1  0.4718840000000  0.4396320000000  0.4951310000000 1.0
C      1  0.4233660000000  0.4979360000000  0.4914960000000 1.0
C      1  0.5481050000000  0.4563930000000  0.5354790000000 1.0
C      1  0.5033750000000  0.5586090000000  0.5236910000000 1.0
C      1  0.4940010000000  0.5292400000000  0.5626740000000 1.0
C      1  0.5512800000000  0.5680840000000  0.5268200000000 1.0
C      1  0.4500170000000  0.4703330000000  0.5425300000000 1.0
C      1  0.4902990000000  0.5589630000000  0.4989070000000 1.0
C      1  0.4910380000000  0.4639070000000  0.4530100000000 1.0
C      1  0.4435390000000  0.4556620000000  0.5646250000000 1.0
C      1  0.4375800000000  0.4754160000000  0.4936860000000 1.0
C      1  0.4665590000000  0.4475290000000  0.4683080000000 1.0
C      1  0.5135500000000  0.5064380000000  0.5257250000000 1.0
C      1  0.4512820000000  0.4985940000000  0.5411720000000 1.0
C      1  0.5732890000000  0.5092100000000  0.4555450000000 1.0
C      1  0.5419280000000  0.4459780000000  0.5112900000000 1.0
C      1  0.5537990000000  0.5235900000000  0.4707590000000 1.0
C      1  0.4856060000000  0.5134940000000  0.4403330000000 1.0
C      1  0.5310010000000  0.5510920000000  0.5220770000000 1.0
C      1  0.5101600000000  0.5075970000000  0.5544790000000 1.0
C      1  0.4834230000000  0.5419060000000  0.4781530000000 1.0
C      1  0.4373940000000  0.5214060000000  0.4993030000000 1.0
C      1  0.5557080000000  0.5157870000000  0.4998920000000 1.0
C      1  0.4915170000000  0.5530520000000  0.5487860000000 1.0
C      1  0.4992190000000  0.4892530000000  0.4331760000000 1.0
C      1  0.5220380000000  0.4453700000000  0.4916590000000 1.0
C      1  0.4548920000000  0.4576390000000  0.5156740000000 1.0
C      1  0.5196430000000  0.4618540000000  0.4696190000000 1.0
C      1  0.5342430000000  0.5235940000000  0.5159690000000 1.0
C      1  0.4941080000000  0.4923460000000  0.5116510000000 1.0
C      1  0.4635420000000  0.4810280000000  0.4637940000000 1.0
C      1  0.5265090000000  0.4894370000000  0.5682590000000 1.0
C      1  0.4539660000000  0.5318970000000  0.4764320000000 1.0
C      1  0.5392110000000  0.4672540000000  0.5586570000000 1.0
C      1  0.5778580000000  0.5024370000000  0.5090800000000 1.0
C      1  0.4713860000000  0.4795870000000  0.4960530000000 1.0
C      1  0.4983450000000  0.4310930000000  0.4986910000000 1.0
C      1  0.5008800000000  0.5285160000000  0.4598490000000 1.0
C      1  0.4581700000000  0.5080830000000  0.4523980000000 1.0
C      1  0.4430420000000  0.5209320000000  0.5270250000000 1.0
C      1  0.5232050000000  0.4873710000000  0.4532180000000 1.0
END
