TITL C-2848509-3138-552 0.00111229225314332 125000 -1047.24902417367 0 0 195 (C1) n - 1
REM
REM in /home/bkarasulu/work/CARBON/AIRSS/Generating-Clusters/AIREBO/with-SteepDescent/Only-C1/SD-CG-opt/Try1-1.4A-POS3A/HFTN-CG
REM
REM
REM
REM
REM
REM ./C.cell (11c1c37f851c82e70ff6c80c92926a4b)
REM
REM compiler GCC version 9.2.1 20190827 (Red Hat 9.2.1-1)
REM options -cpp -mtune=generic -march=x86-64 -g -O0 -fpre-include=/usr/include/finclude/math-vector-fortran.h
REM seed -1475148811 -580696945 602420124 -12620200 2093690685 1391790379 -992175193 367962197 -475637102 1124959922 722531250 616493370 -1567515627 1961952515 -1672029012 1196552 1396506701 1855954743 1071362059 -1505646451 1159280236 -599324495 -1587979664 1248271315 -1658552143 -292982509 -272865403 773348293 -927657765 1404017039 1670924464 -901738703 1305577648
REM
CELL 1.54180   50.00000   50.00000   50.00000   90.00000   90.00000   90.00000
LATT -1
SFAC C  
C      1  0.4124600000000  0.4662540000000  0.4374890000000 1.0
C      1  0.4451240000000  0.4614720000000  0.4456300000000 1.0
C      1  0.4818820000000  0.6018820000000  0.5414650000000 1.0
C      1  0.5734400000000  0.4584230000000  0.4336420000000 1.0
C      1  0.4555960000000  0.6041240000000  0.5216120000000 1.0
C      1  0.5534940000000  0.4344650000000  0.4253810000000 1.0
C      1  0.3968210000000  0.5323840000000  0.5000010000000 1.0
C      1  0.4682920000000  0.4547960000000  0.5659720000000 1.0
C      1  0.5172570000000  0.5874080000000  0.5052440000000 1.0
C      1  0.5925930000000  0.4679580000000  0.4550030000000 1.0
C      1  0.4976140000000  0.5717100000000  0.5423600000000 1.0
C      1  0.5863910000000  0.4505380000000  0.5454390000000 1.0
C      1  0.5054290000000  0.5269240000000  0.5468810000000 1.0
C      1  0.4091740000000  0.4347540000000  0.4968110000000 1.0
C      1  0.4368100000000  0.4926410000000  0.5208610000000 1.0
C      1  0.4983440000000  0.4216100000000  0.4713300000000 1.0
C      1  0.5288910000000  0.4229990000000  0.5936250000000 1.0
C      1  0.3899730000000  0.5047750000000  0.5192410000000 1.0
C      1  0.4758390000000  0.4123630000000  0.5392620000000 1.0
C      1  0.5436910000000  0.5510210000000  0.5794220000000 1.0
C      1  0.5082130000000  0.6045100000000  0.4787200000000 1.0
C      1  0.4814010000000  0.3964320000000  0.4844750000000 1.0
C      1  0.4940710000000  0.4058410000000  0.4355290000000 1.0
C      1  0.4599290000000  0.5078500000000  0.5359750000000 1.0
C      1  0.5199920000000  0.5021150000000  0.3934370000000 1.0
C      1  0.5029010000000  0.3949380000000  0.5394720000000 1.0
C      1  0.4998760000000  0.4736550000000  0.5313620000000 1.0
C      1  0.4601290000000  0.5497130000000  0.4158240000000 1.0
C      1  0.4923240000000  0.5072710000000  0.3762990000000 1.0
C      1  0.5577030000000  0.4461270000000  0.5550950000000 1.0
C      1  0.4774970000000  0.4439240000000  0.4184030000000 1.0
C      1  0.4299250000000  0.5365250000000  0.5843560000000 1.0
C      1  0.5221540000000  0.4085610000000  0.5554280000000 1.0
C      1  0.4698000000000  0.4704820000000  0.5177590000000 1.0
C      1  0.6164340000000  0.5180040000000  0.5278330000000 1.0
C      1  0.5674900000000  0.4775020000000  0.5016810000000 1.0
C      1  0.5766790000000  0.5782950000000  0.4987390000000 1.0
C      1  0.5514990000000  0.4411260000000  0.5857970000000 1.0
C      1  0.3969870000000  0.4542960000000  0.5438800000000 1.0
C      1  0.4745100000000  0.5383010000000  0.5572000000000 1.0
C      1  0.4866510000000  0.4444490000000  0.5427280000000 1.0
C      1  0.6009540000000  0.5353070000000  0.5044340000000 1.0
C      1  0.4745800000000  0.4088830000000  0.5722490000000 1.0
C      1  0.4307850000000  0.4818290000000  0.4766410000000 1.0
C      1  0.5561430000000  0.5094950000000  0.4994270000000 1.0
C      1  0.5299890000000  0.4213030000000  0.4735770000000 1.0
C      1  0.5252020000000  0.5317610000000  0.4369920000000 1.0
C      1  0.5455140000000  0.4945590000000  0.4021820000000 1.0
C      1  0.5769390000000  0.5202550000000  0.5240870000000 1.0
C      1  0.5255630000000  0.4933090000000  0.4799830000000 1.0
C      1  0.5311510000000  0.6173800000000  0.5454390000000 1.0
C      1  0.5836610000000  0.5026400000000  0.4298200000000 1.0
C      1  0.5133660000000  0.5574750000000  0.4894290000000 1.0
C      1  0.5945800000000  0.4916700000000  0.5187910000000 1.0
C      1  0.4669160000000  0.5920740000000  0.4922520000000 1.0
C      1  0.4610150000000  0.4801930000000  0.4218510000000 1.0
C      1  0.5733240000000  0.4996840000000  0.4024140000000 1.0
C      1  0.4354770000000  0.5842500000000  0.5027360000000 1.0
C      1  0.5894480000000  0.5518230000000  0.4578500000000 1.0
C      1  0.5381730000000  0.4645520000000  0.4904230000000 1.0
C      1  0.5852600000000  0.4569630000000  0.4811410000000 1.0
C      1  0.5960670000000  0.5290140000000  0.5508060000000 1.0
C      1  0.5014900000000  0.4065510000000  0.5091870000000 1.0
C      1  0.4886750000000  0.4361570000000  0.5098830000000 1.0
C      1  0.5519070000000  0.4726800000000  0.5880070000000 1.0
C      1  0.5353860000000  0.5012400000000  0.5797710000000 1.0
C      1  0.5694880000000  0.5004410000000  0.4694340000000 1.0
C      1  0.4865640000000  0.5190060000000  0.5245930000000 1.0
C      1  0.5014830000000  0.4384340000000  0.4418840000000 1.0
C      1  0.4812840000000  0.5943040000000  0.4657690000000 1.0
C      1  0.4152970000000  0.5076260000000  0.4907610000000 1.0
C      1  0.5560510000000  0.5504060000000  0.4205900000000 1.0
C      1  0.5904190000000  0.4426190000000  0.5194950000000 1.0
C      1  0.4704440000000  0.4626310000000  0.3963110000000 1.0
C      1  0.4693010000000  0.5790270000000  0.4164530000000 1.0
C      1  0.4465010000000  0.5390320000000  0.5379170000000 1.0
C      1  0.5839440000000  0.5591640000000  0.4324100000000 1.0
C      1  0.5341530000000  0.5359550000000  0.5056130000000 1.0
C      1  0.4084980000000  0.4301740000000  0.5305950000000 1.0
C      1  0.4219270000000  0.5272170000000  0.5568180000000 1.0
C      1  0.5101510000000  0.6078980000000  0.5314320000000 1.0
C      1  0.5818660000000  0.5426250000000  0.5710790000000 1.0
C      1  0.5272060000000  0.4082770000000  0.4428290000000 1.0
C      1  0.5152510000000  0.4949240000000  0.5529960000000 1.0
C      1  0.5042070000000  0.4822780000000  0.5014960000000 1.0
C      1  0.4197970000000  0.4061530000000  0.4827380000000 1.0
C      1  0.4639000000000  0.5389130000000  0.5888420000000 1.0
C      1  0.4014330000000  0.5518720000000  0.4725200000000 1.0
C      1  0.4500860000000  0.4272100000000  0.5657870000000 1.0
C      1  0.4934260000000  0.4990910000000  0.6099510000000 1.0
C      1  0.4574550000000  0.5541130000000  0.4670550000000 1.0
C      1  0.4941650000000  0.5707060000000  0.4464490000000 1.0
C      1  0.5499130000000  0.4120510000000  0.5182930000000 1.0
C      1  0.4996000000000  0.5109030000000  0.4152900000000 1.0
C      1  0.5092020000000  0.4469560000000  0.5806350000000 1.0
C      1  0.5643880000000  0.4350920000000  0.5067150000000 1.0
C      1  0.4072860000000  0.4694310000000  0.5665680000000 1.0
C      1  0.4724670000000  0.5076760000000  0.4541390000000 1.0
C      1  0.4365680000000  0.5714040000000  0.5342230000000 1.0
C      1  0.5238600000000  0.5518160000000  0.5338750000000 1.0
C      1  0.5271530000000  0.4776540000000  0.6107850000000 1.0
C      1  0.5737770000000  0.5827860000000  0.5317580000000 1.0
C      1  0.4507550000000  0.5112440000000  0.4124900000000 1.0
C      1  0.5600750000000  0.5489020000000  0.4949530000000 1.0
C      1  0.4427080000000  0.5801580000000  0.4585580000000 1.0
C      1  0.6104820000000  0.4868470000000  0.4891190000000 1.0
C      1  0.4184560000000  0.5810210000000  0.4767230000000 1.0
C      1  0.5058250000000  0.5009840000000  0.4533840000000 1.0
C      1  0.5167790000000  0.4609910000000  0.3933020000000 1.0
C      1  0.4001680000000  0.5337150000000  0.5327650000000 1.0
C      1  0.5384560000000  0.5985950000000  0.4718330000000 1.0
C      1  0.5673060000000  0.5339050000000  0.4699690000000 1.0
C      1  0.4650650000000  0.5086010000000  0.6036530000000 1.0
C      1  0.5240070000000  0.5724860000000  0.4608300000000 1.0
C      1  0.5363080000000  0.4398090000000  0.3998870000000 1.0
C      1  0.5636400000000  0.5995190000000  0.4803920000000 1.0
C      1  0.4716160000000  0.5284410000000  0.3930340000000 1.0
C      1  0.5147330000000  0.4574720000000  0.4667630000000 1.0
C      1  0.4350720000000  0.4646190000000  0.5855910000000 1.0
C      1  0.5398460000000  0.5815660000000  0.5299350000000 1.0
C      1  0.4314710000000  0.4621030000000  0.5253870000000 1.0
C      1  0.5552490000000  0.5183960000000  0.4326760000000 1.0
C      1  0.5423250000000  0.4468650000000  0.4547920000000 1.0
C      1  0.5037390000000  0.5376940000000  0.3863360000000 1.0
C      1  0.5704030000000  0.4269780000000  0.4747990000000 1.0
C      1  0.6016000000000  0.4985530000000  0.4584160000000 1.0
C      1  0.5373020000000  0.4498960000000  0.5211410000000 1.0
C      1  0.4932450000000  0.5102220000000  0.4962390000000 1.0
C      1  0.4959680000000  0.5408170000000  0.4310780000000 1.0
C      1  0.4003800000000  0.4743880000000  0.5189320000000 1.0
C      1  0.5366120000000  0.5226880000000  0.4671410000000 1.0
C      1  0.4971520000000  0.4165510000000  0.5856030000000 1.0
C      1  0.5539310000000  0.5053870000000  0.5447020000000 1.0
C      1  0.5327660000000  0.4928510000000  0.4336730000000 1.0
C      1  0.5660170000000  0.5518960000000  0.5266770000000 1.0
C      1  0.4918190000000  0.5613320000000  0.5711870000000 1.0
C      1  0.4939370000000  0.4568690000000  0.4891480000000 1.0
C      1  0.4057150000000  0.5031110000000  0.4524410000000 1.0
C      1  0.4716900000000  0.4424410000000  0.4678650000000 1.0
C      1  0.4352910000000  0.4254640000000  0.5411220000000 1.0
C      1  0.4258590000000  0.4491360000000  0.4708060000000 1.0
C      1  0.4641600000000  0.5240360000000  0.4922970000000 1.0
C      1  0.4933030000000  0.4740540000000  0.3835640000000 1.0
C      1  0.4685360000000  0.4762180000000  0.4654260000000 1.0
C      1  0.5919740000000  0.4773640000000  0.5493070000000 1.0
C      1  0.5602840000000  0.4119150000000  0.4499110000000 1.0
C      1  0.4795080000000  0.5542410000000  0.4894180000000 1.0
C      1  0.5187050000000  0.4413260000000  0.5484450000000 1.0
C      1  0.4815760000000  0.4969160000000  0.5574430000000 1.0
C      1  0.5149920000000  0.5178920000000  0.6012880000000 1.0
C      1  0.4443800000000  0.4716470000000  0.5536500000000 1.0
C      1  0.5298830000000  0.4061080000000  0.4999210000000 1.0
C      1  0.5171260000000  0.4637870000000  0.4254650000000 1.0
C      1  0.5055160000000  0.5285890000000  0.4733050000000 1.0
C      1  0.5656940000000  0.5701320000000  0.5622690000000 1.0
C      1  0.4670460000000  0.5369680000000  0.4451460000000 1.0
C      1  0.4814700000000  0.5725780000000  0.5148480000000 1.0
C      1  0.4314790000000  0.5352740000000  0.4271350000000 1.0
C      1  0.4616430000000  0.4069450000000  0.5100710000000 1.0
C      1  0.5000580000000  0.5813760000000  0.4145840000000 1.0
C      1  0.5489040000000  0.5360760000000  0.5497780000000 1.0
C      1  0.5408260000000  0.4739920000000  0.5448710000000 1.0
C      1  0.4332750000000  0.4248280000000  0.4502550000000 1.0
C      1  0.4557690000000  0.4395110000000  0.5178940000000 1.0
C      1  0.4648640000000  0.4130540000000  0.4521270000000 1.0
C      1  0.5487740000000  0.4154860000000  0.5455890000000 1.0
C      1  0.5261840000000  0.5444630000000  0.4054540000000 1.0
C      1  0.4395090000000  0.5005370000000  0.4496520000000 1.0
C      1  0.5981430000000  0.5567760000000  0.4865560000000 1.0
C      1  0.4126820000000  0.5317750000000  0.4474790000000 1.0
C      1  0.4966830000000  0.4666480000000  0.6033410000000 1.0
C      1  0.4278000000000  0.4873650000000  0.4205700000000 1.0
C      1  0.3918530000000  0.4885480000000  0.4751550000000 1.0
C      1  0.4859670000000  0.5589830000000  0.6040290000000 1.0
C      1  0.4629910000000  0.4606290000000  0.6045810000000 1.0
C      1  0.3916290000000  0.4631040000000  0.4900170000000 1.0
C      1  0.5603240000000  0.5235220000000  0.5859950000000 1.0
C      1  0.5497150000000  0.5993540000000  0.5579150000000 1.0
C      1  0.4318810000000  0.5440340000000  0.4801900000000 1.0
C      1  0.4359820000000  0.5295140000000  0.5070170000000 1.0
C      1  0.5541490000000  0.4787130000000  0.4533200000000 1.0
C      1  0.4689960000000  0.4850770000000  0.5817270000000 1.0
C      1  0.4351330000000  0.5197860000000  0.6084730000000 1.0
C      1  0.5710730000000  0.4887610000000  0.5660260000000 1.0
C      1  0.4073540000000  0.5622580000000  0.5442400000000 1.0
C      1  0.5155930000000  0.5480270000000  0.5914030000000 1.0
C      1  0.5293310000000  0.5701800000000  0.4277700000000 1.0
C      1  0.4602260000000  0.5937550000000  0.4391670000000 1.0
C      1  0.4482340000000  0.4030890000000  0.4801100000000 1.0
C      1  0.4911730000000  0.4841900000000  0.4280930000000 1.0
C      1  0.5458400000000  0.5062240000000  0.6117500000000 1.0
C      1  0.6101690000000  0.4564490000000  0.5021600000000 1.0
C      1  0.4519340000000  0.5926380000000  0.5534610000000 1.0
C      1  0.4224900000000  0.4968090000000  0.5524600000000 1.0
C      1  0.4580950000000  0.4906410000000  0.4944070000000 1.0
END
