TITL C-2848495-5024-87 0.00122687838013132 125000 -573.426064358409 0 0 103 (C1) n - 1
REM
REM in /home/bkarasulu/work/CARBON/AIRSS/Generating-Clusters/AIREBO/with-SteepDescent/Only-C1/SD-CG-opt/Try1-1.4A-POS3A/HFTN-CG
REM
REM
REM
REM
REM
REM ./C.cell (11c1c37f851c82e70ff6c80c92926a4b)
REM
REM compiler GCC version 9.2.1 20190827 (Red Hat 9.2.1-1)
REM options -cpp -mtune=generic -march=x86-64 -g -O0 -fpre-include=/usr/include/finclude/math-vector-fortran.h
REM seed 1189034539 -512475108 -1459805418 647612821 2051065748 1416658748 171164805 -1441746560 -61785818 -1346028078 1788031739 -2132712044 376999297 -765886748 -652396822 1363769966 -691788348 -755817989 -1587380984 -1761419775 1550028974 2099178264 -887784291 -216233563 -827970453 1246288221 -693077279 -796476016 -154103906 -588727078 -1197023864 -1732845979 -667408100
REM
CELL 1.54180   50.00000   50.00000   50.00000   90.00000   90.00000   90.00000
LATT -1
SFAC C  
C      1  0.4832560000000  0.5816590000000  0.4663190000000 1.0
C      1  0.4701810000000  0.4987560000000  0.5785920000000 1.0
C      1  0.4725860000000  0.5400890000000  0.5130080000000 1.0
C      1  0.5087500000000  0.4561590000000  0.4731320000000 1.0
C      1  0.5233470000000  0.5541430000000  0.4247320000000 1.0
C      1  0.4399040000000  0.5117890000000  0.5501820000000 1.0
C      1  0.4686320000000  0.4906340000000  0.5288200000000 1.0
C      1  0.4538250000000  0.4281460000000  0.5106990000000 1.0
C      1  0.5741800000000  0.5007170000000  0.4459780000000 1.0
C      1  0.4554710000000  0.5213150000000  0.5857010000000 1.0
C      1  0.4984760000000  0.5380980000000  0.4429210000000 1.0
C      1  0.5531230000000  0.4599710000000  0.4604740000000 1.0
C      1  0.4789800000000  0.5925170000000  0.5261790000000 1.0
C      1  0.5634030000000  0.5258760000000  0.4369420000000 1.0
C      1  0.4491120000000  0.5429770000000  0.5607300000000 1.0
C      1  0.5004150000000  0.5189700000000  0.4704860000000 1.0
C      1  0.5698610000000  0.4673410000000  0.4885040000000 1.0
C      1  0.4707330000000  0.4195560000000  0.5339720000000 1.0
C      1  0.4332850000000  0.4304520000000  0.4837470000000 1.0
C      1  0.4782810000000  0.4500530000000  0.4636830000000 1.0
C      1  0.5740660000000  0.5429100000000  0.5302470000000 1.0
C      1  0.4993930000000  0.4062440000000  0.4883220000000 1.0
C      1  0.4596010000000  0.5122280000000  0.5069520000000 1.0
C      1  0.5836800000000  0.4938210000000  0.4710590000000 1.0
C      1  0.5587440000000  0.4792530000000  0.4361450000000 1.0
C      1  0.4449040000000  0.5511050000000  0.5299800000000 1.0
C      1  0.5483840000000  0.5567550000000  0.5177340000000 1.0
C      1  0.5204690000000  0.4986870000000  0.5138240000000 1.0
C      1  0.4538100000000  0.4906310000000  0.4359680000000 1.0
C      1  0.4586510000000  0.5241400000000  0.4569840000000 1.0
C      1  0.5407130000000  0.5551970000000  0.5484880000000 1.0
C      1  0.5349490000000  0.5280800000000  0.5553040000000 1.0
C      1  0.4764900000000  0.4592960000000  0.4963620000000 1.0
C      1  0.4474110000000  0.4558640000000  0.5562760000000 1.0
C      1  0.5574220000000  0.5718830000000  0.4904170000000 1.0
C      1  0.4984630000000  0.5192260000000  0.4146350000000 1.0
C      1  0.4928670000000  0.5452500000000  0.5398110000000 1.0
C      1  0.5531320000000  0.5102330000000  0.4909110000000 1.0
C      1  0.5713020000000  0.5158800000000  0.5268690000000 1.0
C      1  0.5298770000000  0.4645780000000  0.5374350000000 1.0
C      1  0.4312830000000  0.4506080000000  0.5347050000000 1.0
C      1  0.5081080000000  0.4698380000000  0.5596750000000 1.0
C      1  0.4440210000000  0.5482420000000  0.4689850000000 1.0
C      1  0.5363380000000  0.4847880000000  0.4765750000000 1.0
C      1  0.4656650000000  0.5623700000000  0.4882730000000 1.0
C      1  0.4228560000000  0.5056340000000  0.4785330000000 1.0
C      1  0.5545820000000  0.4778750000000  0.5530540000000 1.0
C      1  0.5374800000000  0.4316750000000  0.4599080000000 1.0
C      1  0.5505160000000  0.5446600000000  0.4621890000000 1.0
C      1  0.4917480000000  0.4887480000000  0.5039570000000 1.0
C      1  0.5692470000000  0.5400500000000  0.4881400000000 1.0
C      1  0.5069020000000  0.4870270000000  0.4608020000000 1.0
C      1  0.4223640000000  0.5365520000000  0.5137440000000 1.0
C      1  0.5042610000000  0.4184940000000  0.5390340000000 1.0
C      1  0.5068940000000  0.5691030000000  0.4504530000000 1.0
C      1  0.5251690000000  0.4862910000000  0.5918360000000 1.0
C      1  0.4927230000000  0.4487970000000  0.5672920000000 1.0
C      1  0.5837930000000  0.5016460000000  0.5028610000000 1.0
C      1  0.5446300000000  0.5043210000000  0.5371860000000 1.0
C      1  0.5260820000000  0.5834570000000  0.4980550000000 1.0
C      1  0.5477460000000  0.4796470000000  0.5830150000000 1.0
C      1  0.5888090000000  0.4723960000000  0.5157400000000 1.0
C      1  0.4373280000000  0.4508270000000  0.4668840000000 1.0
C      1  0.4344440000000  0.4895570000000  0.5039180000000 1.0
C      1  0.4263260000000  0.4951900000000  0.4537560000000 1.0
C      1  0.4729880000000  0.5615090000000  0.5703490000000 1.0
C      1  0.4563900000000  0.5765580000000  0.5148020000000 1.0
C      1  0.4873130000000  0.4854540000000  0.4328980000000 1.0
C      1  0.4919100000000  0.3979760000000  0.5179980000000 1.0
C      1  0.4540390000000  0.5768880000000  0.4535970000000 1.0
C      1  0.5189190000000  0.4496380000000  0.4426410000000 1.0
C      1  0.4591640000000  0.4749850000000  0.4639080000000 1.0
C      1  0.5062170000000  0.5250760000000  0.5633990000000 1.0
C      1  0.5818270000000  0.4677930000000  0.5418580000000 1.0
C      1  0.5232470000000  0.4377280000000  0.5249910000000 1.0
C      1  0.5424190000000  0.4211160000000  0.5053530000000 1.0
C      1  0.5361090000000  0.4876170000000  0.4220810000000 1.0
C      1  0.5031980000000  0.4382000000000  0.4989850000000 1.0
C      1  0.5308730000000  0.5203130000000  0.4593020000000 1.0
C      1  0.4910800000000  0.5776500000000  0.5490310000000 1.0
C      1  0.4934550000000  0.5898500000000  0.4964610000000 1.0
C      1  0.4750680000000  0.4034570000000  0.4709850000000 1.0
C      1  0.4560860000000  0.4841700000000  0.5559330000000 1.0
C      1  0.4248410000000  0.5108960000000  0.5265600000000 1.0
C      1  0.4723690000000  0.5013360000000  0.4781660000000 1.0
C      1  0.5304100000000  0.5209010000000  0.4261610000000 1.0
C      1  0.5003470000000  0.4975850000000  0.5744560000000 1.0
C      1  0.4684770000000  0.4379250000000  0.5585560000000 1.0
C      1  0.4756150000000  0.4968560000000  0.4030740000000 1.0
C      1  0.5227760000000  0.5743220000000  0.5567830000000 1.0
C      1  0.4925490000000  0.5459560000000  0.5835970000000 1.0
C      1  0.4518480000000  0.4049300000000  0.4865010000000 1.0
C      1  0.5028670000000  0.5339360000000  0.4976580000000 1.0
C      1  0.4230950000000  0.5332950000000  0.4855140000000 1.0
C      1  0.4669890000000  0.5194350000000  0.4272850000000 1.0
C      1  0.4749660000000  0.4225790000000  0.4514190000000 1.0
C      1  0.4451630000000  0.4608030000000  0.5067560000000 1.0
C      1  0.5313000000000  0.5705440000000  0.4686940000000 1.0
C      1  0.5144880000000  0.4704920000000  0.4253190000000 1.0
C      1  0.5050500000000  0.5631620000000  0.5135950000000 1.0
C      1  0.5436020000000  0.4756950000000  0.5085310000000 1.0
C      1  0.5330500000000  0.5298620000000  0.5087050000000 1.0
C      1  0.5304580000000  0.4152350000000  0.4810040000000 1.0
END
