TITL C-2847949-8115-506 -0.0022352651255943 125000 -1074.02945760421 0 0 195 (C1) n - 1
REM
REM in /home/bkarasulu/work/CARBON/AIRSS/Generating-Clusters/AIREBO/with-SteepDescent/Only-C1/SD-CG-opt/Try1-1.4A-POS3A/HFTN-CG
REM
REM
REM
REM
REM
REM ./C.cell (11c1c37f851c82e70ff6c80c92926a4b)
REM
REM compiler GCC version 9.2.1 20190827 (Red Hat 9.2.1-1)
REM options -cpp -mtune=generic -march=x86-64 -g -O0 -fpre-include=/usr/include/finclude/math-vector-fortran.h
REM seed -1565132086 1684378067 -1945307817 -2085346963 -1114354218 -638259754 1439867717 713006941 -1035604294 -1795884391 660033212 -1591801514 2026024820 979571979 1814167895 1986394137 1264617220 -538722712 1316433116 -1967181226 1180945668 2131460485 1286083882 647137102 -424864636 1103219347 -841627986 336756241 1590442437 793223430 1390553314 -1357417707 1455269130
REM
CELL 1.54180   50.00000   50.00000   50.00000   90.00000   90.00000   90.00000
LATT -1
SFAC C  
C      1  0.4456250000000  0.5076620000000  0.5742330000000 1.0
C      1  0.4884370000000  0.4342620000000  0.4886710000000 1.0
C      1  0.4353290000000  0.5100290000000  0.4785240000000 1.0
C      1  0.4451520000000  0.5296820000000  0.6001620000000 1.0
C      1  0.5162000000000  0.4604630000000  0.3922460000000 1.0
C      1  0.5749060000000  0.5189230000000  0.4628970000000 1.0
C      1  0.5512970000000  0.4969850000000  0.4904960000000 1.0
C      1  0.4583220000000  0.5055050000000  0.4226370000000 1.0
C      1  0.5085690000000  0.5564540000000  0.5005920000000 1.0
C      1  0.4622200000000  0.4606850000000  0.5983990000000 1.0
C      1  0.4394960000000  0.4796840000000  0.5925670000000 1.0
C      1  0.4729590000000  0.5394220000000  0.5732690000000 1.0
C      1  0.4970420000000  0.5868390000000  0.5677680000000 1.0
C      1  0.5787740000000  0.5186890000000  0.5833180000000 1.0
C      1  0.5050480000000  0.4065340000000  0.4396070000000 1.0
C      1  0.5378310000000  0.4119510000000  0.5539600000000 1.0
C      1  0.5280410000000  0.4883960000000  0.6182020000000 1.0
C      1  0.5843260000000  0.5310400000000  0.4157500000000 1.0
C      1  0.5249320000000  0.3966300000000  0.5071330000000 1.0
C      1  0.4425580000000  0.5823120000000  0.4976490000000 1.0
C      1  0.5671560000000  0.5219140000000  0.5240120000000 1.0
C      1  0.4574420000000  0.3971750000000  0.4970980000000 1.0
C      1  0.4726860000000  0.5291030000000  0.4421450000000 1.0
C      1  0.4256160000000  0.4436510000000  0.4912340000000 1.0
C      1  0.4764070000000  0.5494210000000  0.4151110000000 1.0
C      1  0.5375620000000  0.4439870000000  0.4764730000000 1.0
C      1  0.5321980000000  0.5138880000000  0.4513740000000 1.0
C      1  0.5495470000000  0.5941750000000  0.5427060000000 1.0
C      1  0.5193850000000  0.5822160000000  0.4316200000000 1.0
C      1  0.5156030000000  0.5657100000000  0.4738350000000 1.0
C      1  0.3928350000000  0.5319060000000  0.5134320000000 1.0
C      1  0.6121610000000  0.4823030000000  0.4887990000000 1.0
C      1  0.4813850000000  0.5644660000000  0.5080750000000 1.0
C      1  0.4571390000000  0.4968190000000  0.5440580000000 1.0
C      1  0.4918270000000  0.6100320000000  0.5140570000000 1.0
C      1  0.4401920000000  0.5338930000000  0.4090300000000 1.0
C      1  0.6032430000000  0.5417000000000  0.5040160000000 1.0
C      1  0.4357840000000  0.5664330000000  0.5362440000000 1.0
C      1  0.4602570000000  0.4700440000000  0.3850040000000 1.0
C      1  0.4679500000000  0.5554960000000  0.5346000000000 1.0
C      1  0.3923010000000  0.4806450000000  0.5383900000000 1.0
C      1  0.5199790000000  0.5998000000000  0.5548560000000 1.0
C      1  0.4531310000000  0.5539400000000  0.4472270000000 1.0
C      1  0.5852540000000  0.4530360000000  0.4869790000000 1.0
C      1  0.5802650000000  0.5244570000000  0.4923380000000 1.0
C      1  0.5031880000000  0.5523260000000  0.4309060000000 1.0
C      1  0.5247910000000  0.5361750000000  0.5365870000000 1.0
C      1  0.4545780000000  0.3960430000000  0.5248220000000 1.0
C      1  0.6080270000000  0.4651300000000  0.4418150000000 1.0
C      1  0.4238480000000  0.5588650000000  0.4815370000000 1.0
C      1  0.4707170000000  0.5903850000000  0.5537660000000 1.0
C      1  0.4264490000000  0.5642040000000  0.4200420000000 1.0
C      1  0.5498360000000  0.5941300000000  0.5085850000000 1.0
C      1  0.4865070000000  0.4608550000000  0.4007840000000 1.0
C      1  0.5287760000000  0.6027860000000  0.4562770000000 1.0
C      1  0.4170170000000  0.4903510000000  0.5681910000000 1.0
C      1  0.5283980000000  0.5713150000000  0.5179720000000 1.0
C      1  0.4567130000000  0.4700980000000  0.5145300000000 1.0
C      1  0.5175720000000  0.4473580000000  0.5876910000000 1.0
C      1  0.5228210000000  0.4653230000000  0.5503010000000 1.0
C      1  0.5501280000000  0.4579650000000  0.5328300000000 1.0
C      1  0.5398030000000  0.5482480000000  0.5620790000000 1.0
C      1  0.4932540000000  0.4085280000000  0.5104690000000 1.0
C      1  0.5011400000000  0.4443210000000  0.5248690000000 1.0
C      1  0.5542990000000  0.4945800000000  0.3979400000000 1.0
C      1  0.4502710000000  0.4277970000000  0.4268190000000 1.0
C      1  0.4268790000000  0.5961630000000  0.5223590000000 1.0
C      1  0.4943750000000  0.5252380000000  0.5617250000000 1.0
C      1  0.6235300000000  0.4798910000000  0.4652030000000 1.0
C      1  0.5836930000000  0.4939690000000  0.5008860000000 1.0
C      1  0.5006090000000  0.5650410000000  0.5866110000000 1.0
C      1  0.4878330000000  0.4894360000000  0.4173580000000 1.0
C      1  0.4663490000000  0.5922530000000  0.5199810000000 1.0
C      1  0.4515930000000  0.4497770000000  0.5616130000000 1.0
C      1  0.5418250000000  0.4213150000000  0.5015780000000 1.0
C      1  0.4842700000000  0.4868860000000  0.5248930000000 1.0
C      1  0.4225430000000  0.4363560000000  0.5218630000000 1.0
C      1  0.6042970000000  0.4611110000000  0.5103440000000 1.0
C      1  0.4155750000000  0.4723270000000  0.5069820000000 1.0
C      1  0.4823210000000  0.4591130000000  0.5727960000000 1.0
C      1  0.3965810000000  0.5078120000000  0.4694230000000 1.0
C      1  0.5828920000000  0.4702150000000  0.4636740000000 1.0
C      1  0.5173040000000  0.5180190000000  0.6056100000000 1.0
C      1  0.5311750000000  0.4400910000000  0.4047200000000 1.0
C      1  0.4744580000000  0.5002730000000  0.4951980000000 1.0
C      1  0.4715860000000  0.6005150000000  0.4690770000000 1.0
C      1  0.4757930000000  0.5548330000000  0.6030280000000 1.0
C      1  0.5107640000000  0.4668380000000  0.6122680000000 1.0
C      1  0.4213390000000  0.4588770000000  0.5638670000000 1.0
C      1  0.5188500000000  0.3958610000000  0.5380830000000 1.0
C      1  0.5492670000000  0.4445660000000  0.5849840000000 1.0
C      1  0.5793550000000  0.4963320000000  0.5948300000000 1.0
C      1  0.4205030000000  0.5483760000000  0.5116980000000 1.0
C      1  0.3991470000000  0.4539230000000  0.5303840000000 1.0
C      1  0.4473280000000  0.5772120000000  0.5663670000000 1.0
C      1  0.5144180000000  0.6003880000000  0.5250340000000 1.0
C      1  0.5083800000000  0.5062500000000  0.4037180000000 1.0
C      1  0.4460870000000  0.4225180000000  0.4799050000000 1.0
C      1  0.5217720000000  0.5459410000000  0.5866770000000 1.0
C      1  0.5610670000000  0.5705980000000  0.5533500000000 1.0
C      1  0.4112230000000  0.5070220000000  0.5392810000000 1.0
C      1  0.5662720000000  0.4333980000000  0.5198180000000 1.0
C      1  0.5492810000000  0.5972960000000  0.4746260000000 1.0
C      1  0.4963610000000  0.4669670000000  0.4834450000000 1.0
C      1  0.4228040000000  0.4875920000000  0.4215490000000 1.0
C      1  0.4537340000000  0.4064090000000  0.4513960000000 1.0
C      1  0.5365040000000  0.5277390000000  0.4821300000000 1.0
C      1  0.4911500000000  0.5683080000000  0.4562710000000 1.0
C      1  0.4878590000000  0.5874240000000  0.4198630000000 1.0
C      1  0.4373430000000  0.4515730000000  0.4308050000000 1.0
C      1  0.5430370000000  0.5448390000000  0.4021800000000 1.0
C      1  0.5900920000000  0.4848120000000  0.4272440000000 1.0
C      1  0.5311680000000  0.3925120000000  0.4760360000000 1.0
C      1  0.5047090000000  0.4749930000000  0.4431340000000 1.0
C      1  0.4848850000000  0.3916800000000  0.4831700000000 1.0
C      1  0.4793750000000  0.4104950000000  0.4293940000000 1.0
C      1  0.4190170000000  0.5492280000000  0.5592710000000 1.0
C      1  0.6009320000000  0.4730200000000  0.5360080000000 1.0
C      1  0.4621420000000  0.4274200000000  0.5852070000000 1.0
C      1  0.5438220000000  0.5587150000000  0.4289540000000 1.0
C      1  0.4457850000000  0.5626980000000  0.5910880000000 1.0
C      1  0.4667970000000  0.5393520000000  0.4914470000000 1.0
C      1  0.4290070000000  0.5154530000000  0.5115060000000 1.0
C      1  0.5587680000000  0.4239740000000  0.5674100000000 1.0
C      1  0.4807230000000  0.4528970000000  0.4335160000000 1.0
C      1  0.5864200000000  0.5624260000000  0.5440040000000 1.0
C      1  0.4600170000000  0.4115710000000  0.5546340000000 1.0
C      1  0.4431070000000  0.4855250000000  0.3992630000000 1.0
C      1  0.4849420000000  0.4772600000000  0.6130600000000 1.0
C      1  0.4713220000000  0.4342060000000  0.4603340000000 1.0
C      1  0.5078150000000  0.5238250000000  0.4999910000000 1.0
C      1  0.6029850000000  0.5356490000000  0.5349060000000 1.0
C      1  0.5673410000000  0.4760270000000  0.4150480000000 1.0
C      1  0.4819900000000  0.5187830000000  0.4690260000000 1.0
C      1  0.5607350000000  0.5250750000000  0.5572680000000 1.0
C      1  0.5541420000000  0.4883090000000  0.5430020000000 1.0
C      1  0.5564690000000  0.4908550000000  0.4574550000000 1.0
C      1  0.4334810000000  0.5068270000000  0.4458240000000 1.0
C      1  0.4688910000000  0.5256030000000  0.6179810000000 1.0
C      1  0.4050310000000  0.4406880000000  0.5818340000000 1.0
C      1  0.4236160000000  0.4662700000000  0.4687250000000 1.0
C      1  0.4479300000000  0.4814470000000  0.4852990000000 1.0
C      1  0.5415870000000  0.5551890000000  0.4627030000000 1.0
C      1  0.4569730000000  0.4753610000000  0.4383330000000 1.0
C      1  0.5669220000000  0.4714600000000  0.5795380000000 1.0
C      1  0.4042770000000  0.5373980000000  0.4632650000000 1.0
C      1  0.5057130000000  0.3911360000000  0.4635940000000 1.0
C      1  0.4641490000000  0.5378090000000  0.3895450000000 1.0
C      1  0.5774940000000  0.5819900000000  0.4966900000000 1.0
C      1  0.3992560000000  0.5324820000000  0.5525180000000 1.0
C      1  0.5939560000000  0.5683250000000  0.5140210000000 1.0
C      1  0.5867950000000  0.4598940000000  0.5561050000000 1.0
C      1  0.5329230000000  0.4256920000000  0.4355270000000 1.0
C      1  0.4457260000000  0.5367590000000  0.5609850000000 1.0
C      1  0.5175250000000  0.4925410000000  0.4908710000000 1.0
C      1  0.4919170000000  0.5320340000000  0.5289150000000 1.0
C      1  0.5495430000000  0.4150550000000  0.4632160000000 1.0
C      1  0.5703180000000  0.5723510000000  0.4658830000000 1.0
C      1  0.5466640000000  0.4977830000000  0.5718750000000 1.0
C      1  0.4586130000000  0.5757400000000  0.4217170000000 1.0
C      1  0.4720990000000  0.4735780000000  0.4660160000000 1.0
C      1  0.5155610000000  0.5368070000000  0.3953120000000 1.0
C      1  0.4027230000000  0.4834350000000  0.4557860000000 1.0
C      1  0.5361120000000  0.5076490000000  0.5257570000000 1.0
C      1  0.6193740000000  0.4444110000000  0.4279260000000 1.0
C      1  0.5943770000000  0.5031080000000  0.5318540000000 1.0
C      1  0.5621670000000  0.5238010000000  0.3992980000000 1.0
C      1  0.5276730000000  0.4867430000000  0.3918990000000 1.0
C      1  0.5753730000000  0.5470860000000  0.4438370000000 1.0
C      1  0.4251350000000  0.5362880000000  0.4394240000000 1.0
C      1  0.5168050000000  0.4345050000000  0.5494950000000 1.0
C      1  0.5203360000000  0.4544240000000  0.5021590000000 1.0
C      1  0.4619350000000  0.5679410000000  0.4736780000000 1.0
C      1  0.4003060000000  0.5017800000000  0.4994070000000 1.0
C      1  0.4170800000000  0.5733610000000  0.4514210000000 1.0
C      1  0.5348770000000  0.4648680000000  0.4533910000000 1.0
C      1  0.4619610000000  0.5193080000000  0.5190040000000 1.0
C      1  0.5158760000000  0.4813450000000  0.5229370000000 1.0
C      1  0.5000490000000  0.6003890000000  0.4614080000000 1.0
C      1  0.5497610000000  0.4540060000000  0.4270430000000 1.0
C      1  0.4870500000000  0.5055040000000  0.6146170000000 1.0
C      1  0.4931060000000  0.4269070000000  0.5711450000000 1.0
C      1  0.5062420000000  0.4999220000000  0.4615450000000 1.0
C      1  0.4716360000000  0.4431550000000  0.5158970000000 1.0
C      1  0.5143640000000  0.5064480000000  0.5758440000000 1.0
C      1  0.5450770000000  0.5439110000000  0.5104210000000 1.0
C      1  0.5714840000000  0.4258440000000  0.4868580000000 1.0
C      1  0.4333350000000  0.4739560000000  0.5358450000000 1.0
C      1  0.4491330000000  0.4343930000000  0.5344170000000 1.0
C      1  0.4087650000000  0.4622680000000  0.4318340000000 1.0
C      1  0.4894600000000  0.4060020000000  0.5445350000000 1.0
C      1  0.5904700000000  0.5109970000000  0.4359200000000 1.0
C      1  0.5079370000000  0.4768010000000  0.5736730000000 1.0
C      1  0.5190000000000  0.5262140000000  0.4278830000000 1.0
C      1  0.5777280000000  0.4342300000000  0.5491140000000 1.0
END
