TITL C-2847950-6905-83 -0.00347550624224715 125000 -799.358882890321 0 0 149 (C1) n - 1
REM
REM in /home/bkarasulu/work/CARBON/AIRSS/Generating-Clusters/AIREBO/with-SteepDescent/Only-C1/SD-CG-opt/Try1-1.4A-POS3A/HFTN-CG
REM
REM
REM
REM
REM
REM ./C.cell (11c1c37f851c82e70ff6c80c92926a4b)
REM
REM compiler GCC version 9.2.1 20190827 (Red Hat 9.2.1-1)
REM options -cpp -mtune=generic -march=x86-64 -g -O0 -fpre-include=/usr/include/finclude/math-vector-fortran.h
REM seed 1208900620 1959621863 -1759670896 -469170734 1597892318 -1856338821 -1054929778 228582568 1845786629 173824308 -1019222172 643634229 -1539951985 -126636324 -483524811 1009954185 818090976 220342329 1990990156 708925404 991066123 -672421100 -951870267 102193234 1555630744 -1977996398 109159486 -1472335800 -572567721 -141639180 1933803199 -1116637424 1338706381
REM
CELL 1.54180   50.00000   50.00000   50.00000   90.00000   90.00000   90.00000
LATT -1
SFAC C  
C      1  0.4918550000000  0.5712150000000  0.4316370000000 1.0
C      1  0.5192220000000  0.5287570000000  0.5257060000000 1.0
C      1  0.4660690000000  0.4279650000000  0.4579120000000 1.0
C      1  0.4348650000000  0.5493080000000  0.4499690000000 1.0
C      1  0.4740430000000  0.6067510000000  0.5307950000000 1.0
C      1  0.4553350000000  0.4978260000000  0.4068820000000 1.0
C      1  0.4642770000000  0.5641240000000  0.4476250000000 1.0
C      1  0.4288810000000  0.5031950000000  0.4817920000000 1.0
C      1  0.4632990000000  0.4346990000000  0.4911300000000 1.0
C      1  0.4935980000000  0.4820740000000  0.5262670000000 1.0
C      1  0.5353190000000  0.5908250000000  0.4698360000000 1.0
C      1  0.4988600000000  0.5313580000000  0.5779880000000 1.0
C      1  0.5468840000000  0.4345690000000  0.5501430000000 1.0
C      1  0.4915420000000  0.4179000000000  0.5431270000000 1.0
C      1  0.5202150000000  0.5420180000000  0.4946710000000 1.0
C      1  0.5212920000000  0.5982600000000  0.5432050000000 1.0
C      1  0.4578330000000  0.4663040000000  0.5700200000000 1.0
C      1  0.5369310000000  0.5060140000000  0.4925890000000 1.0
C      1  0.5831060000000  0.4804500000000  0.4553840000000 1.0
C      1  0.4743050000000  0.4407060000000  0.5828130000000 1.0
C      1  0.5242060000000  0.5234160000000  0.5971270000000 1.0
C      1  0.5495410000000  0.5107650000000  0.5846480000000 1.0
C      1  0.4420180000000  0.3881450000000  0.4719920000000 1.0
C      1  0.4761420000000  0.4041020000000  0.4985780000000 1.0
C      1  0.5762350000000  0.5569060000000  0.5603800000000 1.0
C      1  0.5020120000000  0.4175210000000  0.4810610000000 1.0
C      1  0.4256260000000  0.5450240000000  0.4824150000000 1.0
C      1  0.4532060000000  0.4448200000000  0.5225040000000 1.0
C      1  0.5836770000000  0.5602480000000  0.5332060000000 1.0
C      1  0.5508970000000  0.4567370000000  0.4632920000000 1.0
C      1  0.4544460000000  0.4672870000000  0.4026520000000 1.0
C      1  0.4371450000000  0.5440310000000  0.5517730000000 1.0
C      1  0.5468290000000  0.4844480000000  0.5771460000000 1.0
C      1  0.4297670000000  0.4591100000000  0.5537450000000 1.0
C      1  0.4798230000000  0.5791790000000  0.5698940000000 1.0
C      1  0.5477800000000  0.5687770000000  0.5181040000000 1.0
C      1  0.4918360000000  0.4483260000000  0.5300830000000 1.0
C      1  0.5195050000000  0.4199630000000  0.5593140000000 1.0
C      1  0.4993490000000  0.5954390000000  0.5176120000000 1.0
C      1  0.5151790000000  0.5505910000000  0.4179380000000 1.0
C      1  0.4609310000000  0.5599950000000  0.5240880000000 1.0
C      1  0.4866800000000  0.4579030000000  0.4081620000000 1.0
C      1  0.5709130000000  0.5256800000000  0.5687640000000 1.0
C      1  0.4869570000000  0.5396120000000  0.4082240000000 1.0
C      1  0.4938170000000  0.3997690000000  0.4544540000000 1.0
C      1  0.4876130000000  0.3960890000000  0.5256370000000 1.0
C      1  0.4749430000000  0.5506240000000  0.5837280000000 1.0
C      1  0.5321610000000  0.5537930000000  0.5406250000000 1.0
C      1  0.5490360000000  0.5621020000000  0.4560410000000 1.0
C      1  0.5804410000000  0.5707480000000  0.4462820000000 1.0
C      1  0.5751750000000  0.4370880000000  0.4779560000000 1.0
C      1  0.4278370000000  0.5667050000000  0.5281340000000 1.0
C      1  0.5435850000000  0.5344470000000  0.4751020000000 1.0
C      1  0.5919380000000  0.5633670000000  0.5032660000000 1.0
C      1  0.4466670000000  0.5350440000000  0.5801020000000 1.0
C      1  0.5408520000000  0.5458940000000  0.4272880000000 1.0
C      1  0.4746920000000  0.4720910000000  0.4569090000000 1.0
C      1  0.5388060000000  0.5953160000000  0.5172490000000 1.0
C      1  0.4230540000000  0.5176200000000  0.4515570000000 1.0
C      1  0.4440010000000  0.4002380000000  0.4972060000000 1.0
C      1  0.4428560000000  0.5694830000000  0.4968940000000 1.0
C      1  0.4644880000000  0.5838780000000  0.4749650000000 1.0
C      1  0.4050260000000  0.5043400000000  0.5315210000000 1.0
C      1  0.4165890000000  0.4792590000000  0.5026300000000 1.0
C      1  0.5122950000000  0.5769450000000  0.5664190000000 1.0
C      1  0.4396290000000  0.5105280000000  0.5995580000000 1.0
C      1  0.5093790000000  0.4967010000000  0.4749760000000 1.0
C      1  0.4724600000000  0.5446560000000  0.5513320000000 1.0
C      1  0.5708800000000  0.4427220000000  0.5112830000000 1.0
C      1  0.5266080000000  0.4279900000000  0.5267780000000 1.0
C      1  0.4492850000000  0.4928290000000  0.5366100000000 1.0
C      1  0.5244770000000  0.4564100000000  0.5086180000000 1.0
C      1  0.4944600000000  0.4473030000000  0.4961980000000 1.0
C      1  0.5910670000000  0.4868230000000  0.5294730000000 1.0
C      1  0.4624350000000  0.5135120000000  0.4566650000000 1.0
C      1  0.3949200000000  0.4827590000000  0.4766480000000 1.0
C      1  0.5736940000000  0.5094120000000  0.4541820000000 1.0
C      1  0.4758150000000  0.4896790000000  0.5542550000000 1.0
C      1  0.5697320000000  0.4472450000000  0.5418740000000 1.0
C      1  0.4292600000000  0.4278210000000  0.5478270000000 1.0
C      1  0.5759960000000  0.5385180000000  0.4845920000000 1.0
C      1  0.5012150000000  0.5131920000000  0.4203500000000 1.0
C      1  0.4849140000000  0.4731770000000  0.5894500000000 1.0
C      1  0.4866320000000  0.4749460000000  0.4846750000000 1.0
C      1  0.5475660000000  0.4963280000000  0.4639030000000 1.0
C      1  0.4981750000000  0.5458910000000  0.4616070000000 1.0
C      1  0.5648020000000  0.5237660000000  0.4260510000000 1.0
C      1  0.4693550000000  0.4995280000000  0.4959190000000 1.0
C      1  0.5067470000000  0.4409560000000  0.5808640000000 1.0
C      1  0.5471730000000  0.5576940000000  0.5657740000000 1.0
C      1  0.5363740000000  0.4666520000000  0.4127080000000 1.0
C      1  0.5823790000000  0.4696400000000  0.4840990000000 1.0
C      1  0.5106670000000  0.4169970000000  0.4306960000000 1.0
C      1  0.4620720000000  0.3979740000000  0.4540940000000 1.0
C      1  0.5367050000000  0.4227020000000  0.4479860000000 1.0
C      1  0.4957100000000  0.5209670000000  0.4945030000000 1.0
C      1  0.5971920000000  0.5139150000000  0.4918860000000 1.0
C      1  0.5949130000000  0.4892110000000  0.5026800000000 1.0
C      1  0.4150970000000  0.5217200000000  0.5036380000000 1.0
C      1  0.5632170000000  0.5392430000000  0.5160940000000 1.0
C      1  0.4874570000000  0.4372610000000  0.4422700000000 1.0
C      1  0.4134800000000  0.4751320000000  0.5362530000000 1.0
C      1  0.4563740000000  0.5336310000000  0.4796940000000 1.0
C      1  0.4897020000000  0.5148440000000  0.5265640000000 1.0
C      1  0.4612690000000  0.5278950000000  0.5128520000000 1.0
C      1  0.5452660000000  0.4233970000000  0.5000100000000 1.0
C      1  0.5304020000000  0.5112410000000  0.4103510000000 1.0
C      1  0.5182850000000  0.6036840000000  0.4913460000000 1.0
C      1  0.5165520000000  0.4444470000000  0.4114710000000 1.0
C      1  0.5580170000000  0.4928870000000  0.4134390000000 1.0
C      1  0.4852030000000  0.4912000000000  0.4082810000000 1.0
C      1  0.4648120000000  0.5856380000000  0.5460820000000 1.0
C      1  0.5238150000000  0.4745830000000  0.4529870000000 1.0
C      1  0.5277360000000  0.5562630000000  0.5888870000000 1.0
C      1  0.4986410000000  0.5595400000000  0.5405920000000 1.0
C      1  0.5663620000000  0.4776270000000  0.5501270000000 1.0
C      1  0.5088300000000  0.4896900000000  0.5624040000000 1.0
C      1  0.5320780000000  0.4195890000000  0.4758710000000 1.0
C      1  0.4446320000000  0.4845650000000  0.4581040000000 1.0
C      1  0.5710880000000  0.4706870000000  0.4317990000000 1.0
C      1  0.5934920000000  0.5067610000000  0.5535380000000 1.0
C      1  0.4434680000000  0.4600270000000  0.4801130000000 1.0
C      1  0.5209470000000  0.5180180000000  0.5576660000000 1.0
C      1  0.4185540000000  0.4457470000000  0.4971980000000 1.0
C      1  0.5535400000000  0.4441830000000  0.4319330000000 1.0
C      1  0.5823510000000  0.5405990000000  0.4512510000000 1.0
C      1  0.4349830000000  0.5204390000000  0.5311900000000 1.0
C      1  0.4947090000000  0.5162690000000  0.4513560000000 1.0
C      1  0.4055690000000  0.4903990000000  0.4520820000000 1.0
C      1  0.5105200000000  0.4583470000000  0.5532250000000 1.0
C      1  0.4612900000000  0.5457130000000  0.4201020000000 1.0
C      1  0.5656290000000  0.5168550000000  0.5364810000000 1.0
C      1  0.4298880000000  0.4214330000000  0.5144250000000 1.0
C      1  0.5255470000000  0.4884770000000  0.5163060000000 1.0
C      1  0.5408150000000  0.4976610000000  0.5399630000000 1.0
C      1  0.4219690000000  0.4705890000000  0.4369210000000 1.0
C      1  0.5507880000000  0.4629810000000  0.4947710000000 1.0
C      1  0.4314500000000  0.4568230000000  0.4148450000000 1.0
C      1  0.5160100000000  0.5695860000000  0.4529510000000 1.0
C      1  0.4787650000000  0.5555290000000  0.4837620000000 1.0
C      1  0.4963260000000  0.5039700000000  0.5987750000000 1.0
C      1  0.5188820000000  0.4715590000000  0.5893700000000 1.0
C      1  0.4632250000000  0.4312650000000  0.5520500000000 1.0
C      1  0.4473200000000  0.5188100000000  0.4274780000000 1.0
C      1  0.4981310000000  0.4670790000000  0.4385380000000 1.0
C      1  0.4671340000000  0.5077910000000  0.5816920000000 1.0
C      1  0.4975290000000  0.5629680000000  0.5082530000000 1.0
C      1  0.4499900000000  0.4760040000000  0.5094110000000 1.0
C      1  0.4858730000000  0.6037310000000  0.4809640000000 1.0
END
