TITL C-2847952-8118-672 -0.000628611121009276 125000 -403.271214603353 0 0 75 (C1) n - 1
REM
REM in /home/bkarasulu/work/CARBON/AIRSS/Generating-Clusters/AIREBO/with-SteepDescent/Only-C1/SD-CG-opt/Try1-1.4A-POS3A/HFTN-CG
REM
REM
REM
REM
REM
REM ./C.cell (11c1c37f851c82e70ff6c80c92926a4b)
REM
REM compiler GCC version 9.2.1 20190827 (Red Hat 9.2.1-1)
REM options -cpp -mtune=generic -march=x86-64 -g -O0 -fpre-include=/usr/include/finclude/math-vector-fortran.h
REM seed 185695897 -1660928272 1240999665 -1887423913 289839858 618998789 -852445109 226790165 -937812261 -179024051 -945693750 -1231644016 -447841815 178855230 -1684298080 1219157063 352145791 1372960352 -12132595 -279733904 -605311816 -225896671 -1202368277 110907251 937750500 1387477396 -728572168 -1482242482 1115892107 2145212504 857939714 1015214463 650097805
REM
CELL 1.54180   50.00000   50.00000   50.00000   90.00000   90.00000   90.00000
LATT -1
SFAC C  
C      1  0.5673820000000  0.5367940000000  0.4991530000000 1.0
C      1  0.5350740000000  0.4970030000000  0.5069400000000 1.0
C      1  0.5642740000000  0.5277820000000  0.5483890000000 1.0
C      1  0.4453180000000  0.5435980000000  0.5241900000000 1.0
C      1  0.5769260000000  0.4833150000000  0.5143290000000 1.0
C      1  0.5086750000000  0.5907750000000  0.5008400000000 1.0
C      1  0.5539850000000  0.4429350000000  0.4770640000000 1.0
C      1  0.4811750000000  0.4452990000000  0.5673310000000 1.0
C      1  0.4922240000000  0.4669130000000  0.5262660000000 1.0
C      1  0.4624950000000  0.4705440000000  0.5134970000000 1.0
C      1  0.5156510000000  0.4527330000000  0.4811780000000 1.0
C      1  0.4155260000000  0.5080990000000  0.4915630000000 1.0
C      1  0.4784610000000  0.5656680000000  0.4636150000000 1.0
C      1  0.5405420000000  0.4852790000000  0.4543020000000 1.0
C      1  0.5072560000000  0.4919730000000  0.4567480000000 1.0
C      1  0.5253410000000  0.5074350000000  0.4247610000000 1.0
C      1  0.5483750000000  0.4827190000000  0.5545540000000 1.0
C      1  0.4989510000000  0.4885520000000  0.5774020000000 1.0
C      1  0.4760230000000  0.4729610000000  0.5721690000000 1.0
C      1  0.5677920000000  0.4560580000000  0.5052320000000 1.0
C      1  0.5074990000000  0.5511890000000  0.5635460000000 1.0
C      1  0.4506300000000  0.4436250000000  0.4993090000000 1.0
C      1  0.5247020000000  0.5459170000000  0.5254390000000 1.0
C      1  0.5029030000000  0.6143390000000  0.5214750000000 1.0
C      1  0.4768200000000  0.5459040000000  0.4445120000000 1.0
C      1  0.4505030000000  0.4496920000000  0.4372620000000 1.0
C      1  0.5390260000000  0.4728110000000  0.4833750000000 1.0
C      1  0.5242180000000  0.5010470000000  0.5646850000000 1.0
C      1  0.4473020000000  0.4919220000000  0.5303330000000 1.0
C      1  0.4958190000000  0.5280620000000  0.5273380000000 1.0
C      1  0.5133890000000  0.4775080000000  0.4265850000000 1.0
C      1  0.4811870000000  0.4874990000000  0.4945230000000 1.0
C      1  0.5278140000000  0.5654000000000  0.5007360000000 1.0
C      1  0.5261370000000  0.5496940000000  0.4643310000000 1.0
C      1  0.4594280000000  0.5849570000000  0.5029470000000 1.0
C      1  0.4442010000000  0.4746390000000  0.4595400000000 1.0
C      1  0.5173570000000  0.4237070000000  0.5303460000000 1.0
C      1  0.4924990000000  0.4695710000000  0.4736170000000 1.0
C      1  0.4522970000000  0.4839130000000  0.5603890000000 1.0
C      1  0.4355330000000  0.5112150000000  0.4256230000000 1.0
C      1  0.5350150000000  0.5151800000000  0.5356960000000 1.0
C      1  0.4260170000000  0.4859040000000  0.5052630000000 1.0
C      1  0.4843010000000  0.5855940000000  0.5218680000000 1.0
C      1  0.4573710000000  0.5625600000000  0.5403600000000 1.0
C      1  0.4776580000000  0.5197560000000  0.4927040000000 1.0
C      1  0.5248610000000  0.5122930000000  0.4783170000000 1.0
C      1  0.5046480000000  0.4151650000000  0.4734650000000 1.0
C      1  0.4765730000000  0.4213930000000  0.5193260000000 1.0
C      1  0.5414250000000  0.4703440000000  0.5270840000000 1.0
C      1  0.5449270000000  0.4379160000000  0.5207950000000 1.0
C      1  0.4795400000000  0.4298870000000  0.4866520000000 1.0
C      1  0.4514480000000  0.5389790000000  0.4921590000000 1.0
C      1  0.5227960000000  0.5327180000000  0.5694910000000 1.0
C      1  0.5024710000000  0.4979440000000  0.5165630000000 1.0
C      1  0.4928190000000  0.4393620000000  0.5394380000000 1.0
C      1  0.4336040000000  0.5212660000000  0.4759220000000 1.0
C      1  0.4809230000000  0.5128570000000  0.4514390000000 1.0
C      1  0.5746210000000  0.4869730000000  0.5418950000000 1.0
C      1  0.5278230000000  0.5241910000000  0.4462430000000 1.0
C      1  0.5220210000000  0.4513610000000  0.4296780000000 1.0
C      1  0.5236540000000  0.4274660000000  0.4979320000000 1.0
C      1  0.5054620000000  0.5722460000000  0.4738110000000 1.0
C      1  0.4330960000000  0.4655260000000  0.4870910000000 1.0
C      1  0.4634170000000  0.5174840000000  0.5235260000000 1.0
C      1  0.4896500000000  0.5593840000000  0.5391430000000 1.0
C      1  0.4462150000000  0.4179640000000  0.5211750000000 1.0
C      1  0.5656800000000  0.5064400000000  0.4954880000000 1.0
C      1  0.4484310000000  0.5046260000000  0.4529180000000 1.0
C      1  0.5521570000000  0.5536620000000  0.4817770000000 1.0
C      1  0.5665020000000  0.4957580000000  0.4655520000000 1.0
C      1  0.4994420000000  0.5307820000000  0.4736160000000 1.0
C      1  0.4694890000000  0.4523290000000  0.4633380000000 1.0
C      1  0.5277050000000  0.4342430000000  0.4569100000000 1.0
C      1  0.5586910000000  0.5450600000000  0.5248980000000 1.0
C      1  0.4588330000000  0.5663410000000  0.4830370000000 1.0
END
