TITL C-2848506-1665-479 8356.1287744414 125000 -795.487309295447 0 0 148 (C1) n - 1
REM
REM in /home/bkarasulu/work/CARBON/AIRSS/Generating-Clusters/AIREBO/with-SteepDescent/Only-C1/SD-CG-opt/Try1-1.4A-POS3A/HFTN-CG
REM
REM
REM
REM
REM
REM ./C.cell (11c1c37f851c82e70ff6c80c92926a4b)
REM
REM compiler GCC version 9.2.1 20190827 (Red Hat 9.2.1-1)
REM options -cpp -mtune=generic -march=x86-64 -g -O0 -fpre-include=/usr/include/finclude/math-vector-fortran.h
REM seed -28110173 751626923 -786871026 612912795 -1359712858 -1164906352 372760385 -1915445121 -1838830075 -1153598450 195464629 268787548 940488500 354659370 2026302292 -1171234038 -2106096712 -783645121 1963358408 968504377 1313065599 1749035108 310490230 1740773663 259312816 325353299 565082089 -1198512250 1311429513 1274728026 -216326558 -94538239 -913761530
REM
CELL 1.54180   50.00000   50.00000   50.00000   90.00000   90.00000   90.00000
LATT -1
SFAC C  
C      1  0.5453440000000  0.4908800000000  0.4839680000000 1.0
C      1  0.5809300000000  0.5530980000000  0.4705800000000 1.0
C      1  0.5246580000000  0.4959290000000  0.5104840000000 1.0
C      1  0.4703220000000  0.5511600000000  0.4950130000000 1.0
C      1  0.4785650000000  0.4384960000000  0.5119580000000 1.0
C      1  0.4914440000000  0.5550010000000  0.5798250000000 1.0
C      1  0.4403810000000  0.4741320000000  0.4731710000000 1.0
C      1  0.5093720000000  0.4930500000000  0.6256500000000 1.0
C      1  0.4691440000000  0.5717190000000  0.4432130000000 1.0
C      1  0.5503880000000  0.5237870000000  0.4380750000000 1.0
C      1  0.5913850000000  0.4536750000000  0.4925890000000 1.0
C      1  0.5439520000000  0.4812510000000  0.4015290000000 1.0
C      1  0.5646360000000  0.5680560000000  0.4527570000000 1.0
C      1  0.5321990000000  0.5605980000000  0.4759510000000 1.0
C      1  0.5176700000000  0.5349540000000  0.5572470000000 1.0
C      1  0.5342830000000  0.4605940000000  0.4947740000000 1.0
C      1  0.4695270000000  0.6016510000000  0.4696080000000 1.0
C      1  0.5910950000000  0.4999140000000  0.4757010000000 1.0
C      1  0.4776640000000  0.5473340000000  0.4653310000000 1.0
C      1  0.5493370000000  0.5229110000000  0.4947450000000 1.0
C      1  0.5988240000000  0.4706390000000  0.5459790000000 1.0
C      1  0.5197600000000  0.5998070000000  0.5038040000000 1.0
C      1  0.4623310000000  0.5261450000000  0.5125060000000 1.0
C      1  0.5205120000000  0.5835330000000  0.5329890000000 1.0
C      1  0.4370580000000  0.4549680000000  0.5784340000000 1.0
C      1  0.4078760000000  0.4825460000000  0.4677370000000 1.0
C      1  0.4946260000000  0.4591890000000  0.3987900000000 1.0
C      1  0.5332380000000  0.4159320000000  0.4473880000000 1.0
C      1  0.5096620000000  0.4661530000000  0.4510240000000 1.0
C      1  0.5515360000000  0.4385490000000  0.4450650000000 1.0
C      1  0.5211650000000  0.5026160000000  0.5603880000000 1.0
C      1  0.5682720000000  0.5124720000000  0.5429530000000 1.0
C      1  0.5120300000000  0.3942850000000  0.4975700000000 1.0
C      1  0.5498430000000  0.4948350000000  0.5871410000000 1.0
C      1  0.4949290000000  0.5729030000000  0.5253100000000 1.0
C      1  0.4860350000000  0.4711940000000  0.4862930000000 1.0
C      1  0.4445850000000  0.5807460000000  0.4653400000000 1.0
C      1  0.4730600000000  0.3845460000000  0.4570130000000 1.0
C      1  0.5796250000000  0.5354830000000  0.5648880000000 1.0
C      1  0.4603830000000  0.5073220000000  0.6125950000000 1.0
C      1  0.5610490000000  0.4290910000000  0.5231700000000 1.0
C      1  0.4589770000000  0.4974830000000  0.4568720000000 1.0
C      1  0.5013050000000  0.5663230000000  0.4751440000000 1.0
C      1  0.4911560000000  0.5917910000000  0.4901850000000 1.0
C      1  0.5708320000000  0.5243210000000  0.4723690000000 1.0
C      1  0.4319630000000  0.5417540000000  0.5625250000000 1.0
C      1  0.5391410000000  0.4637190000000  0.4370000000000 1.0
C      1  0.5219090000000  0.4653710000000  0.3952140000000 1.0
C      1  0.5501860000000  0.4859740000000  0.5543130000000 1.0
C      1  0.5610140000000  0.4358030000000  0.5505330000000 1.0
C      1  0.5507150000000  0.5362560000000  0.5261460000000 1.0
C      1  0.4778910000000  0.6044620000000  0.4404060000000 1.0
C      1  0.4673590000000  0.5022790000000  0.4014620000000 1.0
C      1  0.4228820000000  0.5281010000000  0.4635850000000 1.0
C      1  0.5686670000000  0.5700090000000  0.5147150000000 1.0
C      1  0.5730680000000  0.4753000000000  0.4753670000000 1.0
C      1  0.5487790000000  0.5775450000000  0.5693680000000 1.0
C      1  0.4213890000000  0.5571900000000  0.4585560000000 1.0
C      1  0.5677760000000  0.4421960000000  0.4705450000000 1.0
C      1  0.4717930000000  0.4150780000000  0.4719820000000 1.0
C      1  0.4608550000000  0.4441850000000  0.5382100000000 1.0
C      1  0.4931180000000  0.5071850000000  0.6038370000000 1.0
C      1  0.5107950000000  0.5302560000000  0.5902270000000 1.0
C      1  0.5449480000000  0.5769460000000  0.5029020000000 1.0
C      1  0.4373140000000  0.5137350000000  0.4414750000000 1.0
C      1  0.5620740000000  0.4558150000000  0.5083160000000 1.0
C      1  0.4412410000000  0.5358100000000  0.4183720000000 1.0
C      1  0.4560440000000  0.5375840000000  0.5411220000000 1.0
C      1  0.5648040000000  0.5383810000000  0.5889150000000 1.0
C      1  0.4242700000000  0.4637000000000  0.5545390000000 1.0
C      1  0.5234770000000  0.5199940000000  0.4543750000000 1.0
C      1  0.5785600000000  0.5059220000000  0.4446650000000 1.0
C      1  0.4330890000000  0.5067630000000  0.5970080000000 1.0
C      1  0.5238480000000  0.4657040000000  0.5460730000000 1.0
C      1  0.5237460000000  0.4444680000000  0.4731330000000 1.0
C      1  0.4250680000000  0.4642480000000  0.4444490000000 1.0
C      1  0.5301540000000  0.4904730000000  0.4571260000000 1.0
C      1  0.3989750000000  0.5181520000000  0.5051370000000 1.0
C      1  0.5001840000000  0.5286080000000  0.4364490000000 1.0
C      1  0.5368360000000  0.5605900000000  0.5457790000000 1.0
C      1  0.4252310000000  0.4969550000000  0.5512460000000 1.0
C      1  0.5427290000000  0.5210310000000  0.5926380000000 1.0
C      1  0.5839970000000  0.5480340000000  0.5015980000000 1.0
C      1  0.6026060000000  0.5027050000000  0.5044300000000 1.0
C      1  0.4924410000000  0.4397690000000  0.4749020000000 1.0
C      1  0.5284580000000  0.3994140000000  0.5464720000000 1.0
C      1  0.4424080000000  0.4959700000000  0.4153740000000 1.0
C      1  0.4973670000000  0.5617390000000  0.4293390000000 1.0
C      1  0.5213400000000  0.5223030000000  0.5258950000000 1.0
C      1  0.5107210000000  0.3973450000000  0.5254450000000 1.0
C      1  0.4211410000000  0.4716240000000  0.5214760000000 1.0
C      1  0.4870340000000  0.5332480000000  0.5429830000000 1.0
C      1  0.5568910000000  0.4954710000000  0.4203950000000 1.0
C      1  0.4578630000000  0.4414250000000  0.4564170000000 1.0
C      1  0.4788330000000  0.4659800000000  0.5564050000000 1.0
C      1  0.4704590000000  0.5857940000000  0.5147030000000 1.0
C      1  0.4334960000000  0.4933320000000  0.5003750000000 1.0
C      1  0.4549920000000  0.4846150000000  0.5403030000000 1.0
C      1  0.4750970000000  0.5057740000000  0.5557730000000 1.0
C      1  0.4600380000000  0.4752000000000  0.5079320000000 1.0
C      1  0.4185470000000  0.5727350000000  0.4858530000000 1.0
C      1  0.5058770000000  0.4498280000000  0.5701850000000 1.0
C      1  0.5475880000000  0.5889060000000  0.4650890000000 1.0
C      1  0.4382950000000  0.4681260000000  0.4197240000000 1.0
C      1  0.4765980000000  0.4696710000000  0.4536360000000 1.0
C      1  0.4853870000000  0.4027630000000  0.4365120000000 1.0
C      1  0.5032880000000  0.4213180000000  0.4481290000000 1.0
C      1  0.5520990000000  0.5531300000000  0.4322260000000 1.0
C      1  0.5873200000000  0.5232420000000  0.5168690000000 1.0
C      1  0.5762940000000  0.5536270000000  0.5404310000000 1.0
C      1  0.6097060000000  0.4812860000000  0.5223220000000 1.0
C      1  0.5070340000000  0.4568260000000  0.5088550000000 1.0
C      1  0.4613300000000  0.4196720000000  0.5573130000000 1.0
C      1  0.4617010000000  0.4520050000000  0.4038220000000 1.0
C      1  0.4859120000000  0.4137860000000  0.5345540000000 1.0
C      1  0.4368750000000  0.5226360000000  0.4941000000000 1.0
C      1  0.4846840000000  0.5055670000000  0.5142540000000 1.0
C      1  0.5733650000000  0.4611990000000  0.5560420000000 1.0
C      1  0.4772260000000  0.4769520000000  0.4204020000000 1.0
C      1  0.4481510000000  0.4781730000000  0.5940270000000 1.0
C      1  0.4248310000000  0.5171030000000  0.5729000000000 1.0
C      1  0.4987910000000  0.4877480000000  0.5395530000000 1.0
C      1  0.4495740000000  0.5592700000000  0.4204380000000 1.0
C      1  0.4883150000000  0.3886930000000  0.4845710000000 1.0
C      1  0.4026340000000  0.4997180000000  0.5264380000000 1.0
C      1  0.4467460000000  0.5686410000000  0.5476320000000 1.0
C      1  0.5176450000000  0.5314910000000  0.4858510000000 1.0
C      1  0.4283410000000  0.4232730000000  0.4953570000000 1.0
C      1  0.4765160000000  0.5196660000000  0.3832340000000 1.0
C      1  0.4986920000000  0.5427740000000  0.5117730000000 1.0
C      1  0.4465430000000  0.4276050000000  0.5790560000000 1.0
C      1  0.5082200000000  0.5401300000000  0.4054360000000 1.0
C      1  0.4358040000000  0.4452210000000  0.5184680000000 1.0
C      1  0.4030410000000  0.5083240000000  0.4783200000000 1.0
C      1  0.5308730000000  0.4121830000000  0.4810990000000 1.0
C      1  0.5115320000000  0.4363020000000  0.5342150000000 1.0
C      1  0.4757350000000  0.5653770000000  0.5639460000000 1.0
C      1  0.4169070000000  0.5472030000000  0.5065160000000 1.0
C      1  0.4831040000000  0.5160850000000  0.4615510000000 1.0
C      1  0.5297780000000  0.5617090000000  0.4182480000000 1.0
C      1  0.4452230000000  0.5645350000000  0.5138920000000 1.0
C      1  0.5402240000000  0.6097800000000  0.4806620000000 1.0
C      1  0.5520010000000  0.4825450000000  0.5222250000000 1.0
C      1  0.4766410000000  0.4877620000000  0.5827520000000 1.0
C      1  0.5598260000000  0.4187520000000  0.4938590000000 1.0
C      1  0.5013940000000  0.5015670000000  0.4863210000000 1.0
C      1  0.5319050000000  0.4295770000000  0.5605970000000 1.0
C      1  0.4538440000000  0.4471650000000  0.4896980000000 1.0
END
