TITL C-2848495-5024-393 -0.00204692553250723 125000 -292.595361586329 0 0 53 (C1) n - 1
REM
REM in /home/bkarasulu/work/CARBON/AIRSS/Generating-Clusters/AIREBO/with-SteepDescent/Only-C1/SD-CG-opt/Try1-1.4A-POS3A/HFTN-CG
REM
REM
REM
REM
REM
REM ./C.cell (11c1c37f851c82e70ff6c80c92926a4b)
REM
REM compiler GCC version 9.2.1 20190827 (Red Hat 9.2.1-1)
REM options -cpp -mtune=generic -march=x86-64 -g -O0 -fpre-include=/usr/include/finclude/math-vector-fortran.h
REM seed 1996254126 2012428973 223699513 -408589460 -285322216 1186230160 1041487021 306748063 1012385593 1035608731 1439343568 153654097 777274466 -498486414 -259166764 167530240 856645453 1743961923 -1695269976 -6884432 956182972 540753393 439218847 -569082853 -601554041 304716170 -685880094 -203256256 1822969941 533010118 1173221102 1033701086 2065536959
REM
CELL 1.54180   50.00000   50.00000   50.00000   90.00000   90.00000   90.00000
LATT -1
SFAC C  
C      1  0.4781060000000  0.5371530000000  0.4668530000000 1.0
C      1  0.5250560000000  0.5417520000000  0.5238110000000 1.0
C      1  0.5037740000000  0.4462880000000  0.4851860000000 1.0
C      1  0.4635110000000  0.5444620000000  0.5035370000000 1.0
C      1  0.5479280000000  0.4996680000000  0.4587310000000 1.0
C      1  0.5552020000000  0.5389620000000  0.5305530000000 1.0
C      1  0.4772760000000  0.5703280000000  0.5086320000000 1.0
C      1  0.5727270000000  0.4946290000000  0.5210030000000 1.0
C      1  0.4882930000000  0.4643550000000  0.4616850000000 1.0
C      1  0.5129550000000  0.4586580000000  0.5220460000000 1.0
C      1  0.4918550000000  0.4387570000000  0.5225640000000 1.0
C      1  0.5179560000000  0.4540900000000  0.4486150000000 1.0
C      1  0.5522400000000  0.4812960000000  0.5074100000000 1.0
C      1  0.4529340000000  0.5241810000000  0.4567860000000 1.0
C      1  0.5298830000000  0.5087570000000  0.5836600000000 1.0
C      1  0.4515570000000  0.4546710000000  0.4749460000000 1.0
C      1  0.5097720000000  0.5681680000000  0.5119900000000 1.0
C      1  0.4387350000000  0.5013010000000  0.4979980000000 1.0
C      1  0.4941500000000  0.5045010000000  0.4504940000000 1.0
C      1  0.5510510000000  0.4521640000000  0.4551600000000 1.0
C      1  0.4636060000000  0.4500720000000  0.5283380000000 1.0
C      1  0.4993320000000  0.5383500000000  0.4465110000000 1.0
C      1  0.5242940000000  0.4726710000000  0.4763780000000 1.0
C      1  0.5115280000000  0.5287540000000  0.5897040000000 1.0
C      1  0.4882610000000  0.5235340000000  0.4940030000000 1.0
C      1  0.4298250000000  0.5108060000000  0.5233890000000 1.0
C      1  0.5253710000000  0.4912100000000  0.5571900000000 1.0
C      1  0.4727590000000  0.5192650000000  0.5626050000000 1.0
C      1  0.5044680000000  0.5180110000000  0.4210440000000 1.0
C      1  0.4869400000000  0.4787780000000  0.5133040000000 1.0
C      1  0.5058140000000  0.4956100000000  0.5352440000000 1.0
C      1  0.4558770000000  0.5012350000000  0.4396630000000 1.0
C      1  0.5369800000000  0.4402680000000  0.4823470000000 1.0
C      1  0.4901190000000  0.5775050000000  0.5371020000000 1.0
C      1  0.5642110000000  0.4761620000000  0.4554580000000 1.0
C      1  0.5661990000000  0.5145110000000  0.5400590000000 1.0
C      1  0.5145780000000  0.5159910000000  0.5099490000000 1.0
C      1  0.4728740000000  0.5063690000000  0.4167200000000 1.0
C      1  0.4597640000000  0.4808750000000  0.4929560000000 1.0
C      1  0.4441630000000  0.5255110000000  0.4843790000000 1.0
C      1  0.4897300000000  0.4920430000000  0.4813820000000 1.0
C      1  0.4591700000000  0.4763460000000  0.4524720000000 1.0
C      1  0.4940460000000  0.5370900000000  0.5690770000000 1.0
C      1  0.5313630000000  0.5039260000000  0.4368070000000 1.0
C      1  0.5044910000000  0.5531200000000  0.5483650000000 1.0
C      1  0.5102030000000  0.4805460000000  0.4324790000000 1.0
C      1  0.4624620000000  0.4712790000000  0.5464580000000 1.0
C      1  0.4769930000000  0.4952640000000  0.5484470000000 1.0
C      1  0.5380100000000  0.4571020000000  0.5104420000000 1.0
C      1  0.5344940000000  0.5002320000000  0.4895950000000 1.0
C      1  0.4716980000000  0.4428360000000  0.4959330000000 1.0
C      1  0.5538580000000  0.5045710000000  0.5630910000000 1.0
C      1  0.4415580000000  0.5360160000000  0.5274520000000 1.0
END
