TITL C-2847950-6905-339 2184.9538249354 125000 -661.411083782353 0 0 122 (C1) n - 1
REM
REM in /home/bkarasulu/work/CARBON/AIRSS/Generating-Clusters/AIREBO/with-SteepDescent/Only-C1/SD-CG-opt/Try1-1.4A-POS3A/HFTN-CG
REM
REM
REM
REM
REM
REM ./C.cell (11c1c37f851c82e70ff6c80c92926a4b)
REM
REM compiler GCC version 9.2.1 20190827 (Red Hat 9.2.1-1)
REM options -cpp -mtune=generic -march=x86-64 -g -O0 -fpre-include=/usr/include/finclude/math-vector-fortran.h
REM seed -34606683 533080535 -1754667658 190064763 1268276961 1764454398 75357902 376380078 159704099 -1005778686 511516721 500400930 1558447366 1955755984 1532837787 457297108 402988280 -363542940 -472220728 827764060 -1513864951 -1342475793 -1137053162 -1563641446 -1350394937 -23692662 1018749581 -1137109494 -756101817 -1359059721 -1028535147 -404940016 1844158204
REM
CELL 1.54180   50.00000   50.00000   50.00000   90.00000   90.00000   90.00000
LATT -1
SFAC C  
C      1  0.5753110000000  0.5507460000000  0.5572670000000 1.0
C      1  0.4785130000000  0.5615330000000  0.5019580000000 1.0
C      1  0.4945340000000  0.4801000000000  0.5450440000000 1.0
C      1  0.5653390000000  0.5630930000000  0.5208180000000 1.0
C      1  0.5083120000000  0.5521550000000  0.5117030000000 1.0
C      1  0.4479710000000  0.4660290000000  0.4159880000000 1.0
C      1  0.4985210000000  0.5080660000000  0.3993420000000 1.0
C      1  0.4248590000000  0.5507200000000  0.4771010000000 1.0
C      1  0.5114300000000  0.5432570000000  0.5858350000000 1.0
C      1  0.5609420000000  0.4992670000000  0.4238530000000 1.0
C      1  0.4009040000000  0.4977710000000  0.5277480000000 1.0
C      1  0.5658500000000  0.4353380000000  0.4888650000000 1.0
C      1  0.5459260000000  0.4511590000000  0.4222280000000 1.0
C      1  0.5372340000000  0.5130560000000  0.4438600000000 1.0
C      1  0.4657820000000  0.5924550000000  0.5034840000000 1.0
C      1  0.4419700000000  0.4504100000000  0.4890620000000 1.0
C      1  0.4902780000000  0.4323850000000  0.4383130000000 1.0
C      1  0.5717650000000  0.5080200000000  0.5179600000000 1.0
C      1  0.4769960000000  0.5499760000000  0.4751360000000 1.0
C      1  0.4176230000000  0.5023650000000  0.4299050000000 1.0
C      1  0.5225200000000  0.5759030000000  0.4828380000000 1.0
C      1  0.4519140000000  0.4777970000000  0.5157520000000 1.0
C      1  0.4422260000000  0.4955670000000  0.4182070000000 1.0
C      1  0.4193760000000  0.5311790000000  0.4974730000000 1.0
C      1  0.4458770000000  0.4630740000000  0.5457980000000 1.0
C      1  0.4923410000000  0.4484000000000  0.4166830000000 1.0
C      1  0.4588800000000  0.5073760000000  0.6180700000000 1.0
C      1  0.5433940000000  0.4531330000000  0.4984220000000 1.0
C      1  0.5217200000000  0.4425680000000  0.5208060000000 1.0
C      1  0.5004130000000  0.4736690000000  0.4499200000000 1.0
C      1  0.5542760000000  0.5725200000000  0.4588600000000 1.0
C      1  0.4010270000000  0.5073760000000  0.5011400000000 1.0
C      1  0.4722110000000  0.4628450000000  0.5613010000000 1.0
C      1  0.4743820000000  0.5197890000000  0.4692610000000 1.0
C      1  0.5005110000000  0.4406690000000  0.4871540000000 1.0
C      1  0.4824510000000  0.5621900000000  0.4123090000000 1.0
C      1  0.5231230000000  0.5312860000000  0.4970480000000 1.0
C      1  0.4958980000000  0.5239500000000  0.4358270000000 1.0
C      1  0.4516480000000  0.5582570000000  0.4569330000000 1.0
C      1  0.4583700000000  0.4254290000000  0.4808390000000 1.0
C      1  0.4350130000000  0.4701020000000  0.4632110000000 1.0
C      1  0.5980760000000  0.4874860000000  0.5245490000000 1.0
C      1  0.5098100000000  0.4143240000000  0.5153980000000 1.0
C      1  0.5960810000000  0.5142640000000  0.4950050000000 1.0
C      1  0.5990150000000  0.4771530000000  0.5533940000000 1.0
C      1  0.5822180000000  0.5380400000000  0.5300550000000 1.0
C      1  0.5615970000000  0.5352660000000  0.5754610000000 1.0
C      1  0.4932910000000  0.5363570000000  0.4057690000000 1.0
C      1  0.5591930000000  0.4119510000000  0.4755220000000 1.0
C      1  0.5053680000000  0.5584790000000  0.4591430000000 1.0
C      1  0.5070810000000  0.5211570000000  0.5517010000000 1.0
C      1  0.4742040000000  0.4985230000000  0.5969920000000 1.0
C      1  0.4023160000000  0.4857970000000  0.4821280000000 1.0
C      1  0.6042590000000  0.4681630000000  0.5057880000000 1.0
C      1  0.5447330000000  0.4499940000000  0.4509210000000 1.0
C      1  0.4804820000000  0.4178820000000  0.5001450000000 1.0
C      1  0.5686030000000  0.4827610000000  0.5617990000000 1.0
C      1  0.5374130000000  0.5323870000000  0.5952470000000 1.0
C      1  0.5111010000000  0.4834800000000  0.4191550000000 1.0
C      1  0.5099170000000  0.5999370000000  0.4950140000000 1.0
C      1  0.5583610000000  0.5054560000000  0.5491150000000 1.0
C      1  0.4924320000000  0.4271510000000  0.6039580000000 1.0
C      1  0.5374660000000  0.5820610000000  0.5652920000000 1.0
C      1  0.5932720000000  0.4375120000000  0.5082540000000 1.0
C      1  0.4600670000000  0.5704570000000  0.5288910000000 1.0
C      1  0.4906450000000  0.5134270000000  0.5241730000000 1.0
C      1  0.5089670000000  0.5504830000000  0.5422510000000 1.0
C      1  0.4721900000000  0.5026310000000  0.5572570000000 1.0
C      1  0.4735670000000  0.4581840000000  0.4638830000000 1.0
C      1  0.4876200000000  0.5862450000000  0.5378160000000 1.0
C      1  0.5085750000000  0.4287360000000  0.4578670000000 1.0
C      1  0.5531770000000  0.5641120000000  0.4910200000000 1.0
C      1  0.4301990000000  0.5336990000000  0.4511080000000 1.0
C      1  0.5074540000000  0.5830630000000  0.5191530000000 1.0
C      1  0.5933830000000  0.4528030000000  0.4790570000000 1.0
C      1  0.5394340000000  0.4763480000000  0.4127830000000 1.0
C      1  0.4956770000000  0.4979140000000  0.4719020000000 1.0
C      1  0.4596770000000  0.5211370000000  0.5315780000000 1.0
C      1  0.5250340000000  0.5402960000000  0.4294780000000 1.0
C      1  0.5377030000000  0.4917830000000  0.4793020000000 1.0
C      1  0.4730080000000  0.4139930000000  0.5308980000000 1.0
C      1  0.4837240000000  0.4328730000000  0.5541820000000 1.0
C      1  0.5733410000000  0.4599300000000  0.5395480000000 1.0
C      1  0.4490940000000  0.4920820000000  0.4850050000000 1.0
C      1  0.4794270000000  0.4508010000000  0.6091080000000 1.0
C      1  0.4616450000000  0.4297750000000  0.4494760000000 1.0
C      1  0.4124780000000  0.4914990000000  0.4549930000000 1.0
C      1  0.4790710000000  0.5676950000000  0.4391870000000 1.0
C      1  0.4737550000000  0.4587550000000  0.4979110000000 1.0
C      1  0.5553510000000  0.4782080000000  0.5180640000000 1.0
C      1  0.5350010000000  0.5189520000000  0.5627000000000 1.0
C      1  0.4900810000000  0.4524590000000  0.5270840000000 1.0
C      1  0.5336820000000  0.5659550000000  0.4422290000000 1.0
C      1  0.5224060000000  0.4627960000000  0.4734720000000 1.0
C      1  0.6004710000000  0.5149580000000  0.4680410000000 1.0
C      1  0.5221540000000  0.4762640000000  0.5255890000000 1.0
C      1  0.4831450000000  0.6103920000000  0.4925660000000 1.0
C      1  0.5613570000000  0.5112690000000  0.4754550000000 1.0
C      1  0.5775500000000  0.5100620000000  0.4505370000000 1.0
C      1  0.4098810000000  0.4596450000000  0.4922660000000 1.0
C      1  0.4715250000000  0.5061930000000  0.4318030000000 1.0
C      1  0.5599450000000  0.5762300000000  0.5490960000000 1.0
C      1  0.3787390000000  0.4958250000000  0.5435770000000 1.0
C      1  0.4756310000000  0.4715170000000  0.5907620000000 1.0
C      1  0.4423130000000  0.5010200000000  0.5613510000000 1.0
C      1  0.5146000000000  0.5650260000000  0.5660890000000 1.0
C      1  0.4427440000000  0.5153480000000  0.5069580000000 1.0
C      1  0.4881960000000  0.5204940000000  0.5793000000000 1.0
C      1  0.5135590000000  0.5259530000000  0.4648200000000 1.0
C      1  0.4779690000000  0.4781130000000  0.4160850000000 1.0
C      1  0.4903620000000  0.4882380000000  0.5013360000000 1.0
C      1  0.4969100000000  0.4194340000000  0.5781370000000 1.0
C      1  0.4421950000000  0.4522760000000  0.4398160000000 1.0
C      1  0.4481810000000  0.5095020000000  0.4557940000000 1.0
C      1  0.4291140000000  0.4383060000000  0.5508210000000 1.0
C      1  0.5207200000000  0.3914290000000  0.5212230000000 1.0
C      1  0.5491870000000  0.4820680000000  0.4510050000000 1.0
C      1  0.5210730000000  0.4998660000000  0.5026870000000 1.0
C      1  0.4311220000000  0.5490350000000  0.5618210000000 1.0
C      1  0.5554600000000  0.5311570000000  0.4990800000000 1.0
C      1  0.4273450000000  0.4891280000000  0.5364110000000 1.0
C      1  0.4491970000000  0.5476030000000  0.5430730000000 1.0
END
