TITL C-2848507-1641-169 -0.00172723161336272 125000 -980.41573216944 0 0 181 (C1) n - 1
REM
REM in /home/bkarasulu/work/CARBON/AIRSS/Generating-Clusters/AIREBO/with-SteepDescent/Only-C1/SD-CG-opt/Try1-1.4A-POS3A/HFTN-CG
REM
REM
REM
REM
REM
REM ./C.cell (11c1c37f851c82e70ff6c80c92926a4b)
REM
REM compiler GCC version 9.2.1 20190827 (Red Hat 9.2.1-1)
REM options -cpp -mtune=generic -march=x86-64 -g -O0 -fpre-include=/usr/include/finclude/math-vector-fortran.h
REM seed -22513184 1961466161 569835956 908302386 -341536311 -704997646 -278042584 756600814 -359807656 -347777768 762958740 -768125584 353666559 -485948502 2120853907 -294895279 1813883414 -1341526226 749412524 1939161713 -2130896782 96500483 1647488559 1264226140 548767721 1708976999 -892403963 234831899 -1930768128 -87829340 2013529832 1332622116 -644081383
REM
CELL 1.54180   50.00000   50.00000   50.00000   90.00000   90.00000   90.00000
LATT -1
SFAC C  
C      1  0.5574480000000  0.4427870000000  0.5529430000000 1.0
C      1  0.4880470000000  0.3892600000000  0.5259530000000 1.0
C      1  0.4444490000000  0.5448370000000  0.5538600000000 1.0
C      1  0.5111740000000  0.5337390000000  0.4589860000000 1.0
C      1  0.5402020000000  0.4761490000000  0.4955230000000 1.0
C      1  0.4274710000000  0.5638250000000  0.4932240000000 1.0
C      1  0.5067160000000  0.4280720000000  0.5614010000000 1.0
C      1  0.4917420000000  0.4445760000000  0.5355260000000 1.0
C      1  0.5157630000000  0.4993980000000  0.4999440000000 1.0
C      1  0.4410680000000  0.5154360000000  0.4131340000000 1.0
C      1  0.6194960000000  0.5152500000000  0.5027610000000 1.0
C      1  0.5124820000000  0.4908770000000  0.4549630000000 1.0
C      1  0.5342820000000  0.5182590000000  0.4785590000000 1.0
C      1  0.4016490000000  0.4609350000000  0.5024110000000 1.0
C      1  0.4679280000000  0.4780890000000  0.5449230000000 1.0
C      1  0.4696760000000  0.4937600000000  0.6028220000000 1.0
C      1  0.5912330000000  0.5361860000000  0.4531230000000 1.0
C      1  0.5895970000000  0.4872910000000  0.5734630000000 1.0
C      1  0.4591530000000  0.4149790000000  0.5512230000000 1.0
C      1  0.5631890000000  0.4687280000000  0.5741610000000 1.0
C      1  0.3941590000000  0.4804850000000  0.4753550000000 1.0
C      1  0.4598200000000  0.5215110000000  0.6103590000000 1.0
C      1  0.5020890000000  0.4718260000000  0.5254870000000 1.0
C      1  0.5998460000000  0.5129190000000  0.4842940000000 1.0
C      1  0.4600940000000  0.4430770000000  0.5231340000000 1.0
C      1  0.5318860000000  0.4111720000000  0.5181380000000 1.0
C      1  0.5494880000000  0.5776310000000  0.4343010000000 1.0
C      1  0.5884980000000  0.5373520000000  0.5376220000000 1.0
C      1  0.4930690000000  0.5039710000000  0.5803400000000 1.0
C      1  0.5028420000000  0.5298700000000  0.5077770000000 1.0
C      1  0.4664660000000  0.5023280000000  0.5106640000000 1.0
C      1  0.4303030000000  0.5238030000000  0.5310300000000 1.0
C      1  0.4423910000000  0.5020470000000  0.4507880000000 1.0
C      1  0.4252700000000  0.5769330000000  0.5211510000000 1.0
C      1  0.5262470000000  0.4416310000000  0.5155980000000 1.0
C      1  0.4606430000000  0.6006970000000  0.4904300000000 1.0
C      1  0.4761740000000  0.4897210000000  0.3905250000000 1.0
C      1  0.4692390000000  0.4250470000000  0.4596370000000 1.0
C      1  0.5644040000000  0.4530320000000  0.4492480000000 1.0
C      1  0.4206350000000  0.4718050000000  0.5491920000000 1.0
C      1  0.5318020000000  0.5405540000000  0.5344780000000 1.0
C      1  0.5262300000000  0.5072490000000  0.5304760000000 1.0
C      1  0.4578090000000  0.4489080000000  0.5874830000000 1.0
C      1  0.3983410000000  0.5216560000000  0.5375250000000 1.0
C      1  0.5592590000000  0.5101750000000  0.4138380000000 1.0
C      1  0.4410420000000  0.5856100000000  0.4769810000000 1.0
C      1  0.4555210000000  0.4728410000000  0.4392820000000 1.0
C      1  0.5373940000000  0.4689610000000  0.4624010000000 1.0
C      1  0.5150050000000  0.4441590000000  0.4689370000000 1.0
C      1  0.5087650000000  0.3925400000000  0.5065350000000 1.0
C      1  0.5403020000000  0.5110970000000  0.3900740000000 1.0
C      1  0.6038360000000  0.4845040000000  0.5463800000000 1.0
C      1  0.4406210000000  0.4914120000000  0.5298830000000 1.0
C      1  0.4137570000000  0.4361040000000  0.4834690000000 1.0
C      1  0.5021740000000  0.4439240000000  0.4969670000000 1.0
C      1  0.5504610000000  0.5167950000000  0.5084310000000 1.0
C      1  0.4937230000000  0.5845530000000  0.5567440000000 1.0
C      1  0.4395170000000  0.5777360000000  0.4500590000000 1.0
C      1  0.4457310000000  0.4808090000000  0.4842640000000 1.0
C      1  0.5625610000000  0.5314860000000  0.5457780000000 1.0
C      1  0.4091150000000  0.4952310000000  0.4485460000000 1.0
C      1  0.4120480000000  0.5020560000000  0.5589520000000 1.0
C      1  0.4948280000000  0.4985980000000  0.5409900000000 1.0
C      1  0.5406820000000  0.5143650000000  0.4393900000000 1.0
C      1  0.5345590000000  0.5410490000000  0.5999620000000 1.0
C      1  0.4608210000000  0.3835140000000  0.4874870000000 1.0
C      1  0.4965410000000  0.4729370000000  0.6048940000000 1.0
C      1  0.4846040000000  0.3844800000000  0.4740850000000 1.0
C      1  0.4911870000000  0.4446840000000  0.5867360000000 1.0
C      1  0.4470210000000  0.4737050000000  0.5957160000000 1.0
C      1  0.4388180000000  0.4077510000000  0.4953320000000 1.0
C      1  0.5939560000000  0.4867220000000  0.5139140000000 1.0
C      1  0.5593870000000  0.5289850000000  0.6063050000000 1.0
C      1  0.5695520000000  0.5773340000000  0.5164030000000 1.0
C      1  0.6120750000000  0.5473290000000  0.4680390000000 1.0
C      1  0.5108280000000  0.5134460000000  0.4317040000000 1.0
C      1  0.4216980000000  0.4847560000000  0.5038850000000 1.0
C      1  0.4758040000000  0.5449000000000  0.5941500000000 1.0
C      1  0.5576970000000  0.4495290000000  0.5074540000000 1.0
C      1  0.5353880000000  0.4258090000000  0.4328160000000 1.0
C      1  0.4323100000000  0.4369480000000  0.5115310000000 1.0
C      1  0.5232790000000  0.6231670000000  0.4940110000000 1.0
C      1  0.5309220000000  0.5584070000000  0.5061560000000 1.0
C      1  0.5268830000000  0.5072890000000  0.5788160000000 1.0
C      1  0.4502730000000  0.5692950000000  0.5370080000000 1.0
C      1  0.5756150000000  0.4445830000000  0.5325980000000 1.0
C      1  0.5525840000000  0.4729910000000  0.4015300000000 1.0
C      1  0.5638350000000  0.4881460000000  0.5157770000000 1.0
C      1  0.4743560000000  0.5586910000000  0.5166330000000 1.0
C      1  0.5682120000000  0.4802510000000  0.4275890000000 1.0
C      1  0.5065790000000  0.5532460000000  0.5992490000000 1.0
C      1  0.5094520000000  0.6124690000000  0.4702220000000 1.0
C      1  0.3842300000000  0.5236810000000  0.5117990000000 1.0
C      1  0.4388740000000  0.5147400000000  0.5688750000000 1.0
C      1  0.5270430000000  0.5395960000000  0.5681460000000 1.0
C      1  0.4387480000000  0.4025110000000  0.5302090000000 1.0
C      1  0.5584880000000  0.5396760000000  0.4315650000000 1.0
C      1  0.4440150000000  0.5414610000000  0.5876950000000 1.0
C      1  0.4092130000000  0.5117440000000  0.4994140000000 1.0
C      1  0.4697670000000  0.5271790000000  0.5286020000000 1.0
C      1  0.4512850000000  0.4895120000000  0.4099140000000 1.0
C      1  0.5711260000000  0.4357990000000  0.4845300000000 1.0
C      1  0.4790350000000  0.6070640000000  0.5164770000000 1.0
C      1  0.4891750000000  0.5090570000000  0.4686720000000 1.0
C      1  0.5225100000000  0.5894170000000  0.5297540000000 1.0
C      1  0.5477720000000  0.6049370000000  0.4779510000000 1.0
C      1  0.4682460000000  0.4233850000000  0.4259370000000 1.0
C      1  0.4906290000000  0.4541590000000  0.4372830000000 1.0
C      1  0.4893840000000  0.4829180000000  0.4987340000000 1.0
C      1  0.5253120000000  0.5719620000000  0.5577240000000 1.0
C      1  0.4071540000000  0.5482390000000  0.4744530000000 1.0
C      1  0.4711220000000  0.5154590000000  0.5586280000000 1.0
C      1  0.5839650000000  0.5049700000000  0.4581300000000 1.0
C      1  0.5556640000000  0.5734790000000  0.4881960000000 1.0
C      1  0.5226290000000  0.4787110000000  0.4046480000000 1.0
C      1  0.4878220000000  0.4416130000000  0.4057980000000 1.0
C      1  0.5353310000000  0.4407450000000  0.5747140000000 1.0
C      1  0.4917880000000  0.4809100000000  0.4187970000000 1.0
C      1  0.4282060000000  0.5464890000000  0.4478080000000 1.0
C      1  0.4619500000000  0.3831940000000  0.5165800000000 1.0
C      1  0.5566200000000  0.5066670000000  0.5623330000000 1.0
C      1  0.4845760000000  0.4740380000000  0.5716320000000 1.0
C      1  0.4115130000000  0.4176580000000  0.5394730000000 1.0
C      1  0.4809190000000  0.5129610000000  0.4225700000000 1.0
C      1  0.4755720000000  0.5388250000000  0.4907920000000 1.0
C      1  0.5067590000000  0.5053010000000  0.3911200000000 1.0
C      1  0.5184220000000  0.4391630000000  0.4056430000000 1.0
C      1  0.5560030000000  0.4817820000000  0.5435950000000 1.0
C      1  0.4094060000000  0.4486080000000  0.5330620000000 1.0
C      1  0.5292450000000  0.4740750000000  0.5718710000000 1.0
C      1  0.4565870000000  0.5655980000000  0.4277710000000 1.0
C      1  0.5721610000000  0.5093180000000  0.5903550000000 1.0
C      1  0.4349240000000  0.5309440000000  0.4976210000000 1.0
C      1  0.4569530000000  0.5304960000000  0.4391620000000 1.0
C      1  0.4234530000000  0.4803880000000  0.5821680000000 1.0
C      1  0.5541680000000  0.5934430000000  0.5317390000000 1.0
C      1  0.6010430000000  0.4729730000000  0.4850580000000 1.0
C      1  0.5295320000000  0.4591660000000  0.4307950000000 1.0
C      1  0.4795380000000  0.5462330000000  0.4595670000000 1.0
C      1  0.5235940000000  0.5859080000000  0.4634820000000 1.0
C      1  0.5201420000000  0.5615240000000  0.4747040000000 1.0
C      1  0.4909160000000  0.5559580000000  0.5684820000000 1.0
C      1  0.4730940000000  0.5914270000000  0.5395040000000 1.0
C      1  0.5077720000000  0.6136060000000  0.5159420000000 1.0
C      1  0.5497910000000  0.4253850000000  0.4628190000000 1.0
C      1  0.4416540000000  0.4418790000000  0.4367440000000 1.0
C      1  0.4571430000000  0.5125190000000  0.4795940000000 1.0
C      1  0.5290500000000  0.4664440000000  0.5386760000000 1.0
C      1  0.5573140000000  0.5983430000000  0.4462720000000 1.0
C      1  0.4848810000000  0.5753930000000  0.4243940000000 1.0
C      1  0.5637960000000  0.5526830000000  0.4625510000000 1.0
C      1  0.4921150000000  0.4692740000000  0.4677080000000 1.0
C      1  0.4984290000000  0.5383010000000  0.5405840000000 1.0
C      1  0.4853730000000  0.4039720000000  0.5504610000000 1.0
C      1  0.5270300000000  0.5520890000000  0.4351140000000 1.0
C      1  0.5047280000000  0.5575600000000  0.4144520000000 1.0
C      1  0.4168620000000  0.4648560000000  0.4350140000000 1.0
C      1  0.6011780000000  0.5513460000000  0.4946140000000 1.0
C      1  0.4612240000000  0.4562340000000  0.4684280000000 1.0
C      1  0.3844150000000  0.5404880000000  0.4868770000000 1.0
C      1  0.5909100000000  0.5594400000000  0.5202100000000 1.0
C      1  0.4841150000000  0.5755760000000  0.4548850000000 1.0
C      1  0.5207700000000  0.4899410000000  0.6074210000000 1.0
C      1  0.4883040000000  0.5909790000000  0.4811140000000 1.0
C      1  0.5020070000000  0.4221200000000  0.4374460000000 1.0
C      1  0.4042820000000  0.5256110000000  0.4409420000000 1.0
C      1  0.4759130000000  0.4454380000000  0.4971450000000 1.0
C      1  0.6065830000000  0.5130930000000  0.5315010000000 1.0
C      1  0.5534710000000  0.4989210000000  0.4618160000000 1.0
C      1  0.5304430000000  0.4071440000000  0.5489210000000 1.0
C      1  0.5293280000000  0.4085470000000  0.4843350000000 1.0
C      1  0.4957880000000  0.5344600000000  0.4014020000000 1.0
C      1  0.5729690000000  0.5332170000000  0.4889230000000 1.0
C      1  0.5966400000000  0.4443660000000  0.4817530000000 1.0
C      1  0.4371210000000  0.4239280000000  0.4652820000000 1.0
C      1  0.6008510000000  0.4539560000000  0.5357500000000 1.0
C      1  0.4220190000000  0.4635000000000  0.4683630000000 1.0
C      1  0.5013620000000  0.5752110000000  0.5071780000000 1.0
C      1  0.4988480000000  0.4142550000000  0.4703730000000 1.0
C      1  0.5902120000000  0.4742310000000  0.4528240000000 1.0
C      1  0.4586000000000  0.4476060000000  0.5567990000000 1.0
END
