TITL C-2848498-1409-196 0.00435688840232681 125000 -925.940746241441 0 0 172 (C1) n - 1
REM
REM in /home/bkarasulu/work/CARBON/AIRSS/Generating-Clusters/AIREBO/with-SteepDescent/Only-C1/SD-CG-opt/Try1-1.4A-POS3A/HFTN-CG
REM
REM
REM
REM
REM
REM ./C.cell (11c1c37f851c82e70ff6c80c92926a4b)
REM
REM compiler GCC version 9.2.1 20190827 (Red Hat 9.2.1-1)
REM options -cpp -mtune=generic -march=x86-64 -g -O0 -fpre-include=/usr/include/finclude/math-vector-fortran.h
REM seed 205995607 1392223281 498593550 -396608890 110585920 980051563 -1965335290 -1088153100 702389799 -25887903 -1659739608 1986275523 748803581 -1001264227 -13561144 -1220241902 -243646131 1790972585 -1084319914 -1120682496 -2031615580 561521845 823821144 -780165914 -885597631 -190174087 1133316791 153319147 -1183500048 -44491857 -1559770335 226038024 -1966691106
REM
CELL 1.54180   50.00000   50.00000   50.00000   90.00000   90.00000   90.00000
LATT -1
SFAC C  
C      1  0.4971590000000  0.4979030000000  0.5849070000000 1.0
C      1  0.4919420000000  0.5728480000000  0.4321310000000 1.0
C      1  0.4860860000000  0.4004470000000  0.4648430000000 1.0
C      1  0.5514430000000  0.4402180000000  0.5455810000000 1.0
C      1  0.4790040000000  0.4998770000000  0.4049930000000 1.0
C      1  0.5396520000000  0.4631600000000  0.5266490000000 1.0
C      1  0.4894940000000  0.5904290000000  0.4774730000000 1.0
C      1  0.5252200000000  0.5660990000000  0.4329220000000 1.0
C      1  0.5908640000000  0.4316360000000  0.5163140000000 1.0
C      1  0.5071810000000  0.5590080000000  0.5361290000000 1.0
C      1  0.5420170000000  0.4519210000000  0.4720620000000 1.0
C      1  0.4489230000000  0.5426530000000  0.4072260000000 1.0
C      1  0.5005770000000  0.4216840000000  0.4449720000000 1.0
C      1  0.5992260000000  0.5094900000000  0.5018530000000 1.0
C      1  0.5794840000000  0.5150440000000  0.5561190000000 1.0
C      1  0.4114110000000  0.4756910000000  0.4462020000000 1.0
C      1  0.4397620000000  0.4986440000000  0.5025940000000 1.0
C      1  0.5384020000000  0.5927950000000  0.4403870000000 1.0
C      1  0.5348400000000  0.5910590000000  0.5152980000000 1.0
C      1  0.4231570000000  0.5071800000000  0.4673060000000 1.0
C      1  0.5024070000000  0.4928510000000  0.5516220000000 1.0
C      1  0.5103870000000  0.6101310000000  0.4834430000000 1.0
C      1  0.4461930000000  0.4480630000000  0.5167210000000 1.0
C      1  0.4838290000000  0.3841740000000  0.5279220000000 1.0
C      1  0.4361810000000  0.5979830000000  0.4802340000000 1.0
C      1  0.5068610000000  0.5013560000000  0.4548370000000 1.0
C      1  0.4189890000000  0.5218330000000  0.4398680000000 1.0
C      1  0.4645330000000  0.4639770000000  0.4954850000000 1.0
C      1  0.5260710000000  0.4907100000000  0.5990660000000 1.0
C      1  0.4400810000000  0.4692700000000  0.4290880000000 1.0
C      1  0.5958670000000  0.5243870000000  0.4734700000000 1.0
C      1  0.5608420000000  0.5233660000000  0.5809490000000 1.0
C      1  0.3952390000000  0.4904930000000  0.4723710000000 1.0
C      1  0.4835260000000  0.4394950000000  0.5501470000000 1.0
C      1  0.5403430000000  0.4477670000000  0.5904100000000 1.0
C      1  0.5857640000000  0.5562290000000  0.5205480000000 1.0
C      1  0.5928120000000  0.4285330000000  0.4828120000000 1.0
C      1  0.5298230000000  0.5435120000000  0.4104160000000 1.0
C      1  0.5425240000000  0.5310620000000  0.5148190000000 1.0
C      1  0.5071330000000  0.4184530000000  0.5622130000000 1.0
C      1  0.4498040000000  0.4763610000000  0.5780130000000 1.0
C      1  0.5198080000000  0.5776930000000  0.5594520000000 1.0
C      1  0.4510600000000  0.4379320000000  0.4217530000000 1.0
C      1  0.5258130000000  0.4203290000000  0.4254510000000 1.0
C      1  0.4498130000000  0.5135080000000  0.5925990000000 1.0
C      1  0.4700290000000  0.4644930000000  0.4444660000000 1.0
C      1  0.4418130000000  0.4803690000000  0.4758890000000 1.0
C      1  0.5473700000000  0.5150000000000  0.4156740000000 1.0
C      1  0.5892120000000  0.4850400000000  0.4718850000000 1.0
C      1  0.5178800000000  0.5287930000000  0.5591570000000 1.0
C      1  0.5650280000000  0.5805740000000  0.5246520000000 1.0
C      1  0.4526540000000  0.4392380000000  0.5467620000000 1.0
C      1  0.4335610000000  0.5270170000000  0.4901060000000 1.0
C      1  0.4975780000000  0.5246740000000  0.6059520000000 1.0
C      1  0.5294380000000  0.5470800000000  0.4599420000000 1.0
C      1  0.5560330000000  0.4576710000000  0.4412570000000 1.0
C      1  0.5321340000000  0.6098560000000  0.4670020000000 1.0
C      1  0.5897980000000  0.5535190000000  0.4900340000000 1.0
C      1  0.5803950000000  0.5316580000000  0.5327990000000 1.0
C      1  0.4799010000000  0.4825450000000  0.5194770000000 1.0
C      1  0.3950920000000  0.4721570000000  0.4969410000000 1.0
C      1  0.4201550000000  0.4751460000000  0.5783060000000 1.0
C      1  0.4433220000000  0.5588710000000  0.4602530000000 1.0
C      1  0.4543900000000  0.5395220000000  0.5451850000000 1.0
C      1  0.4877890000000  0.4256400000000  0.5874190000000 1.0
C      1  0.5489710000000  0.4938650000000  0.5741250000000 1.0
C      1  0.5277300000000  0.5228310000000  0.5911580000000 1.0
C      1  0.4777510000000  0.4162140000000  0.5183900000000 1.0
C      1  0.4950370000000  0.5210130000000  0.5351440000000 1.0
C      1  0.5389400000000  0.5099620000000  0.4486890000000 1.0
C      1  0.4063070000000  0.4441030000000  0.4850440000000 1.0
C      1  0.4612840000000  0.5583400000000  0.4346350000000 1.0
C      1  0.5235950000000  0.4679560000000  0.4406400000000 1.0
C      1  0.5592950000000  0.5902930000000  0.4673910000000 1.0
C      1  0.5609980000000  0.4659390000000  0.5828630000000 1.0
C      1  0.4493320000000  0.4112450000000  0.5023650000000 1.0
C      1  0.5649970000000  0.4134900000000  0.5037530000000 1.0
C      1  0.4304220000000  0.5174030000000  0.4151650000000 1.0
C      1  0.5595980000000  0.5688410000000  0.4931900000000 1.0
C      1  0.4795390000000  0.4878700000000  0.4671770000000 1.0
C      1  0.3855280000000  0.5222630000000  0.4786340000000 1.0
C      1  0.4910350000000  0.5362480000000  0.5755630000000 1.0
C      1  0.5309610000000  0.4910070000000  0.4764880000000 1.0
C      1  0.5094970000000  0.3940320000000  0.5455480000000 1.0
C      1  0.5927010000000  0.4832710000000  0.5187490000000 1.0
C      1  0.4422780000000  0.5801060000000  0.5003550000000 1.0
C      1  0.5826050000000  0.5504900000000  0.4350460000000 1.0
C      1  0.4074690000000  0.5222770000000  0.5736340000000 1.0
C      1  0.5380480000000  0.4201810000000  0.4753580000000 1.0
C      1  0.4476850000000  0.5900460000000  0.4546530000000 1.0
C      1  0.4714350000000  0.4799250000000  0.5980050000000 1.0
C      1  0.5199180000000  0.4616580000000  0.6031680000000 1.0
C      1  0.4685590000000  0.5078960000000  0.4908620000000 1.0
C      1  0.5629810000000  0.4919350000000  0.4879450000000 1.0
C      1  0.4213950000000  0.5539980000000  0.5040560000000 1.0
C      1  0.5694830000000  0.4107400000000  0.4691510000000 1.0
C      1  0.4262210000000  0.4533800000000  0.4642280000000 1.0
C      1  0.4817600000000  0.5494770000000  0.4016120000000 1.0
C      1  0.4004360000000  0.5455990000000  0.4785820000000 1.0
C      1  0.5602970000000  0.4129540000000  0.5339730000000 1.0
C      1  0.5773300000000  0.4770810000000  0.4346640000000 1.0
C      1  0.4972200000000  0.5516170000000  0.5075380000000 1.0
C      1  0.5738990000000  0.5086100000000  0.4305390000000 1.0
C      1  0.4583580000000  0.5460390000000  0.4879520000000 1.0
C      1  0.5513820000000  0.5774700000000  0.5540910000000 1.0
C      1  0.5059070000000  0.4341210000000  0.5251100000000 1.0
C      1  0.4959870000000  0.5390920000000  0.4311250000000 1.0
C      1  0.4179720000000  0.5236780000000  0.5483550000000 1.0
C      1  0.4874800000000  0.6019670000000  0.5254660000000 1.0
C      1  0.4074280000000  0.4536500000000  0.5237250000000 1.0
C      1  0.4210130000000  0.4285010000000  0.5071540000000 1.0
C      1  0.4421920000000  0.4094560000000  0.5347210000000 1.0
C      1  0.4757130000000  0.5920260000000  0.4505450000000 1.0
C      1  0.4854250000000  0.4666930000000  0.5630780000000 1.0
C      1  0.5215240000000  0.5078600000000  0.5189940000000 1.0
C      1  0.4548340000000  0.5989230000000  0.5333230000000 1.0
C      1  0.5761470000000  0.4856150000000  0.5451600000000 1.0
C      1  0.4754970000000  0.5777030000000  0.5053300000000 1.0
C      1  0.4921030000000  0.4561540000000  0.5943230000000 1.0
C      1  0.4712100000000  0.5086470000000  0.6133080000000 1.0
C      1  0.4696720000000  0.5365610000000  0.5186570000000 1.0
C      1  0.5383360000000  0.5525790000000  0.5345030000000 1.0
C      1  0.5463800000000  0.5462980000000  0.5653230000000 1.0
C      1  0.5679150000000  0.5131960000000  0.5097010000000 1.0
C      1  0.5662860000000  0.5283440000000  0.4571590000000 1.0
C      1  0.4245590000000  0.5518390000000  0.5344730000000 1.0
C      1  0.4824850000000  0.4457750000000  0.4186810000000 1.0
C      1  0.4597180000000  0.5643240000000  0.5662870000000 1.0
C      1  0.4948740000000  0.4822710000000  0.4293750000000 1.0
C      1  0.5111580000000  0.4463060000000  0.4616080000000 1.0
C      1  0.5254080000000  0.4684330000000  0.4077410000000 1.0
C      1  0.4816300000000  0.5579280000000  0.4713160000000 1.0
C      1  0.4228920000000  0.5040330000000  0.5891010000000 1.0
C      1  0.5115280000000  0.3970080000000  0.5117350000000 1.0
C      1  0.5589510000000  0.5614300000000  0.4538920000000 1.0
C      1  0.4269900000000  0.4615890000000  0.5488670000000 1.0
C      1  0.4653600000000  0.5178040000000  0.5649740000000 1.0
C      1  0.5299620000000  0.4939140000000  0.3982000000000 1.0
C      1  0.5491860000000  0.5376690000000  0.4844730000000 1.0
C      1  0.4572290000000  0.4136110000000  0.4737970000000 1.0
C      1  0.5013320000000  0.4855140000000  0.4930630000000 1.0
C      1  0.5084610000000  0.5168440000000  0.4086410000000 1.0
C      1  0.5832710000000  0.4598400000000  0.5022930000000 1.0
C      1  0.5000420000000  0.5199100000000  0.4954960000000 1.0
C      1  0.4311780000000  0.4975960000000  0.5415690000000 1.0
C      1  0.4897730000000  0.5682500000000  0.5726190000000 1.0
C      1  0.5433510000000  0.4937550000000  0.5410150000000 1.0
C      1  0.5773440000000  0.4562980000000  0.5582560000000 1.0
C      1  0.5997700000000  0.4580020000000  0.4733480000000 1.0
C      1  0.5140720000000  0.6103240000000  0.5114930000000 1.0
C      1  0.5507180000000  0.4248450000000  0.4441520000000 1.0
C      1  0.6003140000000  0.5024380000000  0.4478020000000 1.0
C      1  0.4166520000000  0.5467940000000  0.4553770000000 1.0
C      1  0.5258220000000  0.5669910000000  0.4974180000000 1.0
C      1  0.5517640000000  0.4636370000000  0.4980160000000 1.0
C      1  0.4428670000000  0.5775850000000  0.5450440000000 1.0
C      1  0.5964310000000  0.4353210000000  0.5440090000000 1.0
C      1  0.5014280000000  0.5332220000000  0.4641940000000 1.0
C      1  0.4462730000000  0.4932630000000  0.4114810000000 1.0
C      1  0.4936540000000  0.5974760000000  0.5556860000000 1.0
C      1  0.5319610000000  0.4209940000000  0.5071540000000 1.0
C      1  0.4574800000000  0.4445970000000  0.4684440000000 1.0
C      1  0.5077990000000  0.4671400000000  0.5300010000000 1.0
C      1  0.4962020000000  0.4182950000000  0.4900240000000 1.0
C      1  0.4677900000000  0.5228430000000  0.4274220000000 1.0
C      1  0.4670980000000  0.4169190000000  0.4413910000000 1.0
C      1  0.4956160000000  0.4523570000000  0.4880500000000 1.0
C      1  0.5332700000000  0.4323710000000  0.5683820000000 1.0
C      1  0.4798020000000  0.4922500000000  0.3765820000000 1.0
C      1  0.4629610000000  0.4879370000000  0.5488720000000 1.0
C      1  0.4172660000000  0.4845700000000  0.5176590000000 1.0
C      1  0.5098900000000  0.4430490000000  0.4125150000000 1.0
END
