TITL C-2848509-3138-291 -0.00350795757371298 125000 -861.73474782276 0 0 159 (C1) n - 1
REM
REM in /home/bkarasulu/work/CARBON/AIRSS/Generating-Clusters/AIREBO/with-SteepDescent/Only-C1/SD-CG-opt/Try1-1.4A-POS3A/HFTN-CG
REM
REM
REM
REM
REM
REM ./C.cell (11c1c37f851c82e70ff6c80c92926a4b)
REM
REM compiler GCC version 9.2.1 20190827 (Red Hat 9.2.1-1)
REM options -cpp -mtune=generic -march=x86-64 -g -O0 -fpre-include=/usr/include/finclude/math-vector-fortran.h
REM seed 750460678 -878462966 -1437175920 1739942973 -1364805699 -1759217406 794140089 1319747603 1641049531 1383121869 -1131201190 2142804555 -966686134 761693824 -1502456812 -884340052 -1713678359 1023328427 -1583111935 -122383316 -1177564640 166450212 299777542 599774517 -1858286275 490534411 313314257 -1417471704 -1916074228 292941733 -2099029898 988178389 900470252
REM
CELL 1.54180   50.00000   50.00000   50.00000   90.00000   90.00000   90.00000
LATT -1
SFAC C  
C      1  0.4950550000000  0.6049580000000  0.4751600000000 1.0
C      1  0.5156780000000  0.4559220000000  0.4858150000000 1.0
C      1  0.4547510000000  0.5758700000000  0.4896880000000 1.0
C      1  0.5548960000000  0.4174140000000  0.5144590000000 1.0
C      1  0.4777110000000  0.4038170000000  0.5144540000000 1.0
C      1  0.4317710000000  0.4187140000000  0.4933050000000 1.0
C      1  0.4349960000000  0.4584520000000  0.5729680000000 1.0
C      1  0.5171340000000  0.4653530000000  0.6006660000000 1.0
C      1  0.5433240000000  0.5603130000000  0.5546070000000 1.0
C      1  0.5055810000000  0.4630530000000  0.4095650000000 1.0
C      1  0.5071250000000  0.5689880000000  0.5689920000000 1.0
C      1  0.3984700000000  0.4850430000000  0.4670280000000 1.0
C      1  0.6019810000000  0.5337830000000  0.4877860000000 1.0
C      1  0.5179960000000  0.4867120000000  0.5312110000000 1.0
C      1  0.5199780000000  0.5591420000000  0.5079270000000 1.0
C      1  0.4894050000000  0.5867430000000  0.5479010000000 1.0
C      1  0.5391610000000  0.5387520000000  0.4717960000000 1.0
C      1  0.4934570000000  0.5097260000000  0.4129840000000 1.0
C      1  0.4904910000000  0.5063170000000  0.5938810000000 1.0
C      1  0.5150680000000  0.5778870000000  0.4799710000000 1.0
C      1  0.4894790000000  0.5352030000000  0.5267130000000 1.0
C      1  0.5687880000000  0.5451090000000  0.4564320000000 1.0
C      1  0.4502160000000  0.5407250000000  0.5643070000000 1.0
C      1  0.4869360000000  0.4154700000000  0.4775520000000 1.0
C      1  0.4420360000000  0.4919860000000  0.5037430000000 1.0
C      1  0.5242680000000  0.5548530000000  0.5900100000000 1.0
C      1  0.5249820000000  0.4415550000000  0.4590720000000 1.0
C      1  0.4268670000000  0.4514990000000  0.4827940000000 1.0
C      1  0.4343690000000  0.5230130000000  0.4193980000000 1.0
C      1  0.4039670000000  0.4780070000000  0.5288740000000 1.0
C      1  0.5803330000000  0.5332410000000  0.5126220000000 1.0
C      1  0.5131370000000  0.5554850000000  0.5403380000000 1.0
C      1  0.4757490000000  0.5511070000000  0.4998020000000 1.0
C      1  0.5892510000000  0.5060210000000  0.5312460000000 1.0
C      1  0.5574100000000  0.5103740000000  0.5022100000000 1.0
C      1  0.5377820000000  0.5667130000000  0.4299630000000 1.0
C      1  0.5875900000000  0.4976710000000  0.4622730000000 1.0
C      1  0.4232450000000  0.5772870000000  0.4769730000000 1.0
C      1  0.4838440000000  0.4619170000000  0.6042560000000 1.0
C      1  0.5573930000000  0.4389290000000  0.4488390000000 1.0
C      1  0.5834440000000  0.4691780000000  0.4473630000000 1.0
C      1  0.4830740000000  0.5506120000000  0.4181130000000 1.0
C      1  0.5117880000000  0.4778160000000  0.5696450000000 1.0
C      1  0.5442380000000  0.5839120000000  0.5315100000000 1.0
C      1  0.4947020000000  0.5158270000000  0.4702200000000 1.0
C      1  0.4963050000000  0.5821820000000  0.5161030000000 1.0
C      1  0.4322530000000  0.5415640000000  0.4419550000000 1.0
C      1  0.4552620000000  0.5386280000000  0.4757020000000 1.0
C      1  0.4764240000000  0.5118490000000  0.5072010000000 1.0
C      1  0.5332440000000  0.3975220000000  0.5002860000000 1.0
C      1  0.4681990000000  0.5123570000000  0.4491970000000 1.0
C      1  0.4744590000000  0.4120910000000  0.5472800000000 1.0
C      1  0.4849940000000  0.4453640000000  0.4836260000000 1.0
C      1  0.5443990000000  0.4971330000000  0.4507190000000 1.0
C      1  0.4573400000000  0.4046140000000  0.4869300000000 1.0
C      1  0.5656930000000  0.5748910000000  0.4725560000000 1.0
C      1  0.5350870000000  0.4170010000000  0.4374550000000 1.0
C      1  0.5212790000000  0.5266250000000  0.4980610000000 1.0
C      1  0.3892090000000  0.4643510000000  0.4823980000000 1.0
C      1  0.5536290000000  0.4573810000000  0.5549910000000 1.0
C      1  0.4406670000000  0.4934020000000  0.4554500000000 1.0
C      1  0.4788130000000  0.5958840000000  0.4971270000000 1.0
C      1  0.5940940000000  0.4841590000000  0.5131680000000 1.0
C      1  0.4587910000000  0.5159980000000  0.5862890000000 1.0
C      1  0.4204540000000  0.4259380000000  0.4626160000000 1.0
C      1  0.5263740000000  0.4123700000000  0.5557390000000 1.0
C      1  0.5436360000000  0.5080290000000  0.5946940000000 1.0
C      1  0.5369690000000  0.4669820000000  0.4058580000000 1.0
C      1  0.4266930000000  0.4938270000000  0.5468930000000 1.0
C      1  0.5444170000000  0.4835270000000  0.5149870000000 1.0
C      1  0.4565100000000  0.4319950000000  0.5526730000000 1.0
C      1  0.4132980000000  0.4831560000000  0.4386060000000 1.0
C      1  0.5890360000000  0.4578720000000  0.5207210000000 1.0
C      1  0.4457820000000  0.4740380000000  0.4788960000000 1.0
C      1  0.5723590000000  0.4966500000000  0.5575100000000 1.0
C      1  0.4279960000000  0.5407750000000  0.5162960000000 1.0
C      1  0.4183370000000  0.5689540000000  0.5046050000000 1.0
C      1  0.5531520000000  0.5500970000000  0.5006500000000 1.0
C      1  0.5307610000000  0.5972570000000  0.5031170000000 1.0
C      1  0.5381520000000  0.5805120000000  0.4583260000000 1.0
C      1  0.4158580000000  0.5241680000000  0.5393780000000 1.0
C      1  0.4840630000000  0.5385040000000  0.5849550000000 1.0
C      1  0.5206760000000  0.5214340000000  0.4490150000000 1.0
C      1  0.5372140000000  0.5367170000000  0.3888880000000 1.0
C      1  0.5480140000000  0.4637280000000  0.4928660000000 1.0
C      1  0.4205730000000  0.5400850000000  0.5629230000000 1.0
C      1  0.4072380000000  0.4550130000000  0.5096240000000 1.0
C      1  0.5616520000000  0.5495160000000  0.4270380000000 1.0
C      1  0.4679120000000  0.5723070000000  0.4583070000000 1.0
C      1  0.5592240000000  0.5241560000000  0.5503750000000 1.0
C      1  0.4949120000000  0.4324150000000  0.5198410000000 1.0
C      1  0.5215710000000  0.4959520000000  0.4010560000000 1.0
C      1  0.5529440000000  0.4698720000000  0.4623740000000 1.0
C      1  0.4115580000000  0.5048140000000  0.5116570000000 1.0
C      1  0.4562860000000  0.4736170000000  0.4136010000000 1.0
C      1  0.4589260000000  0.4673350000000  0.5954310000000 1.0
C      1  0.5830460000000  0.4544790000000  0.5468670000000 1.0
C      1  0.4974900000000  0.4163330000000  0.5621110000000 1.0
C      1  0.5914310000000  0.5261600000000  0.4633410000000 1.0
C      1  0.4297430000000  0.5215890000000  0.4656810000000 1.0
C      1  0.5384010000000  0.5232230000000  0.5273090000000 1.0
C      1  0.5574120000000  0.5290560000000  0.4088660000000 1.0
C      1  0.4356020000000  0.4389040000000  0.5193760000000 1.0
C      1  0.5486230000000  0.5025930000000  0.4190080000000 1.0
C      1  0.5623050000000  0.4862430000000  0.5874930000000 1.0
C      1  0.4880330000000  0.5941980000000  0.4491100000000 1.0
C      1  0.5349710000000  0.4390570000000  0.5409420000000 1.0
C      1  0.4821590000000  0.4914280000000  0.5651280000000 1.0
C      1  0.5666590000000  0.5799530000000  0.5061970000000 1.0
C      1  0.4621920000000  0.5042690000000  0.4172000000000 1.0
C      1  0.4424610000000  0.4913710000000  0.5770520000000 1.0
C      1  0.5819490000000  0.4437520000000  0.4699010000000 1.0
C      1  0.5091430000000  0.5643500000000  0.4122320000000 1.0
C      1  0.5121220000000  0.5296380000000  0.5706790000000 1.0
C      1  0.4668230000000  0.4493420000000  0.5108480000000 1.0
C      1  0.5184340000000  0.5324610000000  0.4169240000000 1.0
C      1  0.5469530000000  0.4558950000000  0.5872700000000 1.0
C      1  0.5331820000000  0.5004360000000  0.4805230000000 1.0
C      1  0.5402090000000  0.4858710000000  0.5546160000000 1.0
C      1  0.5160490000000  0.6028430000000  0.5332620000000 1.0
C      1  0.4575530000000  0.4887910000000  0.5338300000000 1.0
C      1  0.4457110000000  0.4422270000000  0.4488590000000 1.0
C      1  0.5750320000000  0.5530140000000  0.5528840000000 1.0
C      1  0.4754360000000  0.5679650000000  0.5789360000000 1.0
C      1  0.5180890000000  0.4981850000000  0.6034350000000 1.0
C      1  0.4373800000000  0.5668280000000  0.4528330000000 1.0
C      1  0.4450980000000  0.5727060000000  0.5228590000000 1.0
C      1  0.5495720000000  0.5376130000000  0.5797490000000 1.0
C      1  0.5873890000000  0.5631150000000  0.5272420000000 1.0
C      1  0.4600840000000  0.5692470000000  0.5486260000000 1.0
C      1  0.5038720000000  0.4877930000000  0.4874910000000 1.0
C      1  0.4066090000000  0.5085260000000  0.4810760000000 1.0
C      1  0.4713660000000  0.4602580000000  0.4612270000000 1.0
C      1  0.5509270000000  0.4238790000000  0.5762590000000 1.0
C      1  0.5068630000000  0.4007030000000  0.4972150000000 1.0
C      1  0.5123960000000  0.5890280000000  0.4335030000000 1.0
C      1  0.5617070000000  0.4721950000000  0.4235010000000 1.0
C      1  0.5069160000000  0.4922860000000  0.4378490000000 1.0
C      1  0.4637250000000  0.4648920000000  0.5559300000000 1.0
C      1  0.5811360000000  0.4917330000000  0.4890040000000 1.0
C      1  0.4967760000000  0.5497140000000  0.4742540000000 1.0
C      1  0.4256620000000  0.4359230000000  0.5509530000000 1.0
C      1  0.5262240000000  0.4354070000000  0.5108060000000 1.0
C      1  0.5711140000000  0.4425430000000  0.5004680000000 1.0
C      1  0.5118860000000  0.5157590000000  0.5433240000000 1.0
C      1  0.4355180000000  0.4632370000000  0.4295290000000 1.0
C      1  0.4955720000000  0.4626500000000  0.4420590000000 1.0
C      1  0.4119310000000  0.5064640000000  0.4174130000000 1.0
C      1  0.4693710000000  0.5178360000000  0.5479390000000 1.0
C      1  0.5588810000000  0.4081820000000  0.5469490000000 1.0
C      1  0.4747500000000  0.4294020000000  0.4250610000000 1.0
C      1  0.4826990000000  0.4796310000000  0.5128310000000 1.0
C      1  0.5054330000000  0.4312060000000  0.4336690000000 1.0
C      1  0.4643660000000  0.4141820000000  0.4536450000000 1.0
C      1  0.5037860000000  0.4453750000000  0.5650030000000 1.0
C      1  0.4787410000000  0.5437880000000  0.4460340000000 1.0
C      1  0.4467660000000  0.5236910000000  0.5017750000000 1.0
C      1  0.4759160000000  0.4541010000000  0.4084580000000 1.0
C      1  0.5007540000000  0.4614050000000  0.5351460000000 1.0
END
