TITL C-2847945-6269-435 -205.993290364178 125000 -827.075076229704 0 0 156 (C1) n - 1
REM
REM in /home/bkarasulu/work/CARBON/AIRSS/Generating-Clusters/AIREBO/with-SteepDescent/Only-C1/SD-CG-opt/Try1-1.4A-POS3A/HFTN-CG
REM
REM
REM
REM
REM
REM ./C.cell (11c1c37f851c82e70ff6c80c92926a4b)
REM
REM compiler GCC version 9.2.1 20190827 (Red Hat 9.2.1-1)
REM options -cpp -mtune=generic -march=x86-64 -g -O0 -fpre-include=/usr/include/finclude/math-vector-fortran.h
REM seed 577607051 147675128 -1030082073 -636316718 -1247467098 603102736 -1525601314 1179449084 -111112922 655164080 772470353 282691937 1548359010 -328677762 1768916131 688285562 187872197 2099071470 -660431104 -1224488638 -415802298 1978184148 -1272313856 2040570092 219536200 -328480317 -852411192 1498716722 530236537 1907752097 -398717221 1292584334 1295070645
REM
CELL 1.54180   50.00000   50.00000   50.00000   90.00000   90.00000   90.00000
LATT -1
SFAC C  
C      1  0.4328440000000  0.5484050000000  0.4156180000000 1.0
C      1  0.5896430000000  0.5086230000000  0.5461810000000 1.0
C      1  0.4439950000000  0.4411340000000  0.4663710000000 1.0
C      1  0.4845310000000  0.6154620000000  0.4926510000000 1.0
C      1  0.5075190000000  0.4157420000000  0.4831540000000 1.0
C      1  0.4987130000000  0.4254840000000  0.4545090000000 1.0
C      1  0.5634000000000  0.4353230000000  0.5344240000000 1.0
C      1  0.5364020000000  0.4366830000000  0.5549140000000 1.0
C      1  0.5680210000000  0.5658780000000  0.5098620000000 1.0
C      1  0.4811630000000  0.5504580000000  0.4044860000000 1.0
C      1  0.5138270000000  0.5257280000000  0.5446380000000 1.0
C      1  0.4952820000000  0.4804420000000  0.4458320000000 1.0
C      1  0.5052400000000  0.5303940000000  0.4112890000000 1.0
C      1  0.5829530000000  0.4785970000000  0.5558970000000 1.0
C      1  0.4136060000000  0.4696360000000  0.5348880000000 1.0
C      1  0.5429610000000  0.5458330000000  0.4195700000000 1.0
C      1  0.4757210000000  0.4902940000000  0.4229860000000 1.0
C      1  0.4763420000000  0.4932390000000  0.4710040000000 1.0
C      1  0.4875070000000  0.4808600000000  0.6063500000000 1.0
C      1  0.4519210000000  0.4731330000000  0.4588630000000 1.0
C      1  0.5852540000000  0.4468260000000  0.5110980000000 1.0
C      1  0.4538870000000  0.4462990000000  0.4103190000000 1.0
C      1  0.5780260000000  0.5035850000000  0.4488960000000 1.0
C      1  0.4970880000000  0.5854770000000  0.4942990000000 1.0
C      1  0.4275010000000  0.4396540000000  0.4955500000000 1.0
C      1  0.4877860000000  0.3988320000000  0.5011230000000 1.0
C      1  0.5422070000000  0.4287030000000  0.5843740000000 1.0
C      1  0.5066020000000  0.4912680000000  0.3760280000000 1.0
C      1  0.5107030000000  0.4832200000000  0.5050090000000 1.0
C      1  0.5339480000000  0.5525790000000  0.4578360000000 1.0
C      1  0.4452880000000  0.4501940000000  0.5780330000000 1.0
C      1  0.5315620000000  0.5114030000000  0.4656980000000 1.0
C      1  0.4466980000000  0.5728920000000  0.4303170000000 1.0
C      1  0.4948780000000  0.5525990000000  0.5835190000000 1.0
C      1  0.4188990000000  0.5397950000000  0.5416890000000 1.0
C      1  0.4368440000000  0.4130290000000  0.5146620000000 1.0
C      1  0.4674680000000  0.4208580000000  0.4913760000000 1.0
C      1  0.4718780000000  0.5581530000000  0.6010870000000 1.0
C      1  0.4248300000000  0.5890590000000  0.4883940000000 1.0
C      1  0.4992290000000  0.4827460000000  0.5349320000000 1.0
C      1  0.4501330000000  0.4738260000000  0.4249090000000 1.0
C      1  0.4218180000000  0.4977890000000  0.5431050000000 1.0
C      1  0.4956260000000  0.5686310000000  0.4451380000000 1.0
C      1  0.5376690000000  0.5040960000000  0.6077030000000 1.0
C      1  0.5821150000000  0.4787930000000  0.5864670000000 1.0
C      1  0.5576940000000  0.4907840000000  0.4169540000000 1.0
C      1  0.5325330000000  0.5864630000000  0.5352800000000 1.0
C      1  0.4372160000000  0.4501070000000  0.5238950000000 1.0
C      1  0.4559730000000  0.5484720000000  0.5222650000000 1.0
C      1  0.5933910000000  0.4724480000000  0.4684750000000 1.0
C      1  0.4680930000000  0.4726600000000  0.5351840000000 1.0
C      1  0.4383790000000  0.5193810000000  0.5227010000000 1.0
C      1  0.5156560000000  0.5300090000000  0.4436810000000 1.0
C      1  0.5320730000000  0.4657470000000  0.4432470000000 1.0
C      1  0.5368450000000  0.4093140000000  0.4801240000000 1.0
C      1  0.5546760000000  0.5217260000000  0.4436660000000 1.0
C      1  0.5207720000000  0.5653320000000  0.4224420000000 1.0
C      1  0.5316830000000  0.4681440000000  0.5519530000000 1.0
C      1  0.5896740000000  0.4495090000000  0.5471470000000 1.0
C      1  0.4283220000000  0.4495500000000  0.5563610000000 1.0
C      1  0.5562440000000  0.5470670000000  0.5573340000000 1.0
C      1  0.5220430000000  0.4350580000000  0.4371000000000 1.0
C      1  0.5387980000000  0.4610070000000  0.4875060000000 1.0
C      1  0.4084010000000  0.5342260000000  0.4926120000000 1.0
C      1  0.4220100000000  0.5211480000000  0.4644610000000 1.0
C      1  0.4994940000000  0.3943940000000  0.5303310000000 1.0
C      1  0.4551280000000  0.5337950000000  0.4048540000000 1.0
C      1  0.4798940000000  0.4653360000000  0.5651310000000 1.0
C      1  0.5219840000000  0.4821330000000  0.4667990000000 1.0
C      1  0.5927830000000  0.5425660000000  0.5097260000000 1.0
C      1  0.5152200000000  0.5868030000000  0.4661650000000 1.0
C      1  0.5598220000000  0.5080760000000  0.5958580000000 1.0
C      1  0.5313830000000  0.3949360000000  0.5278610000000 1.0
C      1  0.4312240000000  0.5581350000000  0.5010080000000 1.0
C      1  0.4563050000000  0.5487240000000  0.5736790000000 1.0
C      1  0.4235920000000  0.5014540000000  0.5699280000000 1.0
C      1  0.5642540000000  0.5531010000000  0.4424050000000 1.0
C      1  0.4538860000000  0.5899350000000  0.4924140000000 1.0
C      1  0.5003860000000  0.4502400000000  0.5249720000000 1.0
C      1  0.6080120000000  0.5140120000000  0.4588510000000 1.0
C      1  0.5242600000000  0.5572840000000  0.5518360000000 1.0
C      1  0.4688680000000  0.4481770000000  0.5115920000000 1.0
C      1  0.5535420000000  0.5102630000000  0.5214700000000 1.0
C      1  0.5161840000000  0.5505990000000  0.4831360000000 1.0
C      1  0.4794540000000  0.4434170000000  0.4729630000000 1.0
C      1  0.4892350000000  0.5970290000000  0.5382270000000 1.0
C      1  0.5628480000000  0.4804030000000  0.4802580000000 1.0
C      1  0.4871180000000  0.5602860000000  0.5148770000000 1.0
C      1  0.4799990000000  0.4161680000000  0.5564950000000 1.0
C      1  0.4693510000000  0.5200570000000  0.4273640000000 1.0
C      1  0.5211500000000  0.4371650000000  0.5041270000000 1.0
C      1  0.5955730000000  0.4763560000000  0.5022180000000 1.0
C      1  0.5089120000000  0.5342880000000  0.5120790000000 1.0
C      1  0.4356080000000  0.5461230000000  0.4483610000000 1.0
C      1  0.4451230000000  0.5197980000000  0.4893710000000 1.0
C      1  0.4837180000000  0.5102700000000  0.5478890000000 1.0
C      1  0.5092380000000  0.4244040000000  0.5432070000000 1.0
C      1  0.5086160000000  0.4731110000000  0.5734090000000 1.0
C      1  0.4257670000000  0.5412860000000  0.5682750000000 1.0
C      1  0.5547410000000  0.4339740000000  0.4743980000000 1.0
C      1  0.5287660000000  0.4862990000000  0.3996380000000 1.0
C      1  0.5714720000000  0.4723980000000  0.4420400000000 1.0
C      1  0.4852590000000  0.5362920000000  0.4470840000000 1.0
C      1  0.5136840000000  0.4625080000000  0.6039920000000 1.0
C      1  0.5621270000000  0.5145060000000  0.5655430000000 1.0
C      1  0.5050550000000  0.5269570000000  0.5774720000000 1.0
C      1  0.4314560000000  0.5838010000000  0.5456420000000 1.0
C      1  0.4101480000000  0.5026550000000  0.4975590000000 1.0
C      1  0.4612190000000  0.4765450000000  0.5896700000000 1.0
C      1  0.4168630000000  0.5655490000000  0.5301650000000 1.0
C      1  0.5582660000000  0.5730350000000  0.5380310000000 1.0
C      1  0.4494430000000  0.4076120000000  0.4680300000000 1.0
C      1  0.4858800000000  0.4691990000000  0.4896450000000 1.0
C      1  0.4740480000000  0.5768960000000  0.4707960000000 1.0
C      1  0.4680080000000  0.4236500000000  0.4140630000000 1.0
C      1  0.4660580000000  0.5866780000000  0.5191280000000 1.0
C      1  0.5128350000000  0.5992630000000  0.5211130000000 1.0
C      1  0.4663690000000  0.5201820000000  0.5700090000000 1.0
C      1  0.5713180000000  0.5548040000000  0.4718150000000 1.0
C      1  0.5121240000000  0.4689500000000  0.4184560000000 1.0
C      1  0.5390570000000  0.4731750000000  0.5192690000000 1.0
C      1  0.5822500000000  0.5082510000000  0.4823200000000 1.0
C      1  0.4927020000000  0.5034330000000  0.3996500000000 1.0
C      1  0.5703180000000  0.4814410000000  0.5244180000000 1.0
C      1  0.5303780000000  0.4406310000000  0.6060600000000 1.0
C      1  0.5823000000000  0.4308650000000  0.4872880000000 1.0
C      1  0.5346160000000  0.5179850000000  0.4968780000000 1.0
C      1  0.4740460000000  0.5736570000000  0.4217420000000 1.0
C      1  0.4152310000000  0.4662330000000  0.4781470000000 1.0
C      1  0.5360680000000  0.5161850000000  0.4092610000000 1.0
C      1  0.3970100000000  0.4859880000000  0.5140490000000 1.0
C      1  0.5714610000000  0.5329780000000  0.5318390000000 1.0
C      1  0.4196760000000  0.4716330000000  0.4354020000000 1.0
C      1  0.4189550000000  0.4448200000000  0.4445950000000 1.0
C      1  0.5969710000000  0.5088940000000  0.5129620000000 1.0
C      1  0.5626530000000  0.5318760000000  0.4857840000000 1.0
C      1  0.4385030000000  0.4901230000000  0.4835210000000 1.0
C      1  0.5680570000000  0.5832140000000  0.4831410000000 1.0
C      1  0.4671230000000  0.4044550000000  0.5275950000000 1.0
C      1  0.5112250000000  0.5010610000000  0.5926010000000 1.0
C      1  0.5413980000000  0.4191930000000  0.5194500000000 1.0
C      1  0.5372090000000  0.5012500000000  0.5479780000000 1.0
C      1  0.4538780000000  0.5501980000000  0.4769020000000 1.0
C      1  0.4851760000000  0.5371480000000  0.4794450000000 1.0
C      1  0.5547860000000  0.4433470000000  0.4450130000000 1.0
C      1  0.4109020000000  0.4913180000000  0.4553690000000 1.0
C      1  0.4675610000000  0.5032790000000  0.5219510000000 1.0
C      1  0.4621850000000  0.5694830000000  0.5482820000000 1.0
C      1  0.4487660000000  0.5017200000000  0.5817020000000 1.0
C      1  0.4944520000000  0.5723620000000  0.5586190000000 1.0
C      1  0.4706570000000  0.4353380000000  0.5730180000000 1.0
C      1  0.4898000000000  0.5091550000000  0.4981830000000 1.0
C      1  0.4806300000000  0.4102130000000  0.4341000000000 1.0
C      1  0.5360790000000  0.5547260000000  0.5105880000000 1.0
C      1  0.5107030000000  0.4393450000000  0.4081230000000 1.0
C      1  0.5441430000000  0.5833440000000  0.4658890000000 1.0
END
