TITL C-2848505-4874-219 0.00198368140601051 125000 -400.235211774585 0 0 76 (C1) n - 1
REM
REM in /home/bkarasulu/work/CARBON/AIRSS/Generating-Clusters/AIREBO/with-SteepDescent/Only-C1/SD-CG-opt/Try1-1.4A-POS3A/HFTN-CG
REM
REM
REM
REM
REM
REM ./C.cell (11c1c37f851c82e70ff6c80c92926a4b)
REM
REM compiler GCC version 9.2.1 20190827 (Red Hat 9.2.1-1)
REM options -cpp -mtune=generic -march=x86-64 -g -O0 -fpre-include=/usr/include/finclude/math-vector-fortran.h
REM seed -381941392 55004675 101927145 2037685066 -1710976154 115411801 1172981239 -2138887775 -682282646 566328673 -1508455289 764145741 601299788 -607484790 1034773569 364583083 1120119032 362977589 1921105470 1398738277 -939400495 641427170 -1967913685 -429958618 740389421 2006844402 1575896170 -1232212075 -813419052 -1331115126 -812423431 -1912514076 1044051230
REM
CELL 1.54180   50.00000   50.00000   50.00000   90.00000   90.00000   90.00000
LATT -1
SFAC C  
C      1  0.5568130000000  0.4546090000000  0.5295280000000 1.0
C      1  0.4698070000000  0.5603050000000  0.5486940000000 1.0
C      1  0.4683890000000  0.4893660000000  0.5036790000000 1.0
C      1  0.4700600000000  0.4271070000000  0.4797770000000 1.0
C      1  0.4449250000000  0.4641940000000  0.4580120000000 1.0
C      1  0.5238040000000  0.5414950000000  0.5761690000000 1.0
C      1  0.5170910000000  0.4968890000000  0.5327900000000 1.0
C      1  0.5188800000000  0.5448040000000  0.5446410000000 1.0
C      1  0.4534620000000  0.5765930000000  0.4847680000000 1.0
C      1  0.4717690000000  0.4693500000000  0.5310090000000 1.0
C      1  0.4568330000000  0.5163650000000  0.5208280000000 1.0
C      1  0.4591240000000  0.4393480000000  0.5269200000000 1.0
C      1  0.4975940000000  0.4963650000000  0.4573670000000 1.0
C      1  0.4952860000000  0.5361320000000  0.4321300000000 1.0
C      1  0.5295110000000  0.5075160000000  0.4610650000000 1.0
C      1  0.4876470000000  0.5265190000000  0.5281250000000 1.0
C      1  0.5354870000000  0.4694960000000  0.5688390000000 1.0
C      1  0.4757840000000  0.5313200000000  0.4515000000000 1.0
C      1  0.4425950000000  0.4707880000000  0.4914350000000 1.0
C      1  0.4949010000000  0.5009920000000  0.5795740000000 1.0
C      1  0.5146140000000  0.4345280000000  0.5395950000000 1.0
C      1  0.5489650000000  0.5399750000000  0.4482890000000 1.0
C      1  0.5082530000000  0.5280040000000  0.5907380000000 1.0
C      1  0.4693430000000  0.4566780000000  0.4405980000000 1.0
C      1  0.5750640000000  0.4986120000000  0.4881610000000 1.0
C      1  0.4130930000000  0.4862620000000  0.4845320000000 1.0
C      1  0.4621860000000  0.4283960000000  0.4536890000000 1.0
C      1  0.5601250000000  0.5177180000000  0.4718190000000 1.0
C      1  0.4930580000000  0.5280300000000  0.4981550000000 1.0
C      1  0.4517300000000  0.5083360000000  0.5550030000000 1.0
C      1  0.5460240000000  0.4835290000000  0.4433590000000 1.0
C      1  0.4761570000000  0.5092380000000  0.4771880000000 1.0
C      1  0.5612970000000  0.5500800000000  0.4757380000000 1.0
C      1  0.5218100000000  0.5331110000000  0.4400480000000 1.0
C      1  0.5700430000000  0.5571850000000  0.5463490000000 1.0
C      1  0.4579800000000  0.5912330000000  0.5073620000000 1.0
C      1  0.4727350000000  0.5489200000000  0.4804300000000 1.0
C      1  0.4672450000000  0.4605360000000  0.4131170000000 1.0
C      1  0.4947930000000  0.4654800000000  0.4532650000000 1.0
C      1  0.4062620000000  0.5111200000000  0.4941900000000 1.0
C      1  0.5294280000000  0.5803880000000  0.5304350000000 1.0
C      1  0.5577680000000  0.4813640000000  0.5095030000000 1.0
C      1  0.4467730000000  0.5349300000000  0.4973550000000 1.0
C      1  0.5209270000000  0.4262410000000  0.5091780000000 1.0
C      1  0.5696540000000  0.4706560000000  0.4601320000000 1.0
C      1  0.4789030000000  0.5906050000000  0.5243460000000 1.0
C      1  0.4993910000000  0.5699380000000  0.5380530000000 1.0
C      1  0.5513830000000  0.5584820000000  0.5250090000000 1.0
C      1  0.4643420000000  0.4966330000000  0.5755060000000 1.0
C      1  0.6012260000000  0.4980570000000  0.4893160000000 1.0
C      1  0.4994220000000  0.4324180000000  0.4832490000000 1.0
C      1  0.4275100000000  0.4661380000000  0.5202160000000 1.0
C      1  0.5493240000000  0.5011030000000  0.5314570000000 1.0
C      1  0.5133800000000  0.4764510000000  0.5850000000000 1.0
C      1  0.5038820000000  0.4556260000000  0.5076940000000 1.0
C      1  0.5531250000000  0.4909720000000  0.5613680000000 1.0
C      1  0.5040130000000  0.5156380000000  0.5529670000000 1.0
C      1  0.5023980000000  0.4896840000000  0.5046380000000 1.0
C      1  0.5649760000000  0.5639850000000  0.4975050000000 1.0
C      1  0.4878620000000  0.4427030000000  0.5419110000000 1.0
C      1  0.5367730000000  0.5293070000000  0.5201480000000 1.0
C      1  0.4007840000000  0.4745630000000  0.4618920000000 1.0
C      1  0.5381870000000  0.4480670000000  0.4894320000000 1.0
C      1  0.4535520000000  0.4393960000000  0.4985540000000 1.0
C      1  0.4960830000000  0.5699530000000  0.4759620000000 1.0
C      1  0.4200920000000  0.4625710000000  0.4462120000000 1.0
C      1  0.4205000000000  0.5342800000000  0.4925850000000 1.0
C      1  0.5283420000000  0.4559700000000  0.4341990000000 1.0
C      1  0.5367830000000  0.4487440000000  0.5495240000000 1.0
C      1  0.5144060000000  0.4693480000000  0.4801640000000 1.0
C      1  0.5649990000000  0.4601950000000  0.4849390000000 1.0
C      1  0.5431340000000  0.4716290000000  0.4114910000000 1.0
C      1  0.5157620000000  0.4387660000000  0.4550090000000 1.0
C      1  0.5213990000000  0.5154460000000  0.4931430000000 1.0
C      1  0.4887600000000  0.5443200000000  0.4072700000000 1.0
C      1  0.4542200000000  0.5389110000000  0.5461640000000 1.0
END
