TITL C-2847952-8118-92 -0.000436159915727621 125000 -326.709471210376 0 0 60 (C1) n - 1
REM
REM in /home/bkarasulu/work/CARBON/AIRSS/Generating-Clusters/AIREBO/with-SteepDescent/Only-C1/SD-CG-opt/Try1-1.4A-POS3A/HFTN-CG
REM
REM
REM
REM
REM
REM ./C.cell (11c1c37f851c82e70ff6c80c92926a4b)
REM
REM compiler GCC version 9.2.1 20190827 (Red Hat 9.2.1-1)
REM options -cpp -mtune=generic -march=x86-64 -g -O0 -fpre-include=/usr/include/finclude/math-vector-fortran.h
REM seed -1663910947 -1097175177 -1952926834 -1922002062 -615906575 -1367624261 359159482 -748715872 910051941 -1886483231 -2001163143 1132140918 1876485162 1031844304 -693002634 598510756 -1041509698 -2134513184 1375758906 33924200 1907370481 1245068089 -294311971 1625623499 -1171206454 1060719798 -833690078 92589261 1510689356 -1364933450 1479528235 1533156491 2076182881
REM
CELL 1.54180   50.00000   50.00000   50.00000   90.00000   90.00000   90.00000
LATT -1
SFAC C  
C      1  0.5037560000000  0.5243120000000  0.4778750000000 1.0
C      1  0.4946780000000  0.4210450000000  0.4818830000000 1.0
C      1  0.4422740000000  0.4732460000000  0.5323400000000 1.0
C      1  0.5460920000000  0.4817970000000  0.4773660000000 1.0
C      1  0.5176460000000  0.5422060000000  0.5422490000000 1.0
C      1  0.5035520000000  0.5151550000000  0.5379330000000 1.0
C      1  0.4957660000000  0.4630360000000  0.4375160000000 1.0
C      1  0.4737230000000  0.4899260000000  0.5693220000000 1.0
C      1  0.5944850000000  0.4972550000000  0.4598040000000 1.0
C      1  0.4563800000000  0.5052460000000  0.4868140000000 1.0
C      1  0.5228440000000  0.4269670000000  0.4961650000000 1.0
C      1  0.4499570000000  0.5195460000000  0.5442560000000 1.0
C      1  0.5098740000000  0.4731240000000  0.5720190000000 1.0
C      1  0.5027240000000  0.5063730000000  0.5067560000000 1.0
C      1  0.5148700000000  0.4842470000000  0.5427180000000 1.0
C      1  0.5819990000000  0.5023320000000  0.5294360000000 1.0
C      1  0.5704680000000  0.5469890000000  0.5097370000000 1.0
C      1  0.5343390000000  0.4423060000000  0.5202170000000 1.0
C      1  0.5333600000000  0.5489760000000  0.4426230000000 1.0
C      1  0.5281850000000  0.4257360000000  0.5459830000000 1.0
C      1  0.4935210000000  0.4504550000000  0.5706080000000 1.0
C      1  0.5532470000000  0.5652830000000  0.4614240000000 1.0
C      1  0.5115860000000  0.5071010000000  0.4198410000000 1.0
C      1  0.4727010000000  0.4526960000000  0.4489620000000 1.0
C      1  0.4730010000000  0.4348340000000  0.4734730000000 1.0
C      1  0.5191850000000  0.5240480000000  0.4475570000000 1.0
C      1  0.4502310000000  0.4698570000000  0.5043590000000 1.0
C      1  0.5438090000000  0.4608600000000  0.4937660000000 1.0
C      1  0.5847150000000  0.5284920000000  0.5231970000000 1.0
C      1  0.4775570000000  0.4869480000000  0.5053920000000 1.0
C      1  0.4651600000000  0.5203360000000  0.4419620000000 1.0
C      1  0.4666370000000  0.4611130000000  0.5527190000000 1.0
C      1  0.4360510000000  0.5305560000000  0.4767040000000 1.0
C      1  0.4743180000000  0.5625580000000  0.4697750000000 1.0
C      1  0.5399890000000  0.4721490000000  0.5316070000000 1.0
C      1  0.4042600000000  0.5022340000000  0.5424870000000 1.0
C      1  0.4757070000000  0.5119840000000  0.5530980000000 1.0
C      1  0.4474760000000  0.5572730000000  0.4817570000000 1.0
C      1  0.4489560000000  0.4715550000000  0.4530420000000 1.0
C      1  0.4747170000000  0.5309910000000  0.4943140000000 1.0
C      1  0.5632300000000  0.4841430000000  0.5356520000000 1.0
C      1  0.4540190000000  0.4988320000000  0.4566080000000 1.0
C      1  0.4684950000000  0.5736260000000  0.5247460000000 1.0
C      1  0.5112080000000  0.4856960000000  0.4397650000000 1.0
C      1  0.5069900000000  0.4268050000000  0.5634190000000 1.0
C      1  0.4802680000000  0.4377930000000  0.5297020000000 1.0
C      1  0.4946970000000  0.5779060000000  0.5153230000000 1.0
C      1  0.5708140000000  0.4888930000000  0.4673340000000 1.0
C      1  0.5202520000000  0.4017460000000  0.4763840000000 1.0
C      1  0.5546680000000  0.5546630000000  0.4894050000000 1.0
C      1  0.4821410000000  0.5384020000000  0.4557150000000 1.0
C      1  0.4893540000000  0.4705550000000  0.5292340000000 1.0
C      1  0.5217100000000  0.5758600000000  0.4569200000000 1.0
C      1  0.5147680000000  0.5675630000000  0.5325420000000 1.0
C      1  0.5216570000000  0.5529110000000  0.4821570000000 1.0
C      1  0.5230130000000  0.4965250000000  0.4671620000000 1.0
C      1  0.4963690000000  0.5715080000000  0.4875210000000 1.0
C      1  0.4570730000000  0.5524290000000  0.5105890000000 1.0
C      1  0.4486650000000  0.4545800000000  0.4806400000000 1.0
C      1  0.4308090000000  0.4984200000000  0.5401250000000 1.0
END
