TITL C-2848504-8560-477 -0.00367189946670468 125000 -230.645496333583 0 0 40 (C1) n - 1
REM
REM in /home/bkarasulu/work/CARBON/AIRSS/Generating-Clusters/AIREBO/with-SteepDescent/Only-C1/SD-CG-opt/Try1-1.4A-POS3A/HFTN-CG
REM
REM
REM
REM
REM
REM ./C.cell (11c1c37f851c82e70ff6c80c92926a4b)
REM
REM compiler GCC version 9.2.1 20190827 (Red Hat 9.2.1-1)
REM options -cpp -mtune=generic -march=x86-64 -g -O0 -fpre-include=/usr/include/finclude/math-vector-fortran.h
REM seed -1693476943 119476063 453185308 1342528466 -1930672469 -1280322842 -1892550574 1943389983 -1431186863 437969122 -1979203227 -1522023212 1085298950 91290831 1977128883 2050469448 -626393540 2082836095 -1903855835 775460060 -712626336 1180600938 -1311587013 1149589819 -38506340 1584959616 -127433462 -881890406 243914800 1849161515 1600847471 -835372801 766281745
REM
CELL 1.54180   50.00000   50.00000   50.00000   90.00000   90.00000   90.00000
LATT -1
SFAC C  
C      1  0.5203860000000  0.4689350000000  0.4058130000000 1.0
C      1  0.4720740000000  0.4389720000000  0.4709220000000 1.0
C      1  0.4471900000000  0.4849240000000  0.4948160000000 1.0
C      1  0.5196760000000  0.4691720000000  0.5197190000000 1.0
C      1  0.5375640000000  0.4608620000000  0.4934090000000 1.0
C      1  0.5345510000000  0.5150030000000  0.4969400000000 1.0
C      1  0.5683900000000  0.5390760000000  0.4577450000000 1.0
C      1  0.5206740000000  0.4898480000000  0.4935510000000 1.0
C      1  0.5378620000000  0.5380510000000  0.5252950000000 1.0
C      1  0.4809390000000  0.4446610000000  0.5399140000000 1.0
C      1  0.5109430000000  0.4634280000000  0.4303790000000 1.0
C      1  0.5003760000000  0.5577510000000  0.4901790000000 1.0
C      1  0.4225150000000  0.4425110000000  0.4849890000000 1.0
C      1  0.5254410000000  0.5684770000000  0.5906270000000 1.0
C      1  0.4632030000000  0.5279730000000  0.4919710000000 1.0
C      1  0.5407610000000  0.5094840000000  0.5359270000000 1.0
C      1  0.4469430000000  0.4548710000000  0.4865800000000 1.0
C      1  0.4944540000000  0.4866920000000  0.4775030000000 1.0
C      1  0.4318460000000  0.5012510000000  0.5127250000000 1.0
C      1  0.5129990000000  0.4375380000000  0.4424840000000 1.0
C      1  0.4435360000000  0.5279360000000  0.5135790000000 1.0
C      1  0.4750250000000  0.5512160000000  0.4808370000000 1.0
C      1  0.4709980000000  0.4294260000000  0.5587790000000 1.0
C      1  0.4479270000000  0.5453560000000  0.5347190000000 1.0
C      1  0.5638770000000  0.5712080000000  0.5489670000000 1.0
C      1  0.4681210000000  0.5009740000000  0.4850880000000 1.0
C      1  0.5376620000000  0.4311770000000  0.4547750000000 1.0
C      1  0.5325790000000  0.4866520000000  0.5413250000000 1.0
C      1  0.4991390000000  0.4824240000000  0.4473720000000 1.0
C      1  0.4919710000000  0.4578120000000  0.5199800000000 1.0
C      1  0.5277510000000  0.5475960000000  0.4962220000000 1.0
C      1  0.5482840000000  0.4443680000000  0.4763680000000 1.0
C      1  0.4620690000000  0.5660680000000  0.4624450000000 1.0
C      1  0.4797740000000  0.4618990000000  0.4930060000000 1.0
C      1  0.4891190000000  0.4281770000000  0.4541540000000 1.0
C      1  0.5499360000000  0.5352090000000  0.4747220000000 1.0
C      1  0.5199950000000  0.5614560000000  0.5651130000000 1.0
C      1  0.4938790000000  0.5577130000000  0.5566830000000 1.0
C      1  0.4688470000000  0.5565200000000  0.5474980000000 1.0
C      1  0.5407220000000  0.5573340000000  0.5468790000000 1.0
END
