TITL C-3371503-4580-63 -0.00263292350200673 125000 -669.91581439415 0 0 127 (C1) n - 1
REM
REM in /nfs/bkarasulu/CARBON/AIRSS/Generating-Clusters/AIREBO/with-SteepDescent/Only-C1/SD-CG-opt/Try1-1.4A-POS3A/HFTN-CG
REM
REM
REM
REM
REM
REM ./C.cell (11c1c37f851c82e70ff6c80c92926a4b)
REM
REM compiler GCC version 9.2.1 20190827 (Red Hat 9.2.1-1)
REM options -cpp -mtune=generic -march=x86-64 -g -O0 -fpre-include=/usr/include/finclude/math-vector-fortran.h
REM seed -168675468 1546853720 -394019699 642256977 -150503816 1066358489 941054898 1690876587 -666823069 -1958982062 -1146103308 1924183622 -1969593269 1112408435 -1182513861 -752621365 1140436738 -1957009188 654139961 2042506897 540936961 453146300 -1676401948 1956173858 -139372858 1399209439 -1788103517 -1918617151 -1852736557 615313483 1354462169 -1775720615 -956303198
REM
CELL 1.54180   50.00000   50.00000   50.00000   90.00000   90.00000   90.00000
LATT -1
SFAC C  
C      1  0.5286130000000  0.4969200000000  0.4115290000000 1.0
C      1  0.4890260000000  0.5252650000000  0.5864690000000 1.0
C      1  0.4597880000000  0.5495970000000  0.4638310000000 1.0
C      1  0.6001230000000  0.4963320000000  0.4913050000000 1.0
C      1  0.5318560000000  0.4820910000000  0.5148630000000 1.0
C      1  0.4538240000000  0.4691440000000  0.5913150000000 1.0
C      1  0.5135380000000  0.4239200000000  0.5495290000000 1.0
C      1  0.4781090000000  0.4772940000000  0.4930410000000 1.0
C      1  0.4589450000000  0.4728700000000  0.4265810000000 1.0
C      1  0.4925810000000  0.5046310000000  0.4254080000000 1.0
C      1  0.5587130000000  0.5349900000000  0.5669210000000 1.0
C      1  0.5271130000000  0.4463360000000  0.4475850000000 1.0
C      1  0.5547780000000  0.4792740000000  0.5899370000000 1.0
C      1  0.4386980000000  0.4971500000000  0.4963360000000 1.0
C      1  0.4533620000000  0.4708600000000  0.5401300000000 1.0
C      1  0.4798480000000  0.5175660000000  0.3981860000000 1.0
C      1  0.4817000000000  0.5636890000000  0.4190660000000 1.0
C      1  0.4388160000000  0.4505160000000  0.5198720000000 1.0
C      1  0.5193130000000  0.4742870000000  0.4641690000000 1.0
C      1  0.4866100000000  0.4746020000000  0.4548420000000 1.0
C      1  0.5367710000000  0.5429210000000  0.5093460000000 1.0
C      1  0.5308440000000  0.5952320000000  0.5234700000000 1.0
C      1  0.5228870000000  0.5660690000000  0.4579800000000 1.0
C      1  0.5349270000000  0.4214220000000  0.5230840000000 1.0
C      1  0.5668580000000  0.5033190000000  0.5747420000000 1.0
C      1  0.5787230000000  0.4561270000000  0.5159430000000 1.0
C      1  0.5094640000000  0.4690450000000  0.4075620000000 1.0
C      1  0.5476070000000  0.5174220000000  0.4518470000000 1.0
C      1  0.4198760000000  0.4571240000000  0.5546980000000 1.0
C      1  0.5565910000000  0.5681780000000  0.5689650000000 1.0
C      1  0.5444410000000  0.4582400000000  0.5682990000000 1.0
C      1  0.4799860000000  0.4269640000000  0.4372350000000 1.0
C      1  0.5236840000000  0.5700960000000  0.5622170000000 1.0
C      1  0.5050480000000  0.5117040000000  0.5149790000000 1.0
C      1  0.5217700000000  0.4819910000000  0.5911120000000 1.0
C      1  0.5558890000000  0.5473710000000  0.4461810000000 1.0
C      1  0.4538490000000  0.5737310000000  0.5195390000000 1.0
C      1  0.4509420000000  0.4442240000000  0.5602650000000 1.0
C      1  0.4858420000000  0.5735400000000  0.5111890000000 1.0
C      1  0.5464210000000  0.5745440000000  0.5014080000000 1.0
C      1  0.5437770000000  0.5523180000000  0.5413300000000 1.0
C      1  0.4241200000000  0.5673430000000  0.4651930000000 1.0
C      1  0.5846410000000  0.5143760000000  0.5479420000000 1.0
C      1  0.4600150000000  0.5608600000000  0.4317480000000 1.0
C      1  0.4799860000000  0.4295340000000  0.5502270000000 1.0
C      1  0.5642700000000  0.4305680000000  0.5170880000000 1.0
C      1  0.5131230000000  0.5076130000000  0.5838370000000 1.0
C      1  0.4927720000000  0.4535360000000  0.5328150000000 1.0
C      1  0.4645460000000  0.5577490000000  0.5540090000000 1.0
C      1  0.4166840000000  0.5394920000000  0.4727410000000 1.0
C      1  0.5668440000000  0.4383940000000  0.4681580000000 1.0
C      1  0.5709870000000  0.5005280000000  0.4423160000000 1.0
C      1  0.4993060000000  0.5869120000000  0.4466420000000 1.0
C      1  0.5232950000000  0.5273400000000  0.4135760000000 1.0
C      1  0.4259420000000  0.4658480000000  0.5000950000000 1.0
C      1  0.4116540000000  0.5061180000000  0.5149080000000 1.0
C      1  0.5351550000000  0.4732670000000  0.5449990000000 1.0
C      1  0.4430350000000  0.4252690000000  0.5099880000000 1.0
C      1  0.4959110000000  0.4166890000000  0.4929420000000 1.0
C      1  0.5810170000000  0.5251080000000  0.4856620000000 1.0
C      1  0.4395620000000  0.5373900000000  0.5485330000000 1.0
C      1  0.4875520000000  0.4847680000000  0.5248440000000 1.0
C      1  0.5031930000000  0.5456500000000  0.5139650000000 1.0
C      1  0.4560620000000  0.5038030000000  0.4404190000000 1.0
C      1  0.5432020000000  0.4264320000000  0.4590390000000 1.0
C      1  0.4610040000000  0.4496350000000  0.4830740000000 1.0
C      1  0.4562290000000  0.4098330000000  0.4519490000000 1.0
C      1  0.4765130000000  0.5204880000000  0.4986010000000 1.0
C      1  0.4736950000000  0.5020780000000  0.4701530000000 1.0
C      1  0.4456750000000  0.5291850000000  0.4872180000000 1.0
C      1  0.4611520000000  0.5242870000000  0.5286970000000 1.0
C      1  0.4563390000000  0.4949090000000  0.5215980000000 1.0
C      1  0.5830350000000  0.5316960000000  0.5187260000000 1.0
C      1  0.4122010000000  0.4775480000000  0.4388950000000 1.0
C      1  0.5308400000000  0.5199790000000  0.5607960000000 1.0
C      1  0.5635360000000  0.5043210000000  0.5244930000000 1.0
C      1  0.4416340000000  0.5202400000000  0.4252130000000 1.0
C      1  0.5096410000000  0.5439650000000  0.5678960000000 1.0
C      1  0.4798310000000  0.5934400000000  0.4669290000000 1.0
C      1  0.4251760000000  0.4876260000000  0.4666140000000 1.0
C      1  0.5207450000000  0.5018260000000  0.4442520000000 1.0
C      1  0.5087510000000  0.5451620000000  0.4804220000000 1.0
C      1  0.5016110000000  0.5175020000000  0.4644950000000 1.0
C      1  0.4274390000000  0.4691070000000  0.4202070000000 1.0
C      1  0.4781210000000  0.5853860000000  0.5411970000000 1.0
C      1  0.5367260000000  0.4601580000000  0.4238480000000 1.0
C      1  0.4536530000000  0.5811060000000  0.4656470000000 1.0
C      1  0.5213870000000  0.5985190000000  0.4939320000000 1.0
C      1  0.5018970000000  0.4565050000000  0.5846830000000 1.0
C      1  0.5922790000000  0.5062050000000  0.4597290000000 1.0
C      1  0.5321860000000  0.5109520000000  0.5328530000000 1.0
C      1  0.5112530000000  0.5534730000000  0.4285930000000 1.0
C      1  0.5228480000000  0.4050040000000  0.4971350000000 1.0
C      1  0.5476290000000  0.4871780000000  0.4779140000000 1.0
C      1  0.4198360000000  0.4498640000000  0.4785900000000 1.0
C      1  0.4161300000000  0.5363840000000  0.5259990000000 1.0
C      1  0.5546880000000  0.5665540000000  0.4694030000000 1.0
C      1  0.4382670000000  0.5519850000000  0.5113370000000 1.0
C      1  0.5665150000000  0.4657520000000  0.4610890000000 1.0
C      1  0.5772030000000  0.4251700000000  0.4907610000000 1.0
C      1  0.4894300000000  0.5450380000000  0.4535650000000 1.0
C      1  0.4727910000000  0.4480650000000  0.5862060000000 1.0
C      1  0.4319090000000  0.5109050000000  0.5651940000000 1.0
C      1  0.4794910000000  0.4841220000000  0.4019340000000 1.0
C      1  0.4533520000000  0.4694750000000  0.4599570000000 1.0
C      1  0.5094310000000  0.4400030000000  0.5105440000000 1.0
C      1  0.4846020000000  0.4508450000000  0.4229240000000 1.0
C      1  0.5365710000000  0.4027270000000  0.4727370000000 1.0
C      1  0.4792370000000  0.4256240000000  0.4713740000000 1.0
C      1  0.5474570000000  0.5205100000000  0.4857510000000 1.0
C      1  0.4053320000000  0.5116950000000  0.4813300000000 1.0
C      1  0.4399260000000  0.4237440000000  0.4764910000000 1.0
C      1  0.5615780000000  0.4732840000000  0.4315090000000 1.0
C      1  0.6020170000000  0.4740490000000  0.5078830000000 1.0
C      1  0.4944260000000  0.5929960000000  0.4909810000000 1.0
C      1  0.5110670000000  0.5888090000000  0.5430780000000 1.0
C      1  0.4157790000000  0.4893110000000  0.5444460000000 1.0
C      1  0.4643450000000  0.5176120000000  0.5728900000000 1.0
C      1  0.5081950000000  0.4684280000000  0.5549400000000 1.0
C      1  0.5108460000000  0.4686510000000  0.4966190000000 1.0
C      1  0.4461090000000  0.4827710000000  0.5696220000000 1.0
C      1  0.4856610000000  0.5040310000000  0.5527990000000 1.0
C      1  0.5687060000000  0.4705320000000  0.6123310000000 1.0
C      1  0.5248920000000  0.4367490000000  0.5725720000000 1.0
C      1  0.5750440000000  0.5569220000000  0.4961390000000 1.0
C      1  0.5625850000000  0.4799900000000  0.5056630000000 1.0
C      1  0.4891350000000  0.5365860000000  0.5435880000000 1.0
END
