TITL C-3371509-8222-36 0.00135379165007257 125000 -203.191320918546 0 0 37 (C1) n - 1
REM
REM in /nfs/bkarasulu/CARBON/AIRSS/Generating-Clusters/AIREBO/with-SteepDescent/Only-C1/SD-CG-opt/Try1-1.4A-POS3A/HFTN-CG
REM
REM
REM
REM
REM
REM ./C.cell (11c1c37f851c82e70ff6c80c92926a4b)
REM
REM compiler GCC version 9.2.1 20190827 (Red Hat 9.2.1-1)
REM options -cpp -mtune=generic -march=x86-64 -g -O0 -fpre-include=/usr/include/finclude/math-vector-fortran.h
REM seed 1047420727 -1396901478 -116517833 931171019 -1786637855 1065206536 -1726577449 -1921065482 -1742213604 -28226270 319621492 -95670222 1420849466 -1995044498 409179176 -1614080870 1551311653 -1286177492 1550936795 92732733 19862472 979807447 -827374254 1336930798 1539051849 2143892282 943309736 -1122506281 144311540 345802219 -1118847347 -1170703152 -2097792754
REM
CELL 1.54180   50.00000   50.00000   50.00000   90.00000   90.00000   90.00000
LATT -1
SFAC C  
C      1  0.5212820000000  0.5170710000000  0.5506730000000 1.0
C      1  0.4464580000000  0.5077260000000  0.5604220000000 1.0
C      1  0.4541750000000  0.4835890000000  0.5134940000000 1.0
C      1  0.5538370000000  0.4799870000000  0.5037640000000 1.0
C      1  0.4951860000000  0.5131070000000  0.5553770000000 1.0
C      1  0.5266050000000  0.4603750000000  0.4822460000000 1.0
C      1  0.4421290000000  0.5292010000000  0.5013000000000 1.0
C      1  0.4518670000000  0.4452510000000  0.4771420000000 1.0
C      1  0.4969380000000  0.5022520000000  0.4605920000000 1.0
C      1  0.5777300000000  0.4951060000000  0.4755760000000 1.0
C      1  0.5204250000000  0.5314980000000  0.4965970000000 1.0
C      1  0.5383570000000  0.4942180000000  0.5411760000000 1.0
C      1  0.5063140000000  0.5488620000000  0.4733440000000 1.0
C      1  0.4408240000000  0.5002760000000  0.4946750000000 1.0
C      1  0.5609380000000  0.5084130000000  0.5210140000000 1.0
C      1  0.4581630000000  0.4569330000000  0.5070370000000 1.0
C      1  0.5135740000000  0.4792000000000  0.5028760000000 1.0
C      1  0.4712390000000  0.4894150000000  0.4541350000000 1.0
C      1  0.5832040000000  0.5063650000000  0.4976930000000 1.0
C      1  0.5007670000000  0.5061630000000  0.4928920000000 1.0
C      1  0.5347700000000  0.4274050000000  0.4794860000000 1.0
C      1  0.5224410000000  0.4752970000000  0.5280910000000 1.0
C      1  0.4695730000000  0.5022100000000  0.5358370000000 1.0
C      1  0.4794910000000  0.4382070000000  0.4910190000000 1.0
C      1  0.4424040000000  0.4937560000000  0.4672660000000 1.0
C      1  0.5227750000000  0.4864220000000  0.4522090000000 1.0
C      1  0.4748840000000  0.5170560000000  0.5071750000000 1.0
C      1  0.4660290000000  0.5477930000000  0.4956470000000 1.0
C      1  0.5235640000000  0.5589780000000  0.5166670000000 1.0
C      1  0.4872840000000  0.5643200000000  0.4894810000000 1.0
C      1  0.5052400000000  0.4344580000000  0.4864240000000 1.0
C      1  0.5490230000000  0.4808850000000  0.4701080000000 1.0
C      1  0.4506880000000  0.4646620000000  0.4568750000000 1.0
C      1  0.4718240000000  0.5146850000000  0.5736870000000 1.0
C      1  0.4998600000000  0.5327590000000  0.4522630000000 1.0
C      1  0.5027930000000  0.5757930000000  0.5110410000000 1.0
C      1  0.5373450000000  0.5303060000000  0.5246990000000 1.0
END
