TITL C-3371501-9953-60 0.000534720875608451 125000 -149.962990736909 0 0 28 (C1) n - 1
REM
REM in /nfs/bkarasulu/CARBON/AIRSS/Generating-Clusters/AIREBO/with-SteepDescent/Only-C1/SD-CG-opt/Try1-1.4A-POS3A/HFTN-CG
REM
REM
REM
REM
REM
REM ./C.cell (11c1c37f851c82e70ff6c80c92926a4b)
REM
REM compiler GCC version 9.2.1 20190827 (Red Hat 9.2.1-1)
REM options -cpp -mtune=generic -march=x86-64 -g -O0 -fpre-include=/usr/include/finclude/math-vector-fortran.h
REM seed -1386864026 129325011 899181922 1755108648 -1068279561 -1494295035 -1146866239 -1219938324 -116242294 368616759 259604711 -697021638 687791549 761497630 1704071192 -746312580 -2121692178 1618055078 -777257891 -1981394484 -591799817 -1313100857 1982373928 -1292721429 -1341863023 1403472976 405821894 67781369 -440979895 1379422523 -1760469169 -615539445 728320802
REM
CELL 1.54180   50.00000   50.00000   50.00000   90.00000   90.00000   90.00000
LATT -1
SFAC C  
C      1  0.4691540000000  0.4346770000000  0.5067730000000 1.0
C      1  0.4417830000000  0.5179760000000  0.4999480000000 1.0
C      1  0.5305000000000  0.4757670000000  0.4988180000000 1.0
C      1  0.4490850000000  0.4741100000000  0.4701490000000 1.0
C      1  0.4893340000000  0.4576420000000  0.5218710000000 1.0
C      1  0.4919490000000  0.4523260000000  0.4888520000000 1.0
C      1  0.4880870000000  0.4862020000000  0.5370500000000 1.0
C      1  0.5425770000000  0.5029890000000  0.4903820000000 1.0
C      1  0.4605890000000  0.4506330000000  0.4788930000000 1.0
C      1  0.5161470000000  0.4634800000000  0.4778140000000 1.0
C      1  0.5271500000000  0.5024420000000  0.5412830000000 1.0
C      1  0.5247400000000  0.5443430000000  0.5138890000000 1.0
C      1  0.5702530000000  0.5019610000000  0.4872250000000 1.0
C      1  0.5370090000000  0.5281940000000  0.4598880000000 1.0
C      1  0.4835070000000  0.5383010000000  0.4569040000000 1.0
C      1  0.4553460000000  0.4998370000000  0.4779880000000 1.0
C      1  0.5339670000000  0.5049060000000  0.4446660000000 1.0
C      1  0.4597010000000  0.5094210000000  0.5798380000000 1.0
C      1  0.4846980000000  0.5183930000000  0.5298630000000 1.0
C      1  0.4711040000000  0.5055360000000  0.5575840000000 1.0
C      1  0.5184800000000  0.4744450000000  0.5267000000000 1.0
C      1  0.4843520000000  0.5176540000000  0.4760200000000 1.0
C      1  0.4705500000000  0.5242390000000  0.5050810000000 1.0
C      1  0.5143320000000  0.5251140000000  0.5320210000000 1.0
C      1  0.5161550000000  0.4816990000000  0.4537410000000 1.0
C      1  0.5325750000000  0.5340460000000  0.4894510000000 1.0
C      1  0.5257740000000  0.5705450000000  0.5200060000000 1.0
C      1  0.5111010000000  0.5031210000000  0.4773020000000 1.0
END
