TITL C-3371503-4580-3 0.0022532595443097 125000 -920.97628257888 0 0 166 (C1) n - 1
REM
REM in /nfs/bkarasulu/CARBON/AIRSS/Generating-Clusters/AIREBO/with-SteepDescent/Only-C1/SD-CG-opt/Try1-1.4A-POS3A/HFTN-CG
REM
REM
REM
REM
REM
REM ./C.cell (11c1c37f851c82e70ff6c80c92926a4b)
REM
REM compiler GCC version 9.2.1 20190827 (Red Hat 9.2.1-1)
REM options -cpp -mtune=generic -march=x86-64 -g -O0 -fpre-include=/usr/include/finclude/math-vector-fortran.h
REM seed -1610500007 1672469648 -183157566 -349336389 -587061845 -784948012 -1664404843 -1974003256 1656114248 -503077813 -1528131275 1064064105 15997099 -2017910978 -1999321565 1322576938 1330479572 -805394303 935415141 -808589758 1088533599 -1199606699 -1517428002 1740147323 930301430 187216481 1151123819 295906690 -1300182229 108337964 -1391914579 -962218128 1619919070
REM
CELL 1.54180   50.00000   50.00000   50.00000   90.00000   90.00000   90.00000
LATT -1
SFAC C  
C      1  0.4140850000000  0.5190570000000  0.4447400000000 1.0
C      1  0.4565120000000  0.4202200000000  0.4326940000000 1.0
C      1  0.5073290000000  0.5384960000000  0.3944050000000 1.0
C      1  0.5730050000000  0.5374360000000  0.4915140000000 1.0
C      1  0.4898630000000  0.4160570000000  0.5734300000000 1.0
C      1  0.4757010000000  0.5310500000000  0.4524030000000 1.0
C      1  0.4697440000000  0.5601330000000  0.4627390000000 1.0
C      1  0.4426390000000  0.4128600000000  0.5347760000000 1.0
C      1  0.5636310000000  0.4534540000000  0.5604270000000 1.0
C      1  0.5439690000000  0.5321800000000  0.5046970000000 1.0
C      1  0.4986560000000  0.4144840000000  0.5443180000000 1.0
C      1  0.4914430000000  0.4353870000000  0.4969190000000 1.0
C      1  0.4504180000000  0.5148960000000  0.4593050000000 1.0
C      1  0.6067680000000  0.5161940000000  0.4466010000000 1.0
C      1  0.5001960000000  0.5376420000000  0.5873760000000 1.0
C      1  0.5286320000000  0.4569660000000  0.5137680000000 1.0
C      1  0.4293790000000  0.5436840000000  0.4323220000000 1.0
C      1  0.5217310000000  0.4621200000000  0.5436190000000 1.0
C      1  0.5471950000000  0.5448390000000  0.5354110000000 1.0
C      1  0.5458610000000  0.5178100000000  0.5988450000000 1.0
C      1  0.4350260000000  0.4663440000000  0.5405330000000 1.0
C      1  0.5461070000000  0.4442720000000  0.4267980000000 1.0
C      1  0.3909460000000  0.4668450000000  0.5108840000000 1.0
C      1  0.4386890000000  0.4491800000000  0.5763340000000 1.0
C      1  0.4285000000000  0.5613630000000  0.5492930000000 1.0
C      1  0.4131770000000  0.4456120000000  0.4685620000000 1.0
C      1  0.5298080000000  0.6030280000000  0.4889430000000 1.0
C      1  0.5227350000000  0.4917580000000  0.4204490000000 1.0
C      1  0.5769010000000  0.5640030000000  0.5123840000000 1.0
C      1  0.4113430000000  0.4623450000000  0.4385710000000 1.0
C      1  0.4372070000000  0.4684330000000  0.4762020000000 1.0
C      1  0.4814900000000  0.5066750000000  0.4355780000000 1.0
C      1  0.5566060000000  0.4422980000000  0.5011740000000 1.0
C      1  0.4827440000000  0.4707530000000  0.5128870000000 1.0
C      1  0.4541140000000  0.4941470000000  0.4205210000000 1.0
C      1  0.4927110000000  0.5958880000000  0.5537840000000 1.0
C      1  0.6052960000000  0.4387200000000  0.4789740000000 1.0
C      1  0.5126020000000  0.5610730000000  0.4781530000000 1.0
C      1  0.5242120000000  0.5221540000000  0.4075160000000 1.0
C      1  0.5530450000000  0.5124110000000  0.4476030000000 1.0
C      1  0.5510180000000  0.6011300000000  0.5407290000000 1.0
C      1  0.3829500000000  0.4355440000000  0.5147930000000 1.0
C      1  0.5632280000000  0.4812030000000  0.5688600000000 1.0
C      1  0.4064330000000  0.4486130000000  0.5356240000000 1.0
C      1  0.5128800000000  0.5651260000000  0.5954960000000 1.0
C      1  0.4574710000000  0.5593200000000  0.4310320000000 1.0
C      1  0.5796930000000  0.5043120000000  0.4970040000000 1.0
C      1  0.4245980000000  0.5732990000000  0.5218120000000 1.0
C      1  0.4814770000000  0.4269560000000  0.4403810000000 1.0
C      1  0.4262420000000  0.4910160000000  0.4336410000000 1.0
C      1  0.4078240000000  0.5139480000000  0.4991170000000 1.0
C      1  0.4647260000000  0.4651830000000  0.4099150000000 1.0
C      1  0.6212740000000  0.4795990000000  0.5088250000000 1.0
C      1  0.4330430000000  0.4912270000000  0.5010900000000 1.0
C      1  0.4609150000000  0.5914250000000  0.4379130000000 1.0
C      1  0.4889350000000  0.4660270000000  0.3965190000000 1.0
C      1  0.5442570000000  0.4153360000000  0.5179470000000 1.0
C      1  0.4771150000000  0.5249100000000  0.5012160000000 1.0
C      1  0.5300000000000  0.4137500000000  0.5465150000000 1.0
C      1  0.5252110000000  0.5994750000000  0.5603490000000 1.0
C      1  0.5742670000000  0.4709050000000  0.4936840000000 1.0
C      1  0.5525850000000  0.5879510000000  0.5100320000000 1.0
C      1  0.4182720000000  0.5457100000000  0.5027710000000 1.0
C      1  0.5380440000000  0.3994330000000  0.4720010000000 1.0
C      1  0.5352410000000  0.5971430000000  0.4585860000000 1.0
C      1  0.4609540000000  0.4463520000000  0.4865570000000 1.0
C      1  0.5149180000000  0.5548710000000  0.5314660000000 1.0
C      1  0.5576150000000  0.5315750000000  0.5738930000000 1.0
C      1  0.5028330000000  0.5037320000000  0.4790320000000 1.0
C      1  0.5624580000000  0.4354040000000  0.4487760000000 1.0
C      1  0.5167590000000  0.5924130000000  0.4366870000000 1.0
C      1  0.5802360000000  0.5304810000000  0.4400750000000 1.0
C      1  0.4394700000000  0.5964320000000  0.4798970000000 1.0
C      1  0.4635660000000  0.5995450000000  0.4640400000000 1.0
C      1  0.5561990000000  0.5777210000000  0.4588220000000 1.0
C      1  0.4143270000000  0.4912220000000  0.4654920000000 1.0
C      1  0.4766560000000  0.5878890000000  0.5112690000000 1.0
C      1  0.5438790000000  0.5062430000000  0.5558220000000 1.0
C      1  0.4381090000000  0.4498270000000  0.5115350000000 1.0
C      1  0.4306890000000  0.4111210000000  0.5069880000000 1.0
C      1  0.5841500000000  0.4759510000000  0.4615390000000 1.0
C      1  0.5224910000000  0.4305530000000  0.4174470000000 1.0
C      1  0.5210300000000  0.4446680000000  0.4834290000000 1.0
C      1  0.5022320000000  0.6100240000000  0.5075800000000 1.0
C      1  0.4466670000000  0.5403630000000  0.5207570000000 1.0
C      1  0.4815630000000  0.5486390000000  0.4126770000000 1.0
C      1  0.5973640000000  0.5352460000000  0.5151350000000 1.0
C      1  0.5205420000000  0.4552560000000  0.5730330000000 1.0
C      1  0.4281100000000  0.5147560000000  0.5254440000000 1.0
C      1  0.5661100000000  0.5718410000000  0.5437330000000 1.0
C      1  0.4935060000000  0.4461830000000  0.5868350000000 1.0
C      1  0.5125960000000  0.4804400000000  0.5940420000000 1.0
C      1  0.5532430000000  0.5614730000000  0.5710330000000 1.0
C      1  0.5436810000000  0.4830050000000  0.5019780000000 1.0
C      1  0.4589910000000  0.4858020000000  0.4610420000000 1.0
C      1  0.5043390000000  0.5346340000000  0.5563340000000 1.0
C      1  0.4261550000000  0.5355290000000  0.4712260000000 1.0
C      1  0.5059760000000  0.4936960000000  0.4466610000000 1.0
C      1  0.5123900000000  0.4679280000000  0.4648720000000 1.0
C      1  0.5018860000000  0.4042000000000  0.4879330000000 1.0
C      1  0.4617220000000  0.4970720000000  0.5132710000000 1.0
C      1  0.4715650000000  0.4034400000000  0.5303670000000 1.0
C      1  0.5773170000000  0.5295070000000  0.5391670000000 1.0
C      1  0.5223970000000  0.5759340000000  0.5072220000000 1.0
C      1  0.5031360000000  0.4838660000000  0.5319300000000 1.0
C      1  0.4568460000000  0.5043220000000  0.5788090000000 1.0
C      1  0.5405650000000  0.4318710000000  0.5731060000000 1.0
C      1  0.4793870000000  0.4737950000000  0.5971760000000 1.0
C      1  0.4516310000000  0.4662620000000  0.6020080000000 1.0
C      1  0.4906320000000  0.4414220000000  0.5281890000000 1.0
C      1  0.6056090000000  0.4981770000000  0.4673250000000 1.0
C      1  0.4995520000000  0.4920550000000  0.3986340000000 1.0
C      1  0.5461190000000  0.4723130000000  0.4240780000000 1.0
C      1  0.4322760000000  0.4821480000000  0.5709810000000 1.0
C      1  0.4331280000000  0.5685550000000  0.4754300000000 1.0
C      1  0.4869040000000  0.5216660000000  0.5332640000000 1.0
C      1  0.5086310000000  0.6159760000000  0.5351770000000 1.0
C      1  0.5070520000000  0.4440050000000  0.3972070000000 1.0
C      1  0.3943870000000  0.4861600000000  0.4921800000000 1.0
C      1  0.5906490000000  0.5319580000000  0.5704660000000 1.0
C      1  0.5064700000000  0.4150390000000  0.4357900000000 1.0
C      1  0.5320560000000  0.3959440000000  0.5008110000000 1.0
C      1  0.5131950000000  0.3972840000000  0.4563140000000 1.0
C      1  0.4603780000000  0.5495720000000  0.5504880000000 1.0
C      1  0.5155070000000  0.5139030000000  0.5994640000000 1.0
C      1  0.4442160000000  0.5911680000000  0.5095690000000 1.0
C      1  0.5119420000000  0.5030830000000  0.5581350000000 1.0
C      1  0.5740260000000  0.5496290000000  0.4623840000000 1.0
C      1  0.5424360000000  0.5495100000000  0.4687230000000 1.0
C      1  0.5803890000000  0.5421490000000  0.4119750000000 1.0
C      1  0.4828290000000  0.4509570000000  0.4609080000000 1.0
C      1  0.5300740000000  0.5217950000000  0.4784810000000 1.0
C      1  0.4270860000000  0.4294560000000  0.5525980000000 1.0
C      1  0.4850180000000  0.5696190000000  0.5382190000000 1.0
C      1  0.5049160000000  0.5402860000000  0.5031490000000 1.0
C      1  0.4221820000000  0.5303840000000  0.5520560000000 1.0
C      1  0.6048590000000  0.4591740000000  0.5003480000000 1.0
C      1  0.4565290000000  0.5504170000000  0.4921500000000 1.0
C      1  0.5020030000000  0.5708070000000  0.4285780000000 1.0
C      1  0.5875370000000  0.4455300000000  0.4568850000000 1.0
C      1  0.5652370000000  0.4851070000000  0.4399570000000 1.0
C      1  0.4335820000000  0.4390200000000  0.4427250000000 1.0
C      1  0.6121020000000  0.5092730000000  0.4988600000000 1.0
C      1  0.4749100000000  0.3994600000000  0.5022540000000 1.0
C      1  0.5317190000000  0.5767860000000  0.5796650000000 1.0
C      1  0.4536640000000  0.4133000000000  0.4898760000000 1.0
C      1  0.5043480000000  0.5462360000000  0.4486910000000 1.0
C      1  0.5635980000000  0.4228310000000  0.5504450000000 1.0
C      1  0.5434750000000  0.5066490000000  0.5242070000000 1.0
C      1  0.5120060000000  0.5083720000000  0.5114470000000 1.0
C      1  0.4857650000000  0.5818260000000  0.4805590000000 1.0
C      1  0.4845900000000  0.4885390000000  0.5669840000000 1.0
C      1  0.5834300000000  0.5022180000000  0.5585080000000 1.0
C      1  0.4609740000000  0.5156510000000  0.5481790000000 1.0
C      1  0.4582490000000  0.4594950000000  0.4399780000000 1.0
C      1  0.5386290000000  0.4902510000000  0.4691020000000 1.0
C      1  0.4642880000000  0.4326590000000  0.5752850000000 1.0
C      1  0.4760690000000  0.5160010000000  0.4045620000000 1.0
C      1  0.4617540000000  0.4833310000000  0.5443730000000 1.0
C      1  0.4689000000000  0.5360430000000  0.5811080000000 1.0
C      1  0.5284620000000  0.5279250000000  0.4367120000000 1.0
C      1  0.4182580000000  0.5121170000000  0.5720630000000 1.0
C      1  0.4805870000000  0.4838850000000  0.4823590000000 1.0
C      1  0.5451580000000  0.4881130000000  0.5940010000000 1.0
C      1  0.4113710000000  0.4348570000000  0.4983970000000 1.0
C      1  0.5463200000000  0.4280180000000  0.4723080000000 1.0
END
