TITL C-3371508-3820-20 -0.00314244058743005 125000 -826.559931110152 0 0 153 (C1) n - 1
REM
REM in /nfs/bkarasulu/CARBON/AIRSS/Generating-Clusters/AIREBO/with-SteepDescent/Only-C1/SD-CG-opt/Try1-1.4A-POS3A/HFTN-CG
REM
REM
REM
REM
REM
REM ./C.cell (11c1c37f851c82e70ff6c80c92926a4b)
REM
REM compiler GCC version 9.2.1 20190827 (Red Hat 9.2.1-1)
REM options -cpp -mtune=generic -march=x86-64 -g -O0 -fpre-include=/usr/include/finclude/math-vector-fortran.h
REM seed -139918377 214367334 2012906978 627429305 -106654130 1410826192 1786092734 792213084 -960602822 -370931111 216664112 -1490991914 563140708 -1942313964 1832750127 160432102 -1454881930 -651778544 -2065923837 827972626 -1392563951 293692010 -790343708 -531620194 478326197 1493205576 -68138379 183124568 -37434036 98797731 1813239011 -987637316 -1847362771
REM
CELL 1.54180   50.00000   50.00000   50.00000   90.00000   90.00000   90.00000
LATT -1
SFAC C  
C      1  0.5548460000000  0.5500350000000  0.5007240000000 1.0
C      1  0.5889970000000  0.5199020000000  0.4836440000000 1.0
C      1  0.5286270000000  0.5638510000000  0.5148480000000 1.0
C      1  0.4540370000000  0.5258300000000  0.4105530000000 1.0
C      1  0.4696570000000  0.5031170000000  0.5563060000000 1.0
C      1  0.5627790000000  0.4342070000000  0.4732390000000 1.0
C      1  0.5171810000000  0.4742910000000  0.5568770000000 1.0
C      1  0.4454590000000  0.5303360000000  0.4423760000000 1.0
C      1  0.4960020000000  0.4642660000000  0.4699500000000 1.0
C      1  0.5065810000000  0.5383710000000  0.4074090000000 1.0
C      1  0.4201680000000  0.5384730000000  0.4602010000000 1.0
C      1  0.4499960000000  0.5582260000000  0.5753670000000 1.0
C      1  0.5966710000000  0.4960590000000  0.4602720000000 1.0
C      1  0.4891020000000  0.5253390000000  0.5209630000000 1.0
C      1  0.4043020000000  0.4816130000000  0.4745940000000 1.0
C      1  0.5516770000000  0.4328840000000  0.5612900000000 1.0
C      1  0.4264860000000  0.5107070000000  0.5330000000000 1.0
C      1  0.4967830000000  0.5711760000000  0.4557280000000 1.0
C      1  0.4089620000000  0.5551390000000  0.5154470000000 1.0
C      1  0.4405900000000  0.4593720000000  0.5470410000000 1.0
C      1  0.5297560000000  0.4493780000000  0.5449730000000 1.0
C      1  0.4283540000000  0.5048820000000  0.4181810000000 1.0
C      1  0.6050830000000  0.4908270000000  0.4909000000000 1.0
C      1  0.5223900000000  0.5621450000000  0.5835370000000 1.0
C      1  0.5648620000000  0.4778320000000  0.4238750000000 1.0
C      1  0.4717970000000  0.4523350000000  0.5532260000000 1.0
C      1  0.4638410000000  0.4367020000000  0.5237130000000 1.0
C      1  0.5055080000000  0.5789780000000  0.5592920000000 1.0
C      1  0.5069870000000  0.4655640000000  0.4009540000000 1.0
C      1  0.5422060000000  0.4848220000000  0.5741130000000 1.0
C      1  0.4981220000000  0.6138660000000  0.5094860000000 1.0
C      1  0.4887140000000  0.4879380000000  0.3990680000000 1.0
C      1  0.4873630000000  0.5209970000000  0.4432490000000 1.0
C      1  0.5546950000000  0.4072130000000  0.5514900000000 1.0
C      1  0.4516990000000  0.4530470000000  0.4468280000000 1.0
C      1  0.5642690000000  0.5057510000000  0.4205920000000 1.0
C      1  0.5631510000000  0.4236240000000  0.5046780000000 1.0
C      1  0.4854570000000  0.4236330000000  0.5600580000000 1.0
C      1  0.5480730000000  0.5765220000000  0.4636990000000 1.0
C      1  0.5537430000000  0.5008630000000  0.4755760000000 1.0
C      1  0.4948720000000  0.3955980000000  0.4948830000000 1.0
C      1  0.4737940000000  0.5846300000000  0.5356300000000 1.0
C      1  0.5653450000000  0.5181160000000  0.4499220000000 1.0
C      1  0.4661080000000  0.4685070000000  0.5826490000000 1.0
C      1  0.4755840000000  0.4437750000000  0.4854690000000 1.0
C      1  0.4555160000000  0.4763720000000  0.4236230000000 1.0
C      1  0.5832950000000  0.5284830000000  0.5631260000000 1.0
C      1  0.5376100000000  0.5170540000000  0.4211710000000 1.0
C      1  0.5623470000000  0.5456720000000  0.4333710000000 1.0
C      1  0.4523440000000  0.5322290000000  0.5905480000000 1.0
C      1  0.4758830000000  0.5474330000000  0.4031210000000 1.0
C      1  0.5392310000000  0.5334900000000  0.5906960000000 1.0
C      1  0.5103880000000  0.4148510000000  0.5398810000000 1.0
C      1  0.4593980000000  0.5091360000000  0.5245330000000 1.0
C      1  0.4719000000000  0.6056500000000  0.4958100000000 1.0
C      1  0.4961460000000  0.3950480000000  0.4616060000000 1.0
C      1  0.5196870000000  0.4978980000000  0.4387820000000 1.0
C      1  0.4850610000000  0.5152180000000  0.4887530000000 1.0
C      1  0.4105630000000  0.5764270000000  0.5398670000000 1.0
C      1  0.5219320000000  0.5305380000000  0.5136030000000 1.0
C      1  0.5783190000000  0.4556220000000  0.5421490000000 1.0
C      1  0.4815900000000  0.4943870000000  0.4632420000000 1.0
C      1  0.4052480000000  0.5260480000000  0.5112640000000 1.0
C      1  0.4434510000000  0.5262440000000  0.5004110000000 1.0
C      1  0.4549860000000  0.4980030000000  0.4469090000000 1.0
C      1  0.4855240000000  0.5182570000000  0.6077800000000 1.0
C      1  0.4369140000000  0.5564080000000  0.5440320000000 1.0
C      1  0.5179370000000  0.4384390000000  0.5165770000000 1.0
C      1  0.5788080000000  0.4740950000000  0.4486140000000 1.0
C      1  0.4573540000000  0.4829590000000  0.5029190000000 1.0
C      1  0.4280840000000  0.5292540000000  0.5590250000000 1.0
C      1  0.4555070000000  0.4953510000000  0.3986770000000 1.0
C      1  0.4520100000000  0.5612640000000  0.4307710000000 1.0
C      1  0.5570020000000  0.5665520000000  0.5569380000000 1.0
C      1  0.5889560000000  0.4692490000000  0.4980510000000 1.0
C      1  0.4826370000000  0.5525340000000  0.4360580000000 1.0
C      1  0.4400480000000  0.5597800000000  0.4688260000000 1.0
C      1  0.4838260000000  0.5547530000000  0.4944150000000 1.0
C      1  0.5052670000000  0.5285980000000  0.5492650000000 1.0
C      1  0.5052290000000  0.5358300000000  0.5931610000000 1.0
C      1  0.4675350000000  0.4474040000000  0.4171110000000 1.0
C      1  0.5276030000000  0.4688270000000  0.4349470000000 1.0
C      1  0.5469050000000  0.5299730000000  0.5366710000000 1.0
C      1  0.5762010000000  0.4859590000000  0.5536470000000 1.0
C      1  0.5329990000000  0.4222140000000  0.4603640000000 1.0
C      1  0.4763850000000  0.5551780000000  0.5459430000000 1.0
C      1  0.4363790000000  0.4196720000000  0.5155500000000 1.0
C      1  0.5366020000000  0.4590820000000  0.4983270000000 1.0
C      1  0.4297930000000  0.5818340000000  0.5140280000000 1.0
C      1  0.4487880000000  0.4628580000000  0.4768640000000 1.0
C      1  0.5215080000000  0.5069690000000  0.4678130000000 1.0
C      1  0.4799610000000  0.5321430000000  0.5707070000000 1.0
C      1  0.5307680000000  0.5485170000000  0.4247510000000 1.0
C      1  0.4398910000000  0.4594590000000  0.5156710000000 1.0
C      1  0.4077720000000  0.4654120000000  0.5107640000000 1.0
C      1  0.5649240000000  0.4602330000000  0.5730580000000 1.0
C      1  0.5651370000000  0.5416180000000  0.4729090000000 1.0
C      1  0.4394330000000  0.5010310000000  0.5695710000000 1.0
C      1  0.5013120000000  0.5972450000000  0.5341530000000 1.0
C      1  0.5561660000000  0.4475430000000  0.5235100000000 1.0
C      1  0.4951770000000  0.4457900000000  0.4163940000000 1.0
C      1  0.4181780000000  0.4536480000000  0.4828000000000 1.0
C      1  0.5461930000000  0.4978840000000  0.5429690000000 1.0
C      1  0.4521980000000  0.4232730000000  0.4733920000000 1.0
C      1  0.5732080000000  0.5670120000000  0.4517240000000 1.0
C      1  0.4913050000000  0.4746260000000  0.6040040000000 1.0
C      1  0.5364850000000  0.4005580000000  0.5235530000000 1.0
C      1  0.4586000000000  0.5510470000000  0.5180970000000 1.0
C      1  0.5073460000000  0.5370060000000  0.4751380000000 1.0
C      1  0.4213530000000  0.4997480000000  0.4513750000000 1.0
C      1  0.5832830000000  0.5098640000000  0.5347680000000 1.0
C      1  0.4552020000000  0.5930660000000  0.5155450000000 1.0
C      1  0.5523000000000  0.4503740000000  0.3826410000000 1.0
C      1  0.4424690000000  0.5817820000000  0.4489640000000 1.0
C      1  0.5158930000000  0.4829500000000  0.4902620000000 1.0
C      1  0.5620170000000  0.4679300000000  0.4775360000000 1.0
C      1  0.5409290000000  0.4640220000000  0.4040320000000 1.0
C      1  0.4914710000000  0.4740660000000  0.5359680000000 1.0
C      1  0.4932150000000  0.3905170000000  0.5249200000000 1.0
C      1  0.4925210000000  0.5837540000000  0.4840400000000 1.0
C      1  0.4185660000000  0.5163690000000  0.4818150000000 1.0
C      1  0.5487850000000  0.4479140000000  0.4455650000000 1.0
C      1  0.4240200000000  0.4792370000000  0.5574550000000 1.0
C      1  0.4615910000000  0.4208800000000  0.4460270000000 1.0
C      1  0.5213260000000  0.5907700000000  0.5004500000000 1.0
C      1  0.4618860000000  0.5382860000000  0.4793710000000 1.0
C      1  0.5745490000000  0.5760580000000  0.5086990000000 1.0
C      1  0.5495450000000  0.5877650000000  0.4889770000000 1.0
C      1  0.4886220000000  0.4157810000000  0.4460390000000 1.0
C      1  0.4617720000000  0.4998660000000  0.5951820000000 1.0
C      1  0.4731410000000  0.4010640000000  0.5440720000000 1.0
C      1  0.5946270000000  0.5492110000000  0.4999840000000 1.0
C      1  0.5091940000000  0.4428460000000  0.4468970000000 1.0
C      1  0.5435440000000  0.5032210000000  0.5954200000000 1.0
C      1  0.5264470000000  0.5547500000000  0.5478130000000 1.0
C      1  0.4030200000000  0.4866790000000  0.5354400000000 1.0
C      1  0.3930570000000  0.4952290000000  0.5036610000000 1.0
C      1  0.4990720000000  0.5093210000000  0.4162460000000 1.0
C      1  0.5709500000000  0.3995050000000  0.5247770000000 1.0
C      1  0.4929580000000  0.4867480000000  0.5734530000000 1.0
C      1  0.5359550000000  0.4120940000000  0.4925280000000 1.0
C      1  0.5756390000000  0.5401210000000  0.5257320000000 1.0
C      1  0.5223560000000  0.3874290000000  0.4765000000000 1.0
C      1  0.4294700000000  0.4251920000000  0.4890930000000 1.0
C      1  0.4457910000000  0.4010170000000  0.5366650000000 1.0
C      1  0.4762720000000  0.5742500000000  0.5740990000000 1.0
C      1  0.5707390000000  0.5818830000000  0.5392900000000 1.0
C      1  0.5351490000000  0.5018520000000  0.5109650000000 1.0
C      1  0.5642290000000  0.5447170000000  0.5737990000000 1.0
C      1  0.4888010000000  0.4875720000000  0.5082600000000 1.0
C      1  0.4904990000000  0.4259150000000  0.5065290000000 1.0
C      1  0.5675230000000  0.5062640000000  0.5062250000000 1.0
C      1  0.5248260000000  0.5582440000000  0.4550500000000 1.0
END
