TITL C-3371503-4580-79 0.000286307635488391 125000 -229.454131865894 0 0 42 (C1) n - 1
REM
REM in /nfs/bkarasulu/CARBON/AIRSS/Generating-Clusters/AIREBO/with-SteepDescent/Only-C1/SD-CG-opt/Try1-1.4A-POS3A/HFTN-CG
REM
REM
REM
REM
REM
REM ./C.cell (11c1c37f851c82e70ff6c80c92926a4b)
REM
REM compiler GCC version 9.2.1 20190827 (Red Hat 9.2.1-1)
REM options -cpp -mtune=generic -march=x86-64 -g -O0 -fpre-include=/usr/include/finclude/math-vector-fortran.h
REM seed 492305998 1978629519 1955537381 2064718093 1078533940 -1621687204 1485733025 -1059181353 -1301612012 1389863942 1504241407 -2077011512 -88064572 1977582022 2081679430 -1002426730 1712819296 -1182776862 197687510 -907344356 -929703363 -1570596914 855592498 -33039351 1418868502 1061645589 884407199 -1575521285 -987908205 -1147324016 -574437924 846697871 -121025557
REM
CELL 1.54180   50.00000   50.00000   50.00000   90.00000   90.00000   90.00000
LATT -1
SFAC C  
C      1  0.4254090000000  0.5095620000000  0.4880450000000 1.0
C      1  0.4119670000000  0.5315620000000  0.4476640000000 1.0
C      1  0.5380700000000  0.4727220000000  0.5093510000000 1.0
C      1  0.4649690000000  0.5141480000000  0.5320190000000 1.0
C      1  0.4853380000000  0.5329550000000  0.4723430000000 1.0
C      1  0.5586810000000  0.4944060000000  0.5136890000000 1.0
C      1  0.4909230000000  0.5139610000000  0.4251830000000 1.0
C      1  0.5649060000000  0.4976410000000  0.5454400000000 1.0
C      1  0.4746950000000  0.5688990000000  0.5126350000000 1.0
C      1  0.4612000000000  0.5327970000000  0.5770970000000 1.0
C      1  0.5636170000000  0.5486410000000  0.4754010000000 1.0
C      1  0.5514690000000  0.4836510000000  0.4450910000000 1.0
C      1  0.5441500000000  0.4477190000000  0.5169620000000 1.0
C      1  0.5193410000000  0.5326520000000  0.4722570000000 1.0
C      1  0.4837920000000  0.4577950000000  0.4535750000000 1.0
C      1  0.5380440000000  0.4162820000000  0.5128760000000 1.0
C      1  0.5425140000000  0.5354700000000  0.4859920000000 1.0
C      1  0.5152520000000  0.4797710000000  0.4967870000000 1.0
C      1  0.4740860000000  0.5873240000000  0.5379790000000 1.0
C      1  0.5058940000000  0.3951130000000  0.4772860000000 1.0
C      1  0.4912980000000  0.4069970000000  0.4577580000000 1.0
C      1  0.4976080000000  0.4814740000000  0.4677620000000 1.0
C      1  0.5451660000000  0.5235450000000  0.5114110000000 1.0
C      1  0.4549250000000  0.5310480000000  0.6024840000000 1.0
C      1  0.4832100000000  0.4857590000000  0.4992970000000 1.0
C      1  0.5576180000000  0.4257830000000  0.5366680000000 1.0
C      1  0.4617810000000  0.4934090000000  0.5138530000000 1.0
C      1  0.5521040000000  0.5196210000000  0.5565800000000 1.0
C      1  0.5165000000000  0.5506940000000  0.5416820000000 1.0
C      1  0.4801390000000  0.4313390000000  0.4541100000000 1.0
C      1  0.5279310000000  0.4901320000000  0.4517500000000 1.0
C      1  0.5012200000000  0.5111890000000  0.4515960000000 1.0
C      1  0.4866420000000  0.5558230000000  0.5410790000000 1.0
C      1  0.5264510000000  0.4014340000000  0.4935430000000 1.0
C      1  0.5819050000000  0.4915320000000  0.4979930000000 1.0
C      1  0.4355670000000  0.4885880000000  0.5033990000000 1.0
C      1  0.4715390000000  0.5566960000000  0.4899770000000 1.0
C      1  0.5378890000000  0.5340260000000  0.5366010000000 1.0
C      1  0.4299070000000  0.5278190000000  0.4674130000000 1.0
C      1  0.4225800000000  0.4653710000000  0.5074920000000 1.0
C      1  0.4536690000000  0.5413430000000  0.4687010000000 1.0
C      1  0.4700360000000  0.5333060000000  0.5511770000000 1.0
END
