TITL C-3371509-8222-16 -916.430369644213 125000 -745.12920923026 0 0 138 (C1) n - 1
REM
REM in /nfs/bkarasulu/CARBON/AIRSS/Generating-Clusters/AIREBO/with-SteepDescent/Only-C1/SD-CG-opt/Try1-1.4A-POS3A/HFTN-CG
REM
REM
REM
REM
REM
REM ./C.cell (11c1c37f851c82e70ff6c80c92926a4b)
REM
REM compiler GCC version 9.2.1 20190827 (Red Hat 9.2.1-1)
REM options -cpp -mtune=generic -march=x86-64 -g -O0 -fpre-include=/usr/include/finclude/math-vector-fortran.h
REM seed -695223372 480473136 501179455 78591971 -1131497499 774317458 1250043385 -2048180866 85794419 -451629081 -932798905 1308412779 -2067941529 -1728835472 -1811540019 2013580630 339788199 432499137 356077528 -1232844321 -180018974 -842920898 -383268939 438051759 1859541256 -1831788413 1254872884 582947521 -1863810048 -2118366155 1195548216 1252640055 810237718
REM
CELL 1.54180   50.00000   50.00000   50.00000   90.00000   90.00000   90.00000
LATT -1
SFAC C  
C      1  0.4820930000000  0.4950260000000  0.4519020000000 1.0
C      1  0.5906460000000  0.5026820000000  0.4623070000000 1.0
C      1  0.5450060000000  0.4985420000000  0.4715690000000 1.0
C      1  0.5245580000000  0.4282850000000  0.5680790000000 1.0
C      1  0.5336360000000  0.4619090000000  0.4156400000000 1.0
C      1  0.4906750000000  0.4413500000000  0.4198500000000 1.0
C      1  0.4615170000000  0.3957790000000  0.4922920000000 1.0
C      1  0.4475800000000  0.4237760000000  0.5311600000000 1.0
C      1  0.6251790000000  0.4782500000000  0.4876060000000 1.0
C      1  0.6498790000000  0.4698030000000  0.4899180000000 1.0
C      1  0.4762490000000  0.4624220000000  0.4737860000000 1.0
C      1  0.5083270000000  0.4487480000000  0.5380420000000 1.0
C      1  0.4473060000000  0.3994200000000  0.5170510000000 1.0
C      1  0.4481980000000  0.5685410000000  0.5021520000000 1.0
C      1  0.4379920000000  0.5099550000000  0.5120680000000 1.0
C      1  0.5789110000000  0.5212370000000  0.5538400000000 1.0
C      1  0.5856420000000  0.5167180000000  0.5267810000000 1.0
C      1  0.4593620000000  0.4384420000000  0.5594830000000 1.0
C      1  0.5413510000000  0.5905610000000  0.4524090000000 1.0
C      1  0.4401070000000  0.4696470000000  0.4292640000000 1.0
C      1  0.5052700000000  0.5937760000000  0.5607100000000 1.0
C      1  0.4013720000000  0.5047010000000  0.4932360000000 1.0
C      1  0.5259800000000  0.4640400000000  0.4656440000000 1.0
C      1  0.4497900000000  0.4658880000000  0.5741360000000 1.0
C      1  0.4836520000000  0.5706350000000  0.5202840000000 1.0
C      1  0.4839450000000  0.5812190000000  0.4687930000000 1.0
C      1  0.4206910000000  0.5342500000000  0.4319190000000 1.0
C      1  0.5924410000000  0.5310460000000  0.4623290000000 1.0
C      1  0.5827220000000  0.4909800000000  0.5103230000000 1.0
C      1  0.4991730000000  0.5174840000000  0.5769420000000 1.0
C      1  0.5116510000000  0.4898390000000  0.4510660000000 1.0
C      1  0.4579840000000  0.5929360000000  0.5222850000000 1.0
C      1  0.5475010000000  0.4508780000000  0.5797660000000 1.0
C      1  0.4233700000000  0.5553190000000  0.5305260000000 1.0
C      1  0.5678100000000  0.5479160000000  0.5554520000000 1.0
C      1  0.4056070000000  0.4865960000000  0.5102670000000 1.0
C      1  0.4489320000000  0.4978720000000  0.5625820000000 1.0
C      1  0.5304890000000  0.4814230000000  0.4935480000000 1.0
C      1  0.4662130000000  0.5246130000000  0.5206590000000 1.0
C      1  0.5323870000000  0.5204060000000  0.5264920000000 1.0
C      1  0.4241700000000  0.5051670000000  0.5404380000000 1.0
C      1  0.5280980000000  0.4036000000000  0.5098510000000 1.0
C      1  0.5465000000000  0.5316650000000  0.5008580000000 1.0
C      1  0.4967640000000  0.6012710000000  0.4846940000000 1.0
C      1  0.5408270000000  0.4860740000000  0.4339110000000 1.0
C      1  0.4696360000000  0.5251530000000  0.4572500000000 1.0
C      1  0.5092610000000  0.6004060000000  0.5106730000000 1.0
C      1  0.5538310000000  0.5396400000000  0.4261110000000 1.0
C      1  0.5042010000000  0.4218210000000  0.4770360000000 1.0
C      1  0.5698230000000  0.5482390000000  0.4522230000000 1.0
C      1  0.4242570000000  0.5259390000000  0.4862330000000 1.0
C      1  0.5139890000000  0.5264000000000  0.4906790000000 1.0
C      1  0.5001970000000  0.4899490000000  0.3992380000000 1.0
C      1  0.4374690000000  0.5237160000000  0.4591720000000 1.0
C      1  0.5315400000000  0.5540970000000  0.5311340000000 1.0
C      1  0.5378010000000  0.5428190000000  0.5626050000000 1.0
C      1  0.5322890000000  0.5850500000000  0.5149510000000 1.0
C      1  0.5492090000000  0.4946860000000  0.5153650000000 1.0
C      1  0.5427890000000  0.4680050000000  0.5331330000000 1.0
C      1  0.4293670000000  0.5573970000000  0.4184380000000 1.0
C      1  0.4493110000000  0.5306010000000  0.5721230000000 1.0
C      1  0.4318140000000  0.5023510000000  0.4332740000000 1.0
C      1  0.4576070000000  0.5141830000000  0.5985290000000 1.0
C      1  0.4872820000000  0.5743700000000  0.4391770000000 1.0
C      1  0.5747430000000  0.4676460000000  0.5293970000000 1.0
C      1  0.5379450000000  0.4235330000000  0.5973010000000 1.0
C      1  0.5640050000000  0.5790490000000  0.4655620000000 1.0
C      1  0.4471950000000  0.4497990000000  0.4745520000000 1.0
C      1  0.5370150000000  0.5504340000000  0.4608900000000 1.0
C      1  0.4976760000000  0.4769770000000  0.5273610000000 1.0
C      1  0.5868360000000  0.4648640000000  0.5535860000000 1.0
C      1  0.5661860000000  0.5715580000000  0.4986000000000 1.0
C      1  0.5497360000000  0.5135570000000  0.4175920000000 1.0
C      1  0.4676270000000  0.4835950000000  0.5128750000000 1.0
C      1  0.5247990000000  0.5201130000000  0.4592330000000 1.0
C      1  0.4710710000000  0.5603650000000  0.4837720000000 1.0
C      1  0.5178630000000  0.3993300000000  0.4469800000000 1.0
C      1  0.5301310000000  0.5565020000000  0.4219640000000 1.0
C      1  0.5348040000000  0.5603690000000  0.4917860000000 1.0
C      1  0.4632460000000  0.4600450000000  0.5370150000000 1.0
C      1  0.5207990000000  0.5073740000000  0.4066950000000 1.0
C      1  0.4910070000000  0.4185760000000  0.5184910000000 1.0
C      1  0.5057160000000  0.4621130000000  0.4078660000000 1.0
C      1  0.4552090000000  0.5520780000000  0.3992640000000 1.0
C      1  0.4352710000000  0.4761280000000  0.5142550000000 1.0
C      1  0.4772770000000  0.4452040000000  0.5098310000000 1.0
C      1  0.5304070000000  0.4757200000000  0.5640410000000 1.0
C      1  0.5151140000000  0.5297170000000  0.4291960000000 1.0
C      1  0.4907590000000  0.4279720000000  0.5673530000000 1.0
C      1  0.4996200000000  0.4672970000000  0.4955250000000 1.0
C      1  0.4580010000000  0.5667300000000  0.4282720000000 1.0
C      1  0.3895430000000  0.4224690000000  0.5021140000000 1.0
C      1  0.4333000000000  0.5549640000000  0.5630240000000 1.0
C      1  0.4785090000000  0.4743000000000  0.5839940000000 1.0
C      1  0.4753970000000  0.5029390000000  0.4036420000000 1.0
C      1  0.4730600000000  0.4946890000000  0.4841710000000 1.0
C      1  0.6017520000000  0.5406910000000  0.4860480000000 1.0
C      1  0.5059820000000  0.5540860000000  0.5087190000000 1.0
C      1  0.4583430000000  0.4076140000000  0.4672310000000 1.0
C      1  0.5198020000000  0.5319130000000  0.5966050000000 1.0
C      1  0.4819660000000  0.4087040000000  0.5457280000000 1.0
C      1  0.5200130000000  0.5775270000000  0.4371060000000 1.0
C      1  0.4768300000000  0.5270400000000  0.5529470000000 1.0
C      1  0.4800340000000  0.5280080000000  0.4894990000000 1.0
C      1  0.6001980000000  0.4895400000000  0.4859360000000 1.0
C      1  0.4197550000000  0.4812350000000  0.5679240000000 1.0
C      1  0.5786340000000  0.5411790000000  0.5074740000000 1.0
C      1  0.5084880000000  0.5071180000000  0.5388020000000 1.0
C      1  0.5195550000000  0.5713290000000  0.5593920000000 1.0
C      1  0.5668380000000  0.4924690000000  0.4532030000000 1.0
C      1  0.5728920000000  0.5643510000000  0.5316950000000 1.0
C      1  0.5303190000000  0.4461950000000  0.5122270000000 1.0
C      1  0.5300470000000  0.5097400000000  0.5649630000000 1.0
C      1  0.4131430000000  0.4321790000000  0.5022880000000 1.0
C      1  0.4628150000000  0.4923280000000  0.4279210000000 1.0
C      1  0.4299870000000  0.4511640000000  0.4533000000000 1.0
C      1  0.4747570000000  0.5312840000000  0.4057140000000 1.0
C      1  0.4611970000000  0.4428700000000  0.4298850000000 1.0
C      1  0.5268380000000  0.4406220000000  0.4844500000000 1.0
C      1  0.5355570000000  0.4850640000000  0.5963350000000 1.0
C      1  0.4805580000000  0.5001160000000  0.5932130000000 1.0
C      1  0.5030010000000  0.6102570000000  0.5818210000000 1.0
C      1  0.4207340000000  0.5540410000000  0.4975130000000 1.0
C      1  0.4573510000000  0.5541540000000  0.5311650000000 1.0
C      1  0.4915510000000  0.5992350000000  0.5357540000000 1.0
C      1  0.5189970000000  0.3912910000000  0.4794230000000 1.0
C      1  0.5691820000000  0.4746880000000  0.5736400000000 1.0
C      1  0.5002210000000  0.4605770000000  0.5684050000000 1.0
C      1  0.5198590000000  0.4168010000000  0.5364010000000 1.0
C      1  0.4865760000000  0.5401550000000  0.4340730000000 1.0
C      1  0.4789270000000  0.4328650000000  0.4571260000000 1.0
C      1  0.5628950000000  0.5020660000000  0.5692850000000 1.0
C      1  0.4087440000000  0.5296500000000  0.5446650000000 1.0
C      1  0.5040560000000  0.4195440000000  0.4355680000000 1.0
C      1  0.4435180000000  0.4458080000000  0.5055830000000 1.0
C      1  0.4292420000000  0.4312530000000  0.4295040000000 1.0
C      1  0.4910130000000  0.3972530000000  0.4964910000000 1.0
C      1  0.4787450000000  0.4944850000000  0.5495250000000 1.0
END
