TITL C-3371502-3785-12 -0.00151787005684487 125000 -558.043866922252 0 0 103 (C1) n - 1
REM
REM in /nfs/bkarasulu/CARBON/AIRSS/Generating-Clusters/AIREBO/with-SteepDescent/Only-C1/SD-CG-opt/Try1-1.4A-POS3A/HFTN-CG
REM
REM
REM
REM
REM
REM ./C.cell (11c1c37f851c82e70ff6c80c92926a4b)
REM
REM compiler GCC version 9.2.1 20190827 (Red Hat 9.2.1-1)
REM options -cpp -mtune=generic -march=x86-64 -g -O0 -fpre-include=/usr/include/finclude/math-vector-fortran.h
REM seed -744957050 -1526868408 -2129256440 -1166190088 1478306712 550777455 1835852639 393908065 -1530866337 -726747976 1592903391 718781517 366902135 334086993 -1073228052 1154271873 -105367895 1118307845 -895251349 -55812996 1866933270 -512329302 -1018411165 -289521734 -839064605 -624126320 1764894497 478572447 91135356 946033206 -285636869 1348810974 39669178
REM
CELL 1.54180   50.00000   50.00000   50.00000   90.00000   90.00000   90.00000
LATT -1
SFAC C  
C      1  0.5230580000000  0.5916800000000  0.5119980000000 1.0
C      1  0.4565810000000  0.4809940000000  0.5522800000000 1.0
C      1  0.4796070000000  0.5554520000000  0.5234300000000 1.0
C      1  0.4630240000000  0.5873540000000  0.4924610000000 1.0
C      1  0.5667460000000  0.4463930000000  0.4842440000000 1.0
C      1  0.4637340000000  0.5163870000000  0.5115660000000 1.0
C      1  0.5618400000000  0.4570180000000  0.5543930000000 1.0
C      1  0.4567000000000  0.5756290000000  0.4677590000000 1.0
C      1  0.5242640000000  0.4948780000000  0.6141150000000 1.0
C      1  0.5158060000000  0.4852490000000  0.5864050000000 1.0
C      1  0.4959920000000  0.5269950000000  0.5133860000000 1.0
C      1  0.4925270000000  0.5855910000000  0.4983320000000 1.0
C      1  0.5195840000000  0.4337070000000  0.5696520000000 1.0
C      1  0.5747780000000  0.5173210000000  0.4405180000000 1.0
C      1  0.4161450000000  0.5181030000000  0.4941410000000 1.0
C      1  0.4364770000000  0.4552420000000  0.5418860000000 1.0
C      1  0.5482930000000  0.5242260000000  0.5475960000000 1.0
C      1  0.5734930000000  0.4819540000000  0.5422580000000 1.0
C      1  0.5077000000000  0.4156010000000  0.5173360000000 1.0
C      1  0.5141060000000  0.5705130000000  0.5565780000000 1.0
C      1  0.4565710000000  0.4872750000000  0.5188570000000 1.0
C      1  0.5264730000000  0.4719340000000  0.4994560000000 1.0
C      1  0.4247680000000  0.5352960000000  0.4709980000000 1.0
C      1  0.4566350000000  0.5134500000000  0.4811880000000 1.0
C      1  0.5448250000000  0.4437890000000  0.5048260000000 1.0
C      1  0.5847380000000  0.5124100000000  0.4785520000000 1.0
C      1  0.4858000000000  0.4673080000000  0.5454540000000 1.0
C      1  0.4476870000000  0.5769860000000  0.5127180000000 1.0
C      1  0.5331130000000  0.4887890000000  0.4496600000000 1.0
C      1  0.4668890000000  0.4343610000000  0.4477540000000 1.0
C      1  0.4975590000000  0.5678900000000  0.4468820000000 1.0
C      1  0.4577610000000  0.4738610000000  0.5855070000000 1.0
C      1  0.5171160000000  0.4683510000000  0.5503260000000 1.0
C      1  0.4824240000000  0.4075070000000  0.5120010000000 1.0
C      1  0.5071320000000  0.5038720000000  0.4139990000000 1.0
C      1  0.5900040000000  0.4568320000000  0.4961340000000 1.0
C      1  0.4467360000000  0.5253060000000  0.4300260000000 1.0
C      1  0.4999120000000  0.4574190000000  0.4232470000000 1.0
C      1  0.5317310000000  0.4973770000000  0.5603360000000 1.0
C      1  0.5149460000000  0.5281390000000  0.5416090000000 1.0
C      1  0.4309690000000  0.4962880000000  0.4761760000000 1.0
C      1  0.5217230000000  0.4622990000000  0.4671880000000 1.0
C      1  0.5604920000000  0.5376300000000  0.4336830000000 1.0
C      1  0.4297390000000  0.4434150000000  0.4953760000000 1.0
C      1  0.5392660000000  0.5249560000000  0.4801480000000 1.0
C      1  0.4198860000000  0.5157280000000  0.5207040000000 1.0
C      1  0.4618930000000  0.4326450000000  0.5018740000000 1.0
C      1  0.5097110000000  0.4306830000000  0.4707640000000 1.0
C      1  0.4732130000000  0.4381090000000  0.5528260000000 1.0
C      1  0.4414760000000  0.4652640000000  0.6049560000000 1.0
C      1  0.5416020000000  0.5714030000000  0.5531950000000 1.0
C      1  0.4474500000000  0.5446090000000  0.5213010000000 1.0
C      1  0.4289490000000  0.4676410000000  0.5159960000000 1.0
C      1  0.5757970000000  0.5044540000000  0.5080380000000 1.0
C      1  0.5107660000000  0.5116490000000  0.4453100000000 1.0
C      1  0.5166540000000  0.5052380000000  0.4962720000000 1.0
C      1  0.4376540000000  0.4796390000000  0.4496460000000 1.0
C      1  0.4628610000000  0.4992190000000  0.4401250000000 1.0
C      1  0.5890960000000  0.5423720000000  0.4815150000000 1.0
C      1  0.4525500000000  0.4319510000000  0.5345760000000 1.0
C      1  0.5001280000000  0.4605400000000  0.5153630000000 1.0
C      1  0.5245070000000  0.4220380000000  0.4960440000000 1.0
C      1  0.5525050000000  0.4493900000000  0.4606480000000 1.0
C      1  0.4994320000000  0.5805570000000  0.5317180000000 1.0
C      1  0.5118460000000  0.4369100000000  0.4375910000000 1.0
C      1  0.5240790000000  0.5003190000000  0.5273380000000 1.0
C      1  0.5102960000000  0.4372360000000  0.5383550000000 1.0
C      1  0.4882420000000  0.4681600000000  0.4684300000000 1.0
C      1  0.5043170000000  0.5447380000000  0.5635610000000 1.0
C      1  0.5578010000000  0.5017040000000  0.4636550000000 1.0
C      1  0.4216460000000  0.5277360000000  0.4437990000000 1.0
C      1  0.4437180000000  0.4668770000000  0.4789480000000 1.0
C      1  0.5627760000000  0.5353570000000  0.5024230000000 1.0
C      1  0.4232260000000  0.5388170000000  0.5435640000000 1.0
C      1  0.5584780000000  0.4527870000000  0.4330870000000 1.0
C      1  0.5161210000000  0.4771490000000  0.4118170000000 1.0
C      1  0.4855020000000  0.4883890000000  0.5814810000000 1.0
C      1  0.4731940000000  0.4663240000000  0.4379800000000 1.0
C      1  0.5719750000000  0.5087450000000  0.5570700000000 1.0
C      1  0.5518520000000  0.4856420000000  0.5174640000000 1.0
C      1  0.5415040000000  0.5706830000000  0.5057690000000 1.0
C      1  0.4635440000000  0.5579060000000  0.5533010000000 1.0
C      1  0.4867870000000  0.5391270000000  0.4829760000000 1.0
C      1  0.5109440000000  0.5493640000000  0.4320200000000 1.0
C      1  0.5595360000000  0.4382210000000  0.5335600000000 1.0
C      1  0.4776980000000  0.5396520000000  0.5694870000000 1.0
C      1  0.4839690000000  0.5145870000000  0.4598620000000 1.0
C      1  0.4778240000000  0.4268250000000  0.4723650000000 1.0
C      1  0.5375980000000  0.4609940000000  0.5755440000000 1.0
C      1  0.4394880000000  0.5101140000000  0.5481910000000 1.0
C      1  0.4422880000000  0.4613600000000  0.4246720000000 1.0
C      1  0.5434210000000  0.4746500000000  0.4223450000000 1.0
C      1  0.5333700000000  0.5364900000000  0.4486900000000 1.0
C      1  0.4675090000000  0.5120500000000  0.5674600000000 1.0
C      1  0.5315690000000  0.5571810000000  0.4836220000000 1.0
C      1  0.4585690000000  0.5507820000000  0.4249770000000 1.0
C      1  0.5032380000000  0.5641070000000  0.4768000000000 1.0
C      1  0.4701170000000  0.5709420000000  0.4420880000000 1.0
C      1  0.5044750000000  0.5331510000000  0.4098200000000 1.0
C      1  0.4717320000000  0.4649850000000  0.4981270000000 1.0
C      1  0.5906750000000  0.4764350000000  0.5146610000000 1.0
C      1  0.4546270000000  0.5457880000000  0.4740130000000 1.0
C      1  0.5528510000000  0.5515630000000  0.5297820000000 1.0
END
