TITL C-3371501-9953-48 -4.02046974992462e-05 125000 -1022.39140650997 0 0 188 (C1) n - 1
REM
REM in /nfs/bkarasulu/CARBON/AIRSS/Generating-Clusters/AIREBO/with-SteepDescent/Only-C1/SD-CG-opt/Try1-1.4A-POS3A/HFTN-CG
REM
REM
REM
REM
REM
REM ./C.cell (11c1c37f851c82e70ff6c80c92926a4b)
REM
REM compiler GCC version 9.2.1 20190827 (Red Hat 9.2.1-1)
REM options -cpp -mtune=generic -march=x86-64 -g -O0 -fpre-include=/usr/include/finclude/math-vector-fortran.h
REM seed 127254056 -1052571704 -287750779 1117102713 1716252765 -134831823 -418164634 55570803 -67140375 -2101223056 -160144610 1370005927 -1381639944 1086055687 1565708651 688839331 1759746953 -55350045 -845875089 -199528190 1173737907 -382204901 -609158522 463824468 -7355555 742662027 -2056692912 -483371229 -2024147124 2009026765 59770896 -1582075239 376231514
REM
CELL 1.54180   50.00000   50.00000   50.00000   90.00000   90.00000   90.00000
LATT -1
SFAC C  
C      1  0.5949360000000  0.4933300000000  0.5245720000000 1.0
C      1  0.5030780000000  0.4379680000000  0.5043180000000 1.0
C      1  0.5004680000000  0.4525350000000  0.4742740000000 1.0
C      1  0.6103570000000  0.5363590000000  0.4704930000000 1.0
C      1  0.4858180000000  0.5437130000000  0.5060110000000 1.0
C      1  0.5229680000000  0.4952660000000  0.4814780000000 1.0
C      1  0.5115530000000  0.4938510000000  0.6055520000000 1.0
C      1  0.5046220000000  0.5570710000000  0.5385220000000 1.0
C      1  0.5190710000000  0.6066770000000  0.5182430000000 1.0
C      1  0.5413780000000  0.5406550000000  0.5142970000000 1.0
C      1  0.4745360000000  0.4745740000000  0.4751810000000 1.0
C      1  0.4693470000000  0.4349570000000  0.5083960000000 1.0
C      1  0.5073990000000  0.5362090000000  0.5909370000000 1.0
C      1  0.5329590000000  0.5816480000000  0.4346740000000 1.0
C      1  0.5506190000000  0.4528460000000  0.3855940000000 1.0
C      1  0.4500130000000  0.5022790000000  0.5810180000000 1.0
C      1  0.5336230000000  0.4249130000000  0.4946910000000 1.0
C      1  0.5953220000000  0.5439240000000  0.4470390000000 1.0
C      1  0.4390150000000  0.5300130000000  0.4764420000000 1.0
C      1  0.4027050000000  0.4783880000000  0.4864700000000 1.0
C      1  0.5629530000000  0.4351650000000  0.4331890000000 1.0
C      1  0.4379330000000  0.5282720000000  0.5657870000000 1.0
C      1  0.4120660000000  0.5453130000000  0.5564340000000 1.0
C      1  0.5446920000000  0.5941070000000  0.4776600000000 1.0
C      1  0.5355130000000  0.4103090000000  0.5253390000000 1.0
C      1  0.4940000000000  0.5575320000000  0.6081450000000 1.0
C      1  0.4263010000000  0.4946840000000  0.5007770000000 1.0
C      1  0.5574170000000  0.5432720000000  0.5783950000000 1.0
C      1  0.5308580000000  0.5608210000000  0.5680180000000 1.0
C      1  0.4450870000000  0.4233890000000  0.5670850000000 1.0
C      1  0.4826060000000  0.4248300000000  0.4121160000000 1.0
C      1  0.4391160000000  0.5630960000000  0.4165840000000 1.0
C      1  0.5882720000000  0.4660480000000  0.5101350000000 1.0
C      1  0.5164670000000  0.4446570000000  0.4232830000000 1.0
C      1  0.5446170000000  0.4562290000000  0.4163060000000 1.0
C      1  0.5928160000000  0.4931240000000  0.4561420000000 1.0
C      1  0.4963920000000  0.5153700000000  0.5397140000000 1.0
C      1  0.4204380000000  0.5631020000000  0.4644870000000 1.0
C      1  0.5532720000000  0.5720500000000  0.4560990000000 1.0
C      1  0.5942610000000  0.4623950000000  0.4822490000000 1.0
C      1  0.4675220000000  0.4281040000000  0.4386600000000 1.0
C      1  0.4716760000000  0.5124560000000  0.4564940000000 1.0
C      1  0.5181440000000  0.4894700000000  0.4483100000000 1.0
C      1  0.5206360000000  0.5624010000000  0.4146190000000 1.0
C      1  0.4981010000000  0.4673480000000  0.4343800000000 1.0
C      1  0.4104760000000  0.5335430000000  0.4594210000000 1.0
C      1  0.3867400000000  0.5244950000000  0.4760020000000 1.0
C      1  0.4544300000000  0.4528720000000  0.4584210000000 1.0
C      1  0.4239440000000  0.4371410000000  0.5510090000000 1.0
C      1  0.4937380000000  0.5779110000000  0.5601280000000 1.0
C      1  0.4958350000000  0.4838780000000  0.4985120000000 1.0
C      1  0.4827370000000  0.5345340000000  0.4244720000000 1.0
C      1  0.5790500000000  0.5522280000000  0.5625810000000 1.0
C      1  0.4824500000000  0.5597970000000  0.3862110000000 1.0
C      1  0.5350070000000  0.5323680000000  0.5954980000000 1.0
C      1  0.5329880000000  0.4595470000000  0.3686740000000 1.0
C      1  0.5868530000000  0.4118900000000  0.5104270000000 1.0
C      1  0.4006030000000  0.4290580000000  0.5152530000000 1.0
C      1  0.4285380000000  0.4106770000000  0.5216040000000 1.0
C      1  0.5593540000000  0.4538310000000  0.5164190000000 1.0
C      1  0.5129870000000  0.4177530000000  0.4370460000000 1.0
C      1  0.4013750000000  0.4593010000000  0.5265950000000 1.0
C      1  0.4517530000000  0.5963360000000  0.4472210000000 1.0
C      1  0.4551340000000  0.4668620000000  0.5339050000000 1.0
C      1  0.4951870000000  0.4492040000000  0.3989810000000 1.0
C      1  0.5348890000000  0.4751230000000  0.5061710000000 1.0
C      1  0.4636250000000  0.4997380000000  0.3777370000000 1.0
C      1  0.5826570000000  0.4143400000000  0.5356490000000 1.0
C      1  0.5566720000000  0.5156970000000  0.4968210000000 1.0
C      1  0.5792690000000  0.4619250000000  0.4353780000000 1.0
C      1  0.4457830000000  0.5439940000000  0.5067050000000 1.0
C      1  0.4715480000000  0.5323650000000  0.6081380000000 1.0
C      1  0.4456780000000  0.5428900000000  0.5954940000000 1.0
C      1  0.5416080000000  0.5663630000000  0.5365770000000 1.0
C      1  0.5085430000000  0.5756520000000  0.5871630000000 1.0
C      1  0.4706170000000  0.4713750000000  0.4349250000000 1.0
C      1  0.5118030000000  0.5267580000000  0.5136880000000 1.0
C      1  0.5051150000000  0.5195930000000  0.3952340000000 1.0
C      1  0.5043340000000  0.3980580000000  0.5471860000000 1.0
C      1  0.4977320000000  0.5730620000000  0.5096180000000 1.0
C      1  0.5498530000000  0.5151920000000  0.4410520000000 1.0
C      1  0.5059890000000  0.4706010000000  0.3802920000000 1.0
C      1  0.5212330000000  0.4497010000000  0.5857450000000 1.0
C      1  0.5589530000000  0.4583320000000  0.5760160000000 1.0
C      1  0.5865740000000  0.4972970000000  0.5570340000000 1.0
C      1  0.5821700000000  0.5676510000000  0.4470120000000 1.0
C      1  0.6045700000000  0.5251780000000  0.5165750000000 1.0
C      1  0.5675640000000  0.5025420000000  0.4077640000000 1.0
C      1  0.5596660000000  0.5899460000000  0.5009630000000 1.0
C      1  0.4095830000000  0.4802710000000  0.5625200000000 1.0
C      1  0.4820880000000  0.5042570000000  0.5921340000000 1.0
C      1  0.4108430000000  0.4478390000000  0.4888210000000 1.0
C      1  0.5388860000000  0.5032620000000  0.6002030000000 1.0
C      1  0.4736400000000  0.5115000000000  0.4024550000000 1.0
C      1  0.3853930000000  0.5096760000000  0.5227770000000 1.0
C      1  0.4763060000000  0.4921340000000  0.5251060000000 1.0
C      1  0.4577560000000  0.4187950000000  0.5358620000000 1.0
C      1  0.4932290000000  0.4372100000000  0.5975730000000 1.0
C      1  0.4232680000000  0.4532770000000  0.4448260000000 1.0
C      1  0.4639820000000  0.5443100000000  0.5585330000000 1.0
C      1  0.4815840000000  0.5971180000000  0.4945920000000 1.0
C      1  0.4321690000000  0.5660400000000  0.5745730000000 1.0
C      1  0.4206070000000  0.4867130000000  0.5310080000000 1.0
C      1  0.5034960000000  0.5201470000000  0.4472600000000 1.0
C      1  0.5312670000000  0.4045540000000  0.5586740000000 1.0
C      1  0.4985080000000  0.6022430000000  0.5368360000000 1.0
C      1  0.4330390000000  0.5779040000000  0.4394830000000 1.0
C      1  0.5734620000000  0.5622500000000  0.5330190000000 1.0
C      1  0.4538550000000  0.6038480000000  0.5092080000000 1.0
C      1  0.5595320000000  0.4981800000000  0.5736710000000 1.0
C      1  0.4993550000000  0.3999880000000  0.4125830000000 1.0
C      1  0.4840290000000  0.4805370000000  0.3630850000000 1.0
C      1  0.5606120000000  0.4833630000000  0.4871330000000 1.0
C      1  0.4707760000000  0.4724370000000  0.5963570000000 1.0
C      1  0.4348020000000  0.4286000000000  0.4336390000000 1.0
C      1  0.4445600000000  0.4434940000000  0.4896480000000 1.0
C      1  0.6004710000000  0.5445350000000  0.4958540000000 1.0
C      1  0.4537820000000  0.4835100000000  0.3517560000000 1.0
C      1  0.4674810000000  0.4439630000000  0.5818650000000 1.0
C      1  0.4967510000000  0.3979360000000  0.4772850000000 1.0
C      1  0.5647140000000  0.4576000000000  0.4660890000000 1.0
C      1  0.5908850000000  0.4885010000000  0.4251910000000 1.0
C      1  0.5643320000000  0.5000070000000  0.5239130000000 1.0
C      1  0.4337280000000  0.4503010000000  0.5212080000000 1.0
C      1  0.5319920000000  0.5247170000000  0.4670280000000 1.0
C      1  0.5270760000000  0.4090610000000  0.4660550000000 1.0
C      1  0.5308000000000  0.5011550000000  0.5255290000000 1.0
C      1  0.5439170000000  0.5941910000000  0.5237410000000 1.0
C      1  0.5314650000000  0.4654450000000  0.5572810000000 1.0
C      1  0.4298180000000  0.5931520000000  0.5035120000000 1.0
C      1  0.3932330000000  0.5322640000000  0.5397660000000 1.0
C      1  0.4168240000000  0.4139630000000  0.4898530000000 1.0
C      1  0.5571250000000  0.4246210000000  0.4627280000000 1.0
C      1  0.4540620000000  0.5594400000000  0.4679740000000 1.0
C      1  0.4687570000000  0.5895860000000  0.5316750000000 1.0
C      1  0.4460500000000  0.4920630000000  0.5513840000000 1.0
C      1  0.3810220000000  0.4840460000000  0.5350710000000 1.0
C      1  0.4100900000000  0.5246640000000  0.4305000000000 1.0
C      1  0.4772890000000  0.5408800000000  0.4753180000000 1.0
C      1  0.6148240000000  0.5092580000000  0.4710370000000 1.0
C      1  0.5673930000000  0.5062890000000  0.4660260000000 1.0
C      1  0.4908890000000  0.4251230000000  0.4608500000000 1.0
C      1  0.5893860000000  0.5273910000000  0.5443850000000 1.0
C      1  0.4993790000000  0.4875760000000  0.5680730000000 1.0
C      1  0.5048580000000  0.5538840000000  0.4402890000000 1.0
C      1  0.4740300000000  0.5078500000000  0.6310960000000 1.0
C      1  0.5059220000000  0.4636210000000  0.6130240000000 1.0
C      1  0.5026520000000  0.5752330000000  0.4599750000000 1.0
C      1  0.4058220000000  0.4528460000000  0.5657570000000 1.0
C      1  0.4504580000000  0.5121880000000  0.5157520000000 1.0
C      1  0.5877170000000  0.4701540000000  0.5700760000000 1.0
C      1  0.4870500000000  0.5107320000000  0.4867790000000 1.0
C      1  0.5556170000000  0.4307360000000  0.5411700000000 1.0
C      1  0.4597980000000  0.5779160000000  0.5622160000000 1.0
C      1  0.4501510000000  0.4981770000000  0.4786120000000 1.0
C      1  0.4738170000000  0.5844880000000  0.4665760000000 1.0
C      1  0.5054690000000  0.4060970000000  0.5152150000000 1.0
C      1  0.5152900000000  0.5651190000000  0.4851590000000 1.0
C      1  0.4659550000000  0.5572710000000  0.5287210000000 1.0
C      1  0.5391080000000  0.4895100000000  0.4215190000000 1.0
C      1  0.5559000000000  0.5274940000000  0.5415550000000 1.0
C      1  0.4931640000000  0.4699680000000  0.5446190000000 1.0
C      1  0.5608330000000  0.4787900000000  0.6016950000000 1.0
C      1  0.4794070000000  0.4818810000000  0.6251590000000 1.0
C      1  0.5310850000000  0.4613460000000  0.4623830000000 1.0
C      1  0.5670070000000  0.4292830000000  0.4941590000000 1.0
C      1  0.5435790000000  0.4303230000000  0.5720090000000 1.0
C      1  0.4262980000000  0.5675860000000  0.4952620000000 1.0
C      1  0.5161110000000  0.4577730000000  0.5278390000000 1.0
C      1  0.4747490000000  0.3917430000000  0.5349660000000 1.0
C      1  0.5236670000000  0.5319990000000  0.5514360000000 1.0
C      1  0.6186350000000  0.4776790000000  0.4719270000000 1.0
C      1  0.4639340000000  0.4984650000000  0.4300520000000 1.0
C      1  0.5447860000000  0.5524460000000  0.4825690000000 1.0
C      1  0.5816770000000  0.5223940000000  0.4314890000000 1.0
C      1  0.3883160000000  0.5057930000000  0.4950460000000 1.0
C      1  0.4052290000000  0.4693820000000  0.4556380000000 1.0
C      1  0.5171460000000  0.6038220000000  0.4508390000000 1.0
C      1  0.4730060000000  0.4460400000000  0.5504130000000 1.0
C      1  0.5286800000000  0.4992780000000  0.5594110000000 1.0
C      1  0.5082940000000  0.5483700000000  0.3928210000000 1.0
C      1  0.4629110000000  0.5531600000000  0.4068460000000 1.0
C      1  0.5734870000000  0.5603880000000  0.4990630000000 1.0
C      1  0.5193340000000  0.4953210000000  0.3962260000000 1.0
C      1  0.5132120000000  0.6048630000000  0.4847880000000 1.0
C      1  0.4181540000000  0.4972990000000  0.5814920000000 1.0
C      1  0.4873740000000  0.5269350000000  0.5673310000000 1.0
C      1  0.4835790000000  0.3858610000000  0.5025780000000 1.0
END
