TITL C-3371502-3785-34 0.000269349815117236 125000 -229.604278643009 0 0 41 (C1) n - 1
REM
REM in /nfs/bkarasulu/CARBON/AIRSS/Generating-Clusters/AIREBO/with-SteepDescent/Only-C1/SD-CG-opt/Try1-1.4A-POS3A/HFTN-CG
REM
REM
REM
REM
REM
REM ./C.cell (11c1c37f851c82e70ff6c80c92926a4b)
REM
REM compiler GCC version 9.2.1 20190827 (Red Hat 9.2.1-1)
REM options -cpp -mtune=generic -march=x86-64 -g -O0 -fpre-include=/usr/include/finclude/math-vector-fortran.h
REM seed 599046726 1998655303 -896713684 -1709902816 881922465 -337841446 638325097 225207812 -2089412370 -1440928455 -1863569985 -481512095 1889215357 -760803539 1265952047 -518303237 671268823 -1484760755 120613103 -1400490476 2095690876 259596289 1388851283 1379645655 -378113778 -1572296768 401154971 679608264 1921901734 1141834132 -1752069995 1949303694 -1281185690
REM
CELL 1.54180   50.00000   50.00000   50.00000   90.00000   90.00000   90.00000
LATT -1
SFAC C  
C      1  0.4951090000000  0.5255690000000  0.4964870000000 1.0
C      1  0.4557220000000  0.4813170000000  0.4816330000000 1.0
C      1  0.4688060000000  0.4601550000000  0.4952980000000 1.0
C      1  0.4832930000000  0.4672900000000  0.4437790000000 1.0
C      1  0.4613880000000  0.4515370000000  0.5213270000000 1.0
C      1  0.5046670000000  0.4618070000000  0.5670060000000 1.0
C      1  0.5162250000000  0.5157750000000  0.4431710000000 1.0
C      1  0.4801300000000  0.5033030000000  0.5710160000000 1.0
C      1  0.5043750000000  0.4574690000000  0.4582360000000 1.0
C      1  0.4389860000000  0.5025430000000  0.4954120000000 1.0
C      1  0.4547790000000  0.4956790000000  0.5313900000000 1.0
C      1  0.5273930000000  0.5611060000000  0.5132050000000 1.0
C      1  0.4694850000000  0.5095060000000  0.5063900000000 1.0
C      1  0.5270930000000  0.4649820000000  0.5514180000000 1.0
C      1  0.5007210000000  0.5189540000000  0.5293830000000 1.0
C      1  0.5784340000000  0.4967080000000  0.4977870000000 1.0
C      1  0.5292770000000  0.4674630000000  0.4523800000000 1.0
C      1  0.4787920000000  0.5219560000000  0.5493460000000 1.0
C      1  0.4341940000000  0.5267790000000  0.5133270000000 1.0
C      1  0.5237750000000  0.5452890000000  0.4426020000000 1.0
C      1  0.4997000000000  0.5712810000000  0.4744560000000 1.0
C      1  0.5114850000000  0.5683010000000  0.4498700000000 1.0
C      1  0.5546310000000  0.4768800000000  0.5117990000000 1.0
C      1  0.5096010000000  0.4864870000000  0.4863980000000 1.0
C      1  0.5059370000000  0.5547470000000  0.4960340000000 1.0
C      1  0.4700280000000  0.4929830000000  0.4567410000000 1.0
C      1  0.5469690000000  0.4998410000000  0.4874640000000 1.0
C      1  0.5094730000000  0.5060300000000  0.4176310000000 1.0
C      1  0.5345860000000  0.4561780000000  0.5242260000000 1.0
C      1  0.4535840000000  0.5078480000000  0.4395660000000 1.0
C      1  0.4629280000000  0.4710260000000  0.5417500000000 1.0
C      1  0.4981860000000  0.4575970000000  0.4887550000000 1.0
C      1  0.5224440000000  0.5003310000000  0.5110140000000 1.0
C      1  0.5395350000000  0.4926870000000  0.5394690000000 1.0
C      1  0.5306000000000  0.5242790000000  0.5412760000000 1.0
C      1  0.5341520000000  0.4958330000000  0.4601110000000 1.0
C      1  0.5384660000000  0.5494200000000  0.5356610000000 1.0
C      1  0.4507130000000  0.5270310000000  0.5385630000000 1.0
C      1  0.5180160000000  0.4426460000000  0.5074230000000 1.0
C      1  0.4802380000000  0.4753820000000  0.5639270000000 1.0
C      1  0.4960880000000  0.5080090000000  0.4672740000000 1.0
END
