TITL C-3371513-6555-18 -0.0004105940768041 125000 -650.000311523031 0 0 124 (C1) n - 1
REM
REM in /nfs/bkarasulu/CARBON/AIRSS/Generating-Clusters/AIREBO/with-SteepDescent/Only-C1/SD-CG-opt/Try1-1.4A-POS3A/HFTN-CG
REM
REM
REM
REM
REM
REM ./C.cell (11c1c37f851c82e70ff6c80c92926a4b)
REM
REM compiler GCC version 9.2.1 20190827 (Red Hat 9.2.1-1)
REM options -cpp -mtune=generic -march=x86-64 -g -O0 -fpre-include=/usr/include/finclude/math-vector-fortran.h
REM seed 860665785 -1417163601 -1556156459 -1479856207 778961269 873461473 1687278224 905289883 -1707934714 -2123447164 768455858 1727502272 -739196260 1051549730 1707108202 858455331 -1763483614 -139436404 1408582681 -1040694130 1297211672 1295517121 736706294 2064584346 1053327283 676714180 803088131 -932070194 -842807245 76088482 2087181160 2112602260 -714002116
REM
CELL 1.54180   50.00000   50.00000   50.00000   90.00000   90.00000   90.00000
LATT -1
SFAC C  
C      1  0.4683580000000  0.5587280000000  0.4237920000000 1.0
C      1  0.5736970000000  0.4953240000000  0.5298820000000 1.0
C      1  0.4909580000000  0.5467710000000  0.5305600000000 1.0
C      1  0.4387080000000  0.4440700000000  0.4646910000000 1.0
C      1  0.5545950000000  0.5228610000000  0.4889040000000 1.0
C      1  0.4376400000000  0.4660160000000  0.5460440000000 1.0
C      1  0.5316710000000  0.4779960000000  0.4123350000000 1.0
C      1  0.4773470000000  0.4653040000000  0.5419340000000 1.0
C      1  0.4327970000000  0.5637170000000  0.5121760000000 1.0
C      1  0.5307210000000  0.5327950000000  0.4471810000000 1.0
C      1  0.4879410000000  0.4951320000000  0.5295110000000 1.0
C      1  0.4518370000000  0.5885750000000  0.4988300000000 1.0
C      1  0.5544050000000  0.4641600000000  0.4216240000000 1.0
C      1  0.4576010000000  0.5314760000000  0.5647860000000 1.0
C      1  0.5779940000000  0.5278700000000  0.4645900000000 1.0
C      1  0.4121820000000  0.4866960000000  0.4747770000000 1.0
C      1  0.5439400000000  0.4225770000000  0.4961140000000 1.0
C      1  0.5022090000000  0.5094560000000  0.5568510000000 1.0
C      1  0.4218880000000  0.5057720000000  0.5187620000000 1.0
C      1  0.5031240000000  0.4203440000000  0.5404510000000 1.0
C      1  0.4836590000000  0.4628130000000  0.4927770000000 1.0
C      1  0.5543510000000  0.4630820000000  0.5171180000000 1.0
C      1  0.5937500000000  0.4811230000000  0.4696740000000 1.0
C      1  0.4817370000000  0.5860180000000  0.5953130000000 1.0
C      1  0.4961540000000  0.5356630000000  0.4668470000000 1.0
C      1  0.5163030000000  0.4899260000000  0.5114670000000 1.0
C      1  0.5143080000000  0.4583290000000  0.5013720000000 1.0
C      1  0.5876090000000  0.4674970000000  0.5161520000000 1.0
C      1  0.5367970000000  0.5664170000000  0.5469450000000 1.0
C      1  0.4742190000000  0.5793520000000  0.4749330000000 1.0
C      1  0.5388630000000  0.4863560000000  0.5710640000000 1.0
C      1  0.4323360000000  0.5088320000000  0.5670460000000 1.0
C      1  0.4866070000000  0.5741030000000  0.4436550000000 1.0
C      1  0.4206880000000  0.5583390000000  0.5423420000000 1.0
C      1  0.5210790000000  0.5835060000000  0.5263890000000 1.0
C      1  0.4791150000000  0.5003600000000  0.4431310000000 1.0
C      1  0.4956810000000  0.6026050000000  0.4873860000000 1.0
C      1  0.4570680000000  0.4785040000000  0.4184310000000 1.0
C      1  0.4511340000000  0.4682660000000  0.4851060000000 1.0
C      1  0.5871910000000  0.5009230000000  0.4519080000000 1.0
C      1  0.5825530000000  0.5395630000000  0.4950870000000 1.0
C      1  0.4281120000000  0.5124800000000  0.4351530000000 1.0
C      1  0.5340260000000  0.5616100000000  0.5062510000000 1.0
C      1  0.4486030000000  0.5060650000000  0.4181050000000 1.0
C      1  0.4263930000000  0.4915690000000  0.5468240000000 1.0
C      1  0.4771360000000  0.4628710000000  0.4055070000000 1.0
C      1  0.4746550000000  0.5247390000000  0.4603770000000 1.0
C      1  0.4601380000000  0.4752190000000  0.4521480000000 1.0
C      1  0.4279830000000  0.5120920000000  0.4666870000000 1.0
C      1  0.4724450000000  0.4257070000000  0.5268040000000 1.0
C      1  0.5099080000000  0.4612270000000  0.4071700000000 1.0
C      1  0.5467960000000  0.5048960000000  0.5130760000000 1.0
C      1  0.4211070000000  0.4587330000000  0.5104210000000 1.0
C      1  0.4512530000000  0.4362120000000  0.5496860000000 1.0
C      1  0.5275230000000  0.5103640000000  0.4725490000000 1.0
C      1  0.5603110000000  0.5406320000000  0.4426140000000 1.0
C      1  0.4998380000000  0.4950710000000  0.4691860000000 1.0
C      1  0.5113900000000  0.4354550000000  0.5786680000000 1.0
C      1  0.5976270000000  0.5276550000000  0.5167110000000 1.0
C      1  0.5178810000000  0.5631680000000  0.4388360000000 1.0
C      1  0.5441210000000  0.4545980000000  0.4871140000000 1.0
C      1  0.4591600000000  0.4073470000000  0.4851930000000 1.0
C      1  0.5788150000000  0.5260070000000  0.5436180000000 1.0
C      1  0.4499410000000  0.5337380000000  0.4740090000000 1.0
C      1  0.4633980000000  0.5180200000000  0.5340920000000 1.0
C      1  0.4691260000000  0.3819830000000  0.4866130000000 1.0
C      1  0.5296020000000  0.5117210000000  0.5416040000000 1.0
C      1  0.5773100000000  0.5167930000000  0.5733080000000 1.0
C      1  0.4723300000000  0.5912040000000  0.5238120000000 1.0
C      1  0.4651550000000  0.4598900000000  0.5956140000000 1.0
C      1  0.5389470000000  0.5818970000000  0.4571370000000 1.0
C      1  0.5289090000000  0.5016740000000  0.4335540000000 1.0
C      1  0.5242620000000  0.5498780000000  0.4758700000000 1.0
C      1  0.5489820000000  0.4856700000000  0.4775920000000 1.0
C      1  0.4135910000000  0.5363330000000  0.5196260000000 1.0
C      1  0.4944440000000  0.5569720000000  0.4906400000000 1.0
C      1  0.5387890000000  0.4346520000000  0.5753760000000 1.0
C      1  0.4870090000000  0.4983240000000  0.5804740000000 1.0
C      1  0.4985430000000  0.5482100000000  0.4157960000000 1.0
C      1  0.4745250000000  0.4304190000000  0.4977360000000 1.0
C      1  0.4690080000000  0.4441700000000  0.4492620000000 1.0
C      1  0.5322080000000  0.4276710000000  0.4431010000000 1.0
C      1  0.5171340000000  0.4049120000000  0.5073140000000 1.0
C      1  0.5800710000000  0.4528540000000  0.4642380000000 1.0
C      1  0.4902110000000  0.5403450000000  0.5608700000000 1.0
C      1  0.5219160000000  0.5357440000000  0.5213590000000 1.0
C      1  0.5511600000000  0.5102790000000  0.5821880000000 1.0
C      1  0.4993780000000  0.4485380000000  0.4590510000000 1.0
C      1  0.4106780000000  0.4824430000000  0.5016100000000 1.0
C      1  0.4458620000000  0.5625860000000  0.4665000000000 1.0
C      1  0.5517700000000  0.4371750000000  0.5509520000000 1.0
C      1  0.4992620000000  0.5979150000000  0.5162430000000 1.0
C      1  0.5478400000000  0.4539530000000  0.4533020000000 1.0
C      1  0.5129670000000  0.4326850000000  0.4230710000000 1.0
C      1  0.4834860000000  0.4382660000000  0.5616450000000 1.0
C      1  0.5088860000000  0.4531620000000  0.5344770000000 1.0
C      1  0.4796940000000  0.4968070000000  0.4965450000000 1.0
C      1  0.4926360000000  0.5674120000000  0.5820950000000 1.0
C      1  0.5206560000000  0.5527200000000  0.5696240000000 1.0
C      1  0.5286570000000  0.4128970000000  0.4668750000000 1.0
C      1  0.4941610000000  0.5263120000000  0.5053770000000 1.0
C      1  0.5205800000000  0.4742690000000  0.4520350000000 1.0
C      1  0.5326160000000  0.4778120000000  0.5387360000000 1.0
C      1  0.5573700000000  0.4969970000000  0.4498080000000 1.0
C      1  0.6001630000000  0.4590890000000  0.4905930000000 1.0
C      1  0.4147830000000  0.4643890000000  0.4592180000000 1.0
C      1  0.4258370000000  0.5727120000000  0.4531990000000 1.0
C      1  0.4458770000000  0.5002870000000  0.4952740000000 1.0
C      1  0.4536900000000  0.4598650000000  0.5179890000000 1.0
C      1  0.4747330000000  0.4748210000000  0.5744880000000 1.0
C      1  0.4357010000000  0.4159020000000  0.4750100000000 1.0
C      1  0.4737650000000  0.5253100000000  0.4205790000000 1.0
C      1  0.5357700000000  0.5333520000000  0.5892230000000 1.0
C      1  0.4546460000000  0.5312810000000  0.5061670000000 1.0
C      1  0.5679780000000  0.5632220000000  0.5073430000000 1.0
C      1  0.5483100000000  0.5810940000000  0.4822970000000 1.0
C      1  0.4380930000000  0.5568480000000  0.5628660000000 1.0
C      1  0.4644740000000  0.5594930000000  0.5224090000000 1.0
C      1  0.5351230000000  0.4235030000000  0.5293850000000 1.0
C      1  0.4825100000000  0.4370220000000  0.4221650000000 1.0
C      1  0.5613770000000  0.5546520000000  0.5373970000000 1.0
C      1  0.4709660000000  0.5176500000000  0.5926350000000 1.0
C      1  0.5713130000000  0.4643590000000  0.5459320000000 1.0
C      1  0.5057810000000  0.4289120000000  0.4860660000000 1.0
END
