TITL C-3371505-1292-24 -0.00107475575280373 125000 -756.521326094407 0 0 143 (C1) n - 1
REM
REM in /nfs/bkarasulu/CARBON/AIRSS/Generating-Clusters/AIREBO/with-SteepDescent/Only-C1/SD-CG-opt/Try1-1.4A-POS3A/HFTN-CG
REM
REM
REM
REM
REM
REM ./C.cell (11c1c37f851c82e70ff6c80c92926a4b)
REM
REM compiler GCC version 9.2.1 20190827 (Red Hat 9.2.1-1)
REM options -cpp -mtune=generic -march=x86-64 -g -O0 -fpre-include=/usr/include/finclude/math-vector-fortran.h
REM seed 1763540548 -815322481 -1987212168 -864557440 -1609832547 -1207421220 -1345827541 454920320 -967141076 -924700936 -1519362612 -520322672 -1990435737 -300268188 522605435 714646565 1982395397 -1843609351 -1609179317 1695130696 -1332319443 -883982747 -840636761 -751532636 -1960472950 160537571 -338070352 -292339612 1402062848 253609570 212616548 -607709022 1351040445
REM
CELL 1.54180   50.00000   50.00000   50.00000   90.00000   90.00000   90.00000
LATT -1
SFAC C  
C      1  0.4655020000000  0.5807240000000  0.4473390000000 1.0
C      1  0.4929380000000  0.4876470000000  0.5961560000000 1.0
C      1  0.5371650000000  0.5409420000000  0.5447640000000 1.0
C      1  0.4323780000000  0.4806730000000  0.4156270000000 1.0
C      1  0.4496500000000  0.4527320000000  0.5737310000000 1.0
C      1  0.4378450000000  0.5927140000000  0.5275170000000 1.0
C      1  0.5228710000000  0.4654690000000  0.4718750000000 1.0
C      1  0.3990320000000  0.4402080000000  0.5245890000000 1.0
C      1  0.5100180000000  0.5000350000000  0.5622160000000 1.0
C      1  0.5192500000000  0.5919910000000  0.4540630000000 1.0
C      1  0.4872830000000  0.4748640000000  0.4462060000000 1.0
C      1  0.5507720000000  0.5560160000000  0.4781600000000 1.0
C      1  0.4218780000000  0.4797970000000  0.4470170000000 1.0
C      1  0.5048150000000  0.4661680000000  0.4190240000000 1.0
C      1  0.5775710000000  0.4588980000000  0.4427080000000 1.0
C      1  0.5631660000000  0.4279070000000  0.5712670000000 1.0
C      1  0.5206310000000  0.5535640000000  0.4856570000000 1.0
C      1  0.5026490000000  0.5389770000000  0.4646090000000 1.0
C      1  0.5301880000000  0.4703240000000  0.4390210000000 1.0
C      1  0.3921670000000  0.5050840000000  0.4878390000000 1.0
C      1  0.4489080000000  0.4022700000000  0.4887560000000 1.0
C      1  0.5197880000000  0.5406580000000  0.5155360000000 1.0
C      1  0.5626410000000  0.5352150000000  0.5662710000000 1.0
C      1  0.6073560000000  0.4622670000000  0.5436050000000 1.0
C      1  0.4961370000000  0.5681240000000  0.5457000000000 1.0
C      1  0.5596910000000  0.5139280000000  0.5833340000000 1.0
C      1  0.4624140000000  0.5317270000000  0.5783730000000 1.0
C      1  0.4048690000000  0.5202040000000  0.5115840000000 1.0
C      1  0.4799330000000  0.4569610000000  0.5740460000000 1.0
C      1  0.5724440000000  0.4675330000000  0.4975700000000 1.0
C      1  0.5028810000000  0.4570420000000  0.4980630000000 1.0
C      1  0.5048350000000  0.4930130000000  0.4644990000000 1.0
C      1  0.5548790000000  0.4400050000000  0.5478570000000 1.0
C      1  0.5488810000000  0.5863890000000  0.4697730000000 1.0
C      1  0.5895870000000  0.5288040000000  0.4721540000000 1.0
C      1  0.4243600000000  0.4993060000000  0.5609980000000 1.0
C      1  0.5160510000000  0.4167300000000  0.5623490000000 1.0
C      1  0.4611630000000  0.4331060000000  0.4250360000000 1.0
C      1  0.4196320000000  0.5453100000000  0.5105090000000 1.0
C      1  0.5496220000000  0.4109750000000  0.5028680000000 1.0
C      1  0.5124950000000  0.5842090000000  0.4860560000000 1.0
C      1  0.4993930000000  0.4450830000000  0.4581200000000 1.0
C      1  0.5118600000000  0.5549470000000  0.5720530000000 1.0
C      1  0.5383850000000  0.4090780000000  0.4535610000000 1.0
C      1  0.5786310000000  0.5508230000000  0.5270840000000 1.0
C      1  0.4640810000000  0.5220200000000  0.5269500000000 1.0
C      1  0.4880910000000  0.4916650000000  0.4094290000000 1.0
C      1  0.4395690000000  0.4381130000000  0.5482350000000 1.0
C      1  0.5674080000000  0.5646640000000  0.5534380000000 1.0
C      1  0.4495170000000  0.4352790000000  0.4502850000000 1.0
C      1  0.5690430000000  0.5211050000000  0.4981340000000 1.0
C      1  0.5214370000000  0.5123280000000  0.5352420000000 1.0
C      1  0.4312200000000  0.5138630000000  0.5322380000000 1.0
C      1  0.5459910000000  0.4889040000000  0.4966040000000 1.0
C      1  0.4405910000000  0.5571120000000  0.5715660000000 1.0
C      1  0.4883450000000  0.5133300000000  0.4822080000000 1.0
C      1  0.4647820000000  0.4920910000000  0.5430790000000 1.0
C      1  0.5658460000000  0.4978310000000  0.5227360000000 1.0
C      1  0.4635400000000  0.4221030000000  0.5579180000000 1.0
C      1  0.4518840000000  0.5360270000000  0.4241890000000 1.0
C      1  0.5615970000000  0.4969440000000  0.3892370000000 1.0
C      1  0.5099320000000  0.4139590000000  0.4674500000000 1.0
C      1  0.4863380000000  0.5430930000000  0.5132130000000 1.0
C      1  0.4488520000000  0.5365850000000  0.4721980000000 1.0
C      1  0.5895470000000  0.5209480000000  0.5318470000000 1.0
C      1  0.6202530000000  0.4669900000000  0.5166770000000 1.0
C      1  0.5024680000000  0.4243840000000  0.4989420000000 1.0
C      1  0.5863040000000  0.5076290000000  0.4457500000000 1.0
C      1  0.5997540000000  0.5079200000000  0.5043960000000 1.0
C      1  0.4293490000000  0.5264560000000  0.5758210000000 1.0
C      1  0.4305180000000  0.5576040000000  0.4877120000000 1.0
C      1  0.4269590000000  0.4455070000000  0.4931240000000 1.0
C      1  0.5435470000000  0.4235080000000  0.5270060000000 1.0
C      1  0.4860360000000  0.4397390000000  0.4149290000000 1.0
C      1  0.5165300000000  0.4569490000000  0.5285670000000 1.0
C      1  0.4313320000000  0.4945580000000  0.4964620000000 1.0
C      1  0.5600090000000  0.4864490000000  0.4416650000000 1.0
C      1  0.5962040000000  0.5500480000000  0.4978850000000 1.0
C      1  0.5342660000000  0.5130400000000  0.5951860000000 1.0
C      1  0.4305290000000  0.4743800000000  0.5813360000000 1.0
C      1  0.5219990000000  0.5158630000000  0.4512670000000 1.0
C      1  0.5472480000000  0.5030090000000  0.4684910000000 1.0
C      1  0.4770380000000  0.4336810000000  0.4788020000000 1.0
C      1  0.5113240000000  0.5623610000000  0.4414940000000 1.0
C      1  0.4552620000000  0.4862430000000  0.4477760000000 1.0
C      1  0.5285770000000  0.5207480000000  0.4204430000000 1.0
C      1  0.5597160000000  0.4736250000000  0.5460190000000 1.0
C      1  0.4741600000000  0.4834800000000  0.4902230000000 1.0
C      1  0.5824440000000  0.4590810000000  0.5265360000000 1.0
C      1  0.4891580000000  0.5033830000000  0.5134790000000 1.0
C      1  0.5459460000000  0.5434630000000  0.4353080000000 1.0
C      1  0.5573640000000  0.4226340000000  0.4737030000000 1.0
C      1  0.5345010000000  0.5733930000000  0.5545590000000 1.0
C      1  0.6020710000000  0.4810250000000  0.4996110000000 1.0
C      1  0.5592780000000  0.5327310000000  0.4607380000000 1.0
C      1  0.5526480000000  0.5462260000000  0.5083000000000 1.0
C      1  0.5196240000000  0.4883390000000  0.5158550000000 1.0
C      1  0.5107120000000  0.4236270000000  0.5320710000000 1.0
C      1  0.3967720000000  0.4960160000000  0.4556150000000 1.0
C      1  0.4862390000000  0.5638360000000  0.4261430000000 1.0
C      1  0.5121620000000  0.6106780000000  0.5157120000000 1.0
C      1  0.4578750000000  0.4398060000000  0.5043340000000 1.0
C      1  0.4736360000000  0.5554160000000  0.4666320000000 1.0
C      1  0.4758670000000  0.5422960000000  0.5516000000000 1.0
C      1  0.3686860000000  0.5086620000000  0.4634910000000 1.0
C      1  0.5436430000000  0.3943450000000  0.4329340000000 1.0
C      1  0.4478740000000  0.5195040000000  0.4468680000000 1.0
C      1  0.4650040000000  0.5989180000000  0.4761540000000 1.0
C      1  0.4189780000000  0.4712790000000  0.4776570000000 1.0
C      1  0.4389020000000  0.5731730000000  0.5467340000000 1.0
C      1  0.4790010000000  0.4599190000000  0.5221090000000 1.0
C      1  0.4027520000000  0.4807200000000  0.5070670000000 1.0
C      1  0.4795140000000  0.5382440000000  0.4151870000000 1.0
C      1  0.5724110000000  0.4867330000000  0.5747090000000 1.0
C      1  0.4792910000000  0.4121830000000  0.5369710000000 1.0
C      1  0.4981730000000  0.5174400000000  0.4111510000000 1.0
C      1  0.4377230000000  0.4234000000000  0.4740020000000 1.0
C      1  0.4907230000000  0.4733830000000  0.5511110000000 1.0
C      1  0.5798710000000  0.4385830000000  0.4568230000000 1.0
C      1  0.4647220000000  0.4081920000000  0.5133530000000 1.0
C      1  0.5376370000000  0.4817830000000  0.5705700000000 1.0
C      1  0.5430810000000  0.5745150000000  0.4376430000000 1.0
C      1  0.5282780000000  0.3958360000000  0.4896450000000 1.0
C      1  0.5150030000000  0.5289630000000  0.5794010000000 1.0
C      1  0.4498450000000  0.5180030000000  0.4963290000000 1.0
C      1  0.6002120000000  0.4705410000000  0.5700870000000 1.0
C      1  0.4888910000000  0.6082780000000  0.4904910000000 1.0
C      1  0.5142060000000  0.5964260000000  0.5402650000000 1.0
C      1  0.4608990000000  0.4868530000000  0.4128180000000 1.0
C      1  0.5371930000000  0.6058590000000  0.4950840000000 1.0
C      1  0.4690880000000  0.5644220000000  0.4957670000000 1.0
C      1  0.4944650000000  0.5749590000000  0.5133590000000 1.0
C      1  0.4587550000000  0.4611070000000  0.4704190000000 1.0
C      1  0.4517130000000  0.4777750000000  0.5151380000000 1.0
C      1  0.4436190000000  0.5639590000000  0.4279480000000 1.0
C      1  0.4444760000000  0.5849980000000  0.4970880000000 1.0
C      1  0.5509120000000  0.4530710000000  0.4801510000000 1.0
C      1  0.5203140000000  0.4869130000000  0.5985350000000 1.0
C      1  0.4777500000000  0.5051160000000  0.5716830000000 1.0
C      1  0.4279460000000  0.4557650000000  0.5255290000000 1.0
C      1  0.5502450000000  0.5005040000000  0.4122840000000 1.0
C      1  0.4408900000000  0.5460980000000  0.5332240000000 1.0
C      1  0.4094180000000  0.4810510000000  0.5387130000000 1.0
END
