TITL C-3371514-4997-27 -0.00159705999314447 125000 -227.310864513842 0 0 43 (C1) n - 1
REM
REM in /nfs/bkarasulu/CARBON/AIRSS/Generating-Clusters/AIREBO/with-SteepDescent/Only-C1/SD-CG-opt/Try1-1.4A-POS3A/HFTN-CG
REM
REM
REM
REM
REM
REM ./C.cell (11c1c37f851c82e70ff6c80c92926a4b)
REM
REM compiler GCC version 9.2.1 20190827 (Red Hat 9.2.1-1)
REM options -cpp -mtune=generic -march=x86-64 -g -O0 -fpre-include=/usr/include/finclude/math-vector-fortran.h
REM seed -707474037 -210978868 1628443363 357029369 1717011457 -462482622 -1244950633 -1487571231 -386994081 1983530646 -26141467 1515393721 420376948 52632111 1205887513 1740988195 153633780 -511827731 527893797 1082977728 12608108 -1613563651 -947876713 1418896621 -1751357879 119330631 874065926 673730521 -1830529833 -1107463952 1021615046 1106151602 523610073
REM
CELL 1.54180   50.00000   50.00000   50.00000   90.00000   90.00000   90.00000
LATT -1
SFAC C  
C      1  0.4515780000000  0.5411820000000  0.4307380000000 1.0
C      1  0.4784890000000  0.4858720000000  0.5551880000000 1.0
C      1  0.5173700000000  0.5746100000000  0.5246490000000 1.0
C      1  0.5333780000000  0.4604690000000  0.5062890000000 1.0
C      1  0.4537320000000  0.4783130000000  0.5175150000000 1.0
C      1  0.5075840000000  0.5080780000000  0.4507970000000 1.0
C      1  0.5018330000000  0.4680810000000  0.5125920000000 1.0
C      1  0.4769780000000  0.4618580000000  0.5323770000000 1.0
C      1  0.4957130000000  0.5592870000000  0.5165710000000 1.0
C      1  0.4739010000000  0.5693040000000  0.4932090000000 1.0
C      1  0.5523230000000  0.4813770000000  0.5177820000000 1.0
C      1  0.4569200000000  0.5481470000000  0.4796550000000 1.0
C      1  0.4388680000000  0.5269210000000  0.5255060000000 1.0
C      1  0.4959100000000  0.5361670000000  0.4534630000000 1.0
C      1  0.5148020000000  0.4356600000000  0.4922860000000 1.0
C      1  0.5592560000000  0.5029830000000  0.4980440000000 1.0
C      1  0.5429250000000  0.4921500000000  0.5484450000000 1.0
C      1  0.4976150000000  0.4626520000000  0.4548090000000 1.0
C      1  0.4910120000000  0.5127540000000  0.5385550000000 1.0
C      1  0.5449790000000  0.4548070000000  0.4751330000000 1.0
C      1  0.5173940000000  0.4817260000000  0.4471640000000 1.0
C      1  0.4962140000000  0.5447870000000  0.4857170000000 1.0
C      1  0.4339540000000  0.4995170000000  0.5323180000000 1.0
C      1  0.4813270000000  0.5431110000000  0.5382820000000 1.0
C      1  0.4704990000000  0.5064810000000  0.5121630000000 1.0
C      1  0.5753530000000  0.4715280000000  0.5373910000000 1.0
C      1  0.4759720000000  0.4759230000000  0.4701030000000 1.0
C      1  0.5567630000000  0.4838230000000  0.5705800000000 1.0
C      1  0.5103660000000  0.5156870000000  0.4839630000000 1.0
C      1  0.4541480000000  0.5445210000000  0.5421590000000 1.0
C      1  0.5393120000000  0.5203450000000  0.4933250000000 1.0
C      1  0.4665950000000  0.5419670000000  0.4529790000000 1.0
C      1  0.5439230000000  0.4739690000000  0.4541300000000 1.0
C      1  0.5674690000000  0.4895210000000  0.4526530000000 1.0
C      1  0.4714900000000  0.4333640000000  0.5403090000000 1.0
C      1  0.4499550000000  0.5282280000000  0.4976090000000 1.0
C      1  0.5773310000000  0.4991600000000  0.4768050000000 1.0
C      1  0.5222090000000  0.5188950000000  0.5518720000000 1.0
C      1  0.4437460000000  0.4767350000000  0.4590310000000 1.0
C      1  0.5152030000000  0.4906870000000  0.5293770000000 1.0
C      1  0.4489330000000  0.4688840000000  0.4893480000000 1.0
C      1  0.4907660000000  0.4920840000000  0.4927700000000 1.0
C      1  0.5059150000000  0.4383870000000  0.4663500000000 1.0
END
