TITL C-3371508-3820-55 0.00119405981606506 125000 -1034.53152600396 0 0 189 (C1) n - 1
REM
REM in /nfs/bkarasulu/CARBON/AIRSS/Generating-Clusters/AIREBO/with-SteepDescent/Only-C1/SD-CG-opt/Try1-1.4A-POS3A/HFTN-CG
REM
REM
REM
REM
REM
REM ./C.cell (11c1c37f851c82e70ff6c80c92926a4b)
REM
REM compiler GCC version 9.2.1 20190827 (Red Hat 9.2.1-1)
REM options -cpp -mtune=generic -march=x86-64 -g -O0 -fpre-include=/usr/include/finclude/math-vector-fortran.h
REM seed 2018558530 1438556629 -420420875 1973267855 -1262532895 -1647935399 -2088479056 760842662 502594628 1377672426 -1076009221 -941684548 1828929424 -2120718840 -1271934410 1214248975 -971265468 979581953 1862969282 1943176491 -1646694172 -18349731 1241147864 2021666628 -1719277938 2027902365 1113784173 -219974251 1212567900 1106297500 -1983809033 104032838 -1294586338
REM
CELL 1.54180   50.00000   50.00000   50.00000   90.00000   90.00000   90.00000
LATT -1
SFAC C  
C      1  0.5818090000000  0.4760520000000  0.4444580000000 1.0
C      1  0.4515430000000  0.5397050000000  0.4781660000000 1.0
C      1  0.5825780000000  0.5561050000000  0.5085080000000 1.0
C      1  0.5131640000000  0.4125870000000  0.5829140000000 1.0
C      1  0.4854810000000  0.5848300000000  0.4515680000000 1.0
C      1  0.5636160000000  0.5096560000000  0.4765740000000 1.0
C      1  0.3905780000000  0.5348290000000  0.5036430000000 1.0
C      1  0.5882530000000  0.5448200000000  0.4190490000000 1.0
C      1  0.4966740000000  0.3935560000000  0.4649570000000 1.0
C      1  0.4287140000000  0.4925440000000  0.4734750000000 1.0
C      1  0.5504840000000  0.4608210000000  0.5463230000000 1.0
C      1  0.5351240000000  0.4933120000000  0.4708350000000 1.0
C      1  0.5195720000000  0.5348770000000  0.4900850000000 1.0
C      1  0.5320930000000  0.4951250000000  0.4389020000000 1.0
C      1  0.5012950000000  0.4913080000000  0.5035420000000 1.0
C      1  0.4727550000000  0.5080210000000  0.5087940000000 1.0
C      1  0.4696950000000  0.5348660000000  0.5984690000000 1.0
C      1  0.5218110000000  0.6287540000000  0.5377170000000 1.0
C      1  0.5598010000000  0.4219650000000  0.5470320000000 1.0
C      1  0.5133820000000  0.5984350000000  0.4456840000000 1.0
C      1  0.6022560000000  0.4950320000000  0.4617640000000 1.0
C      1  0.5966600000000  0.5211520000000  0.5418790000000 1.0
C      1  0.5709810000000  0.4046420000000  0.4530560000000 1.0
C      1  0.5201490000000  0.5478620000000  0.5325770000000 1.0
C      1  0.5024970000000  0.4513350000000  0.5455720000000 1.0
C      1  0.5005970000000  0.5229360000000  0.5373450000000 1.0
C      1  0.5503520000000  0.5642100000000  0.4542080000000 1.0
C      1  0.4543430000000  0.4888100000000  0.4914860000000 1.0
C      1  0.4366340000000  0.5585300000000  0.5689430000000 1.0
C      1  0.3782560000000  0.5557120000000  0.4945930000000 1.0
C      1  0.5117400000000  0.5241180000000  0.5694450000000 1.0
C      1  0.4589700000000  0.4305440000000  0.5291130000000 1.0
C      1  0.5152450000000  0.5342260000000  0.3962940000000 1.0
C      1  0.3989140000000  0.4826640000000  0.4265770000000 1.0
C      1  0.5909250000000  0.5096690000000  0.5709250000000 1.0
C      1  0.4821750000000  0.5544480000000  0.4798860000000 1.0
C      1  0.5289810000000  0.4363200000000  0.5467350000000 1.0
C      1  0.5271650000000  0.6092770000000  0.4924400000000 1.0
C      1  0.5214050000000  0.4964960000000  0.5423960000000 1.0
C      1  0.5360230000000  0.5642710000000  0.4854310000000 1.0
C      1  0.4954140000000  0.4618520000000  0.5151560000000 1.0
C      1  0.5448070000000  0.5651990000000  0.5947230000000 1.0
C      1  0.5415290000000  0.5143110000000  0.3988760000000 1.0
C      1  0.5666810000000  0.4526390000000  0.4612950000000 1.0
C      1  0.4190460000000  0.4601820000000  0.5410900000000 1.0
C      1  0.6004650000000  0.5434870000000  0.4458750000000 1.0
C      1  0.6120000000000  0.4480360000000  0.5013470000000 1.0
C      1  0.4724250000000  0.5399210000000  0.5459480000000 1.0
C      1  0.4802430000000  0.4400630000000  0.4797990000000 1.0
C      1  0.5110730000000  0.4763800000000  0.5645720000000 1.0
C      1  0.4067520000000  0.5016220000000  0.5181520000000 1.0
C      1  0.5401110000000  0.3944210000000  0.5259770000000 1.0
C      1  0.4609270000000  0.3896090000000  0.5093080000000 1.0
C      1  0.5539540000000  0.5923560000000  0.4922780000000 1.0
C      1  0.4286980000000  0.4358150000000  0.5302570000000 1.0
C      1  0.4412920000000  0.5427100000000  0.5325250000000 1.0
C      1  0.5766450000000  0.4810320000000  0.4127980000000 1.0
C      1  0.4985670000000  0.5495080000000  0.5077190000000 1.0
C      1  0.4491070000000  0.3949160000000  0.4853330000000 1.0
C      1  0.4677760000000  0.3957190000000  0.4598880000000 1.0
C      1  0.5471230000000  0.4755780000000  0.5157950000000 1.0
C      1  0.5135000000000  0.5666330000000  0.6079100000000 1.0
C      1  0.4366050000000  0.4501550000000  0.4897690000000 1.0
C      1  0.5250100000000  0.4045570000000  0.5547050000000 1.0
C      1  0.4817570000000  0.5678000000000  0.5575650000000 1.0
C      1  0.4420080000000  0.5240980000000  0.4073080000000 1.0
C      1  0.4767580000000  0.6134980000000  0.5207780000000 1.0
C      1  0.4676370000000  0.5307940000000  0.4182340000000 1.0
C      1  0.4105360000000  0.4656880000000  0.4738910000000 1.0
C      1  0.4529030000000  0.5783040000000  0.5565860000000 1.0
C      1  0.5089590000000  0.4086650000000  0.5260220000000 1.0
C      1  0.5677620000000  0.4083940000000  0.5215310000000 1.0
C      1  0.3939060000000  0.5267180000000  0.5343430000000 1.0
C      1  0.6120230000000  0.5188060000000  0.4528690000000 1.0
C      1  0.5762850000000  0.5902630000000  0.4699490000000 1.0
C      1  0.4913810000000  0.5132650000000  0.4088470000000 1.0
C      1  0.5077440000000  0.4513640000000  0.4632050000000 1.0
C      1  0.4141580000000  0.5786210000000  0.4750210000000 1.0
C      1  0.6197400000000  0.4824310000000  0.5339450000000 1.0
C      1  0.4613520000000  0.5352410000000  0.5078380000000 1.0
C      1  0.5633170000000  0.4991090000000  0.3973950000000 1.0
C      1  0.5692610000000  0.5799950000000  0.5171460000000 1.0
C      1  0.5132610000000  0.3899780000000  0.4406910000000 1.0
C      1  0.4347730000000  0.4613330000000  0.4263330000000 1.0
C      1  0.4369140000000  0.5093170000000  0.5278480000000 1.0
C      1  0.4520240000000  0.5990050000000  0.5380440000000 1.0
C      1  0.3991120000000  0.4609180000000  0.4442030000000 1.0
C      1  0.3637550000000  0.5151770000000  0.4366790000000 1.0
C      1  0.5369100000000  0.4436000000000  0.4474230000000 1.0
C      1  0.4911300000000  0.4835420000000  0.5912070000000 1.0
C      1  0.5775260000000  0.4999610000000  0.5246470000000 1.0
C      1  0.4299220000000  0.5069650000000  0.5747430000000 1.0
C      1  0.4308190000000  0.6020180000000  0.4782150000000 1.0
C      1  0.4645910000000  0.5333890000000  0.4510520000000 1.0
C      1  0.4239780000000  0.4182460000000  0.4517380000000 1.0
C      1  0.4251960000000  0.4083670000000  0.4800720000000 1.0
C      1  0.4497750000000  0.4789780000000  0.5237350000000 1.0
C      1  0.5471070000000  0.5378830000000  0.5370470000000 1.0
C      1  0.5108290000000  0.5096770000000  0.4783860000000 1.0
C      1  0.3904270000000  0.4517690000000  0.5076860000000 1.0
C      1  0.4481040000000  0.5723650000000  0.4553500000000 1.0
C      1  0.5889460000000  0.4230990000000  0.4993390000000 1.0
C      1  0.5041780000000  0.4873820000000  0.4248430000000 1.0
C      1  0.4691710000000  0.5612420000000  0.4333020000000 1.0
C      1  0.5548400000000  0.5225760000000  0.5132220000000 1.0
C      1  0.4366320000000  0.4556320000000  0.4580400000000 1.0
C      1  0.4641830000000  0.4532870000000  0.5067260000000 1.0
C      1  0.4030420000000  0.5211820000000  0.5660920000000 1.0
C      1  0.5189410000000  0.5128240000000  0.6070480000000 1.0
C      1  0.5404140000000  0.4104480000000  0.4406390000000 1.0
C      1  0.5093260000000  0.6114480000000  0.5190850000000 1.0
C      1  0.4982350000000  0.5817050000000  0.5312820000000 1.0
C      1  0.5354210000000  0.5244710000000  0.4290580000000 1.0
C      1  0.4605820000000  0.5773410000000  0.4867220000000 1.0
C      1  0.5690630000000  0.4706480000000  0.4898470000000 1.0
C      1  0.5683760000000  0.4352100000000  0.5710990000000 1.0
C      1  0.5411850000000  0.4458600000000  0.5034460000000 1.0
C      1  0.4178460000000  0.5669010000000  0.4456910000000 1.0
C      1  0.5515340000000  0.5772530000000  0.5418180000000 1.0
C      1  0.4426530000000  0.4216520000000  0.5973290000000 1.0
C      1  0.5134320000000  0.4355100000000  0.5099160000000 1.0
C      1  0.4106560000000  0.5134540000000  0.4874270000000 1.0
C      1  0.5041390000000  0.4181960000000  0.4851860000000 1.0
C      1  0.5428920000000  0.4557000000000  0.5793890000000 1.0
C      1  0.5620180000000  0.5364190000000  0.4384100000000 1.0
C      1  0.5310710000000  0.4050130000000  0.4728900000000 1.0
C      1  0.4868240000000  0.4068540000000  0.5660890000000 1.0
C      1  0.5282110000000  0.5745080000000  0.5169300000000 1.0
C      1  0.5903600000000  0.4969360000000  0.4932970000000 1.0
C      1  0.4880350000000  0.5136320000000  0.6067790000000 1.0
C      1  0.4862510000000  0.4678500000000  0.4445350000000 1.0
C      1  0.5206830000000  0.4592050000000  0.4262460000000 1.0
C      1  0.5662350000000  0.5331360000000  0.5647540000000 1.0
C      1  0.4786460000000  0.4033720000000  0.5302420000000 1.0
C      1  0.5202410000000  0.6159240000000  0.4668590000000 1.0
C      1  0.4717510000000  0.5664870000000  0.5163290000000 1.0
C      1  0.3997210000000  0.4721710000000  0.5242280000000 1.0
C      1  0.4759560000000  0.4275170000000  0.4052890000000 1.0
C      1  0.4209000000000  0.5444690000000  0.4779830000000 1.0
C      1  0.4078640000000  0.5373730000000  0.4473630000000 1.0
C      1  0.4128810000000  0.4360560000000  0.4329710000000 1.0
C      1  0.3911570000000  0.5133950000000  0.4323770000000 1.0
C      1  0.5900660000000  0.5498950000000  0.5471980000000 1.0
C      1  0.4505560000000  0.6020190000000  0.5044010000000 1.0
C      1  0.4836030000000  0.5049030000000  0.5683250000000 1.0
C      1  0.5616390000000  0.5419000000000  0.4860750000000 1.0
C      1  0.4143270000000  0.4288970000000  0.5013210000000 1.0
C      1  0.5539600000000  0.5646790000000  0.5680020000000 1.0
C      1  0.4823090000000  0.4942820000000  0.5365780000000 1.0
C      1  0.5533810000000  0.4999510000000  0.5467810000000 1.0
C      1  0.5001750000000  0.4556000000000  0.6041050000000 1.0
C      1  0.4938850000000  0.5169660000000  0.3762480000000 1.0
C      1  0.4550190000000  0.5142790000000  0.5563470000000 1.0
C      1  0.4355830000000  0.4800020000000  0.5547170000000 1.0
C      1  0.4432630000000  0.5355530000000  0.5876600000000 1.0
C      1  0.6029090000000  0.4856040000000  0.5586360000000 1.0
C      1  0.5644800000000  0.5032610000000  0.4457190000000 1.0
C      1  0.4610850000000  0.4211170000000  0.5797990000000 1.0
C      1  0.4845380000000  0.5613410000000  0.5908430000000 1.0
C      1  0.5792540000000  0.4247140000000  0.4698900000000 1.0
C      1  0.5969890000000  0.5296380000000  0.4999540000000 1.0
C      1  0.5823220000000  0.4687930000000  0.5374120000000 1.0
C      1  0.4649060000000  0.4095560000000  0.4293210000000 1.0
C      1  0.5111550000000  0.5382810000000  0.4447050000000 1.0
C      1  0.5087840000000  0.5639760000000  0.4650310000000 1.0
C      1  0.5470480000000  0.4096720000000  0.4114690000000 1.0
C      1  0.6114700000000  0.4747190000000  0.5080470000000 1.0
C      1  0.4713750000000  0.4432300000000  0.4341860000000 1.0
C      1  0.5178880000000  0.5578750000000  0.4177290000000 1.0
C      1  0.5738660000000  0.4468740000000  0.5128200000000 1.0
C      1  0.5317300000000  0.5377150000000  0.6092440000000 1.0
C      1  0.5191450000000  0.4389020000000  0.5930870000000 1.0
C      1  0.5118790000000  0.5514920000000  0.5775090000000 1.0
C      1  0.5822000000000  0.5585120000000  0.4646770000000 1.0
C      1  0.4140340000000  0.5482190000000  0.5499810000000 1.0
C      1  0.4775170000000  0.4355460000000  0.5537810000000 1.0
C      1  0.5306960000000  0.4652240000000  0.4801740000000 1.0
C      1  0.4891980000000  0.5138430000000  0.4535140000000 1.0
C      1  0.5319430000000  0.5010360000000  0.5112380000000 1.0
C      1  0.5405510000000  0.5126180000000  0.5735030000000 1.0
C      1  0.4180480000000  0.4801770000000  0.4042930000000 1.0
C      1  0.4384360000000  0.4915850000000  0.4415880000000 1.0
C      1  0.5308590000000  0.4854770000000  0.5907040000000 1.0
C      1  0.5910280000000  0.4486790000000  0.5634200000000 1.0
C      1  0.5308990000000  0.5788290000000  0.4346360000000 1.0
C      1  0.4667390000000  0.4894050000000  0.4603880000000 1.0
C      1  0.4556620000000  0.4275130000000  0.4599340000000 1.0
C      1  0.4583700000000  0.6046170000000  0.4584160000000 1.0
C      1  0.4246520000000  0.5130350000000  0.4264530000000 1.0
END
