TITL C-3371507-1587-40 0.00132538114802437 125000 -532.585304039584 0 0 96 (C1) n - 1
REM
REM in /nfs/bkarasulu/CARBON/AIRSS/Generating-Clusters/AIREBO/with-SteepDescent/Only-C1/SD-CG-opt/Try1-1.4A-POS3A/HFTN-CG
REM
REM
REM
REM
REM
REM ./C.cell (11c1c37f851c82e70ff6c80c92926a4b)
REM
REM compiler GCC version 9.2.1 20190827 (Red Hat 9.2.1-1)
REM options -cpp -mtune=generic -march=x86-64 -g -O0 -fpre-include=/usr/include/finclude/math-vector-fortran.h
REM seed -311112928 -1847693701 -1770852642 -790838946 -1407546115 -1871286565 -1004114524 1277070668 832070283 -2133798263 939788891 777115852 1446173332 316744848 -1233303407 1650513959 320691732 -262751179 800159829 -261466297 2028005897 -304077958 -981749416 -2019495132 -186838622 769927881 -1275313534 1539872510 153429559 1973796736 295944021 -430025571 -445496001
REM
CELL 1.54180   50.00000   50.00000   50.00000   90.00000   90.00000   90.00000
LATT -1
SFAC C  
C      1  0.5067710000000  0.4206450000000  0.5050180000000 1.0
C      1  0.4868300000000  0.5093870000000  0.5686480000000 1.0
C      1  0.4379920000000  0.5611650000000  0.5042950000000 1.0
C      1  0.4750210000000  0.5690040000000  0.4321350000000 1.0
C      1  0.5156770000000  0.5834520000000  0.5057010000000 1.0
C      1  0.5310860000000  0.5581120000000  0.5604520000000 1.0
C      1  0.5562400000000  0.4459150000000  0.4304370000000 1.0
C      1  0.5675860000000  0.4753330000000  0.4335980000000 1.0
C      1  0.5859080000000  0.5208670000000  0.5264410000000 1.0
C      1  0.4564220000000  0.5209440000000  0.4296130000000 1.0
C      1  0.4880450000000  0.5741300000000  0.4592700000000 1.0
C      1  0.4530360000000  0.5307020000000  0.5687850000000 1.0
C      1  0.4383600000000  0.4451420000000  0.4411610000000 1.0
C      1  0.5007060000000  0.4748480000000  0.5543200000000 1.0
C      1  0.5515460000000  0.5141640000000  0.4082490000000 1.0
C      1  0.5652390000000  0.4728070000000  0.5044890000000 1.0
C      1  0.4942950000000  0.4421260000000  0.5609960000000 1.0
C      1  0.4308710000000  0.5381020000000  0.4916540000000 1.0
C      1  0.5034370000000  0.5561690000000  0.5534290000000 1.0
C      1  0.4620690000000  0.4957390000000  0.4654350000000 1.0
C      1  0.4124550000000  0.5139870000000  0.4506400000000 1.0
C      1  0.4716680000000  0.4582380000000  0.5806050000000 1.0
C      1  0.4122080000000  0.5173990000000  0.4780650000000 1.0
C      1  0.4430000000000  0.4526970000000  0.4716020000000 1.0
C      1  0.5456250000000  0.5141490000000  0.5677500000000 1.0
C      1  0.5105830000000  0.5118380000000  0.4659370000000 1.0
C      1  0.4712710000000  0.4130910000000  0.4370150000000 1.0
C      1  0.4998170000000  0.4740280000000  0.6041510000000 1.0
C      1  0.4490120000000  0.5085140000000  0.4909540000000 1.0
C      1  0.5546060000000  0.4839780000000  0.5547390000000 1.0
C      1  0.4203860000000  0.5244720000000  0.5317010000000 1.0
C      1  0.5333390000000  0.5352220000000  0.5078580000000 1.0
C      1  0.5394680000000  0.5038930000000  0.5317080000000 1.0
C      1  0.5556800000000  0.4977830000000  0.4834620000000 1.0
C      1  0.4462210000000  0.4223190000000  0.4282770000000 1.0
C      1  0.5391180000000  0.5225370000000  0.4381770000000 1.0
C      1  0.5332580000000  0.4179420000000  0.4967620000000 1.0
C      1  0.5439970000000  0.5799700000000  0.5118790000000 1.0
C      1  0.4620570000000  0.4438250000000  0.5518020000000 1.0
C      1  0.5404070000000  0.5406440000000  0.5802440000000 1.0
C      1  0.5397750000000  0.4349540000000  0.5352230000000 1.0
C      1  0.5072610000000  0.4600230000000  0.4794410000000 1.0
C      1  0.5692880000000  0.4940990000000  0.4085200000000 1.0
C      1  0.4737710000000  0.4881080000000  0.5899130000000 1.0
C      1  0.5352290000000  0.5687900000000  0.4674680000000 1.0
C      1  0.5129240000000  0.5062130000000  0.5499150000000 1.0
C      1  0.4742580000000  0.5433080000000  0.4190410000000 1.0
C      1  0.4974880000000  0.5353060000000  0.4053760000000 1.0
C      1  0.5533100000000  0.4986290000000  0.4516020000000 1.0
C      1  0.4319920000000  0.4099510000000  0.4091090000000 1.0
C      1  0.4825180000000  0.4158390000000  0.4613130000000 1.0
C      1  0.4403410000000  0.4791330000000  0.5504880000000 1.0
C      1  0.5052900000000  0.5222410000000  0.5220310000000 1.0
C      1  0.4811970000000  0.5195190000000  0.4504400000000 1.0
C      1  0.4760010000000  0.4940510000000  0.5407180000000 1.0
C      1  0.5377810000000  0.4581370000000  0.5609790000000 1.0
C      1  0.5450630000000  0.4349420000000  0.4501230000000 1.0
C      1  0.5059100000000  0.4338830000000  0.5323090000000 1.0
C      1  0.5876720000000  0.4863220000000  0.4822020000000 1.0
C      1  0.4353980000000  0.5048940000000  0.4371020000000 1.0
C      1  0.4435490000000  0.4767950000000  0.4475710000000 1.0
C      1  0.4931150000000  0.4849430000000  0.4655050000000 1.0
C      1  0.5165270000000  0.4667170000000  0.5829600000000 1.0
C      1  0.4793810000000  0.5373960000000  0.4940070000000 1.0
C      1  0.4829700000000  0.5411770000000  0.5667920000000 1.0
C      1  0.4207130000000  0.4778610000000  0.5227510000000 1.0
C      1  0.4809280000000  0.4550130000000  0.5257690000000 1.0
C      1  0.4692160000000  0.5593820000000  0.5131150000000 1.0
C      1  0.5801980000000  0.5169550000000  0.4971750000000 1.0
C      1  0.4498400000000  0.4637480000000  0.5215670000000 1.0
C      1  0.5100980000000  0.5460090000000  0.4890990000000 1.0
C      1  0.5674150000000  0.4642950000000  0.4654900000000 1.0
C      1  0.4904150000000  0.4760380000000  0.5042590000000 1.0
C      1  0.4871090000000  0.4348190000000  0.4854570000000 1.0
C      1  0.4445470000000  0.5651240000000  0.5348000000000 1.0
C      1  0.5566960000000  0.5716020000000  0.4857830000000 1.0
C      1  0.5530580000000  0.4436310000000  0.5050830000000 1.0
C      1  0.4348480000000  0.5437610000000  0.5504550000000 1.0
C      1  0.5224490000000  0.5255390000000  0.4089630000000 1.0
C      1  0.5628840000000  0.5455190000000  0.5050760000000 1.0
C      1  0.4775830000000  0.5071130000000  0.5093610000000 1.0
C      1  0.4482890000000  0.5016360000000  0.5747820000000 1.0
C      1  0.5187710000000  0.4861730000000  0.5113560000000 1.0
C      1  0.5611600000000  0.5267750000000  0.5402640000000 1.0
C      1  0.5268850000000  0.5400300000000  0.4601220000000 1.0
C      1  0.5516750000000  0.5582830000000  0.5346030000000 1.0
C      1  0.4785590000000  0.5464730000000  0.4648620000000 1.0
C      1  0.4198670000000  0.5033760000000  0.5074790000000 1.0
C      1  0.5020900000000  0.5566820000000  0.5204230000000 1.0
C      1  0.5287650000000  0.5080300000000  0.4922900000000 1.0
C      1  0.4581560000000  0.4458440000000  0.4942160000000 1.0
C      1  0.5301490000000  0.4652970000000  0.5291930000000 1.0
C      1  0.4472310000000  0.5087960000000  0.5359570000000 1.0
C      1  0.5728990000000  0.4801590000000  0.5312950000000 1.0
C      1  0.5375210000000  0.4520100000000  0.4762530000000 1.0
C      1  0.5106620000000  0.5833780000000  0.4750960000000 1.0
END
