TITL C-3371500-4992-53 0.0033113028017229 125000 -165.787767072381 0 0 31 (C1) n - 1
REM
REM in /nfs/bkarasulu/CARBON/AIRSS/Generating-Clusters/AIREBO/with-SteepDescent/Only-C1/SD-CG-opt/Try1-1.4A-POS3A/HFTN-CG
REM
REM
REM
REM
REM
REM ./C.cell (11c1c37f851c82e70ff6c80c92926a4b)
REM
REM compiler GCC version 9.2.1 20190827 (Red Hat 9.2.1-1)
REM options -cpp -mtune=generic -march=x86-64 -g -O0 -fpre-include=/usr/include/finclude/math-vector-fortran.h
REM seed 1575007139 824591775 156481779 1133759870 982666256 2092020040 -1903043903 -941375333 1781606668 1276298094 75286956 660040506 -1850808740 355962238 -2001261661 108885186 -43565883 -743203622 -1216158319 355314939 1814158641 -1466220329 -1163033492 545307953 -1946692787 -1428705329 -2142775781 497055949 219026654 -73458208 1751179016 -1564098893 -2033010399
REM
CELL 1.54180   50.00000   50.00000   50.00000   90.00000   90.00000   90.00000
LATT -1
SFAC C  
C      1  0.4895310000000  0.5525120000000  0.5267420000000 1.0
C      1  0.4687540000000  0.4593760000000  0.5175850000000 1.0
C      1  0.5328550000000  0.5314790000000  0.4908650000000 1.0
C      1  0.4388280000000  0.5193030000000  0.5584550000000 1.0
C      1  0.5393590000000  0.5275680000000  0.4648540000000 1.0
C      1  0.5106340000000  0.5457490000000  0.5501590000000 1.0
C      1  0.4448640000000  0.4642940000000  0.4769470000000 1.0
C      1  0.5294670000000  0.4744940000000  0.4613450000000 1.0
C      1  0.4535240000000  0.4473510000000  0.4969100000000 1.0
C      1  0.5003060000000  0.4907270000000  0.4998200000000 1.0
C      1  0.5486280000000  0.4878630000000  0.5092670000000 1.0
C      1  0.5527280000000  0.4787170000000  0.4837900000000 1.0
C      1  0.5491400000000  0.5110740000000  0.4256930000000 1.0
C      1  0.4535740000000  0.4947690000000  0.4773940000000 1.0
C      1  0.5534320000000  0.4982890000000  0.4569870000000 1.0
C      1  0.5134190000000  0.4428690000000  0.5133860000000 1.0
C      1  0.5246070000000  0.5079890000000  0.5104960000000 1.0
C      1  0.4850280000000  0.5238730000000  0.5441620000000 1.0
C      1  0.5177590000000  0.5141810000000  0.5409160000000 1.0
C      1  0.5564860000000  0.4837320000000  0.5362840000000 1.0
C      1  0.5076820000000  0.4921010000000  0.4517930000000 1.0
C      1  0.4913440000000  0.5224400000000  0.4911390000000 1.0
C      1  0.4917920000000  0.5473190000000  0.4995270000000 1.0
C      1  0.5401280000000  0.4969400000000  0.5547200000000 1.0
C      1  0.4512470000000  0.5047550000000  0.5075180000000 1.0
C      1  0.4381890000000  0.5106210000000  0.4596810000000 1.0
C      1  0.4847230000000  0.4967750000000  0.4713970000000 1.0
C      1  0.4565360000000  0.4814720000000  0.5285070000000 1.0
C      1  0.5210410000000  0.5157050000000  0.4415760000000 1.0
C      1  0.4584770000000  0.5118090000000  0.5402210000000 1.0
C      1  0.4959170000000  0.4638560000000  0.5118650000000 1.0
END
