TITL C-3371500-4992-26 0.000211203186839652 125000 -234.346896889852 0 0 42 (C1) n - 1
REM
REM in /nfs/bkarasulu/CARBON/AIRSS/Generating-Clusters/AIREBO/with-SteepDescent/Only-C1/SD-CG-opt/Try1-1.4A-POS3A/HFTN-CG
REM
REM
REM
REM
REM
REM ./C.cell (11c1c37f851c82e70ff6c80c92926a4b)
REM
REM compiler GCC version 9.2.1 20190827 (Red Hat 9.2.1-1)
REM options -cpp -mtune=generic -march=x86-64 -g -O0 -fpre-include=/usr/include/finclude/math-vector-fortran.h
REM seed -1854451095 1380199730 -1218671730 -2012075526 880275143 -1000766905 -1376617071 -268695963 121259917 -832242667 -1664346340 -191921895 -1942118447 -1588491946 -886557606 441333829 1671720725 79475832 -895905595 -1100900957 -980977946 -191808749 -1512317283 -1671815004 -2140552730 -418492740 628302204 -1630869945 -480465266 491996756 2089192673 -1924843703 946170310
REM
CELL 1.54180   50.00000   50.00000   50.00000   90.00000   90.00000   90.00000
LATT -1
SFAC C  
C      1  0.5349530000000  0.5116780000000  0.5358920000000 1.0
C      1  0.4816080000000  0.5897840000000  0.4559730000000 1.0
C      1  0.4489450000000  0.5099430000000  0.5059350000000 1.0
C      1  0.4810630000000  0.5395320000000  0.5338660000000 1.0
C      1  0.4574030000000  0.5164090000000  0.4401790000000 1.0
C      1  0.5040360000000  0.5526690000000  0.5410910000000 1.0
C      1  0.5302680000000  0.5582340000000  0.5225900000000 1.0
C      1  0.4491910000000  0.4673260000000  0.5449280000000 1.0
C      1  0.4853960000000  0.5648250000000  0.4648360000000 1.0
C      1  0.4988050000000  0.5495540000000  0.4876540000000 1.0
C      1  0.5072530000000  0.4498410000000  0.4989360000000 1.0
C      1  0.5275070000000  0.5419970000000  0.4955460000000 1.0
C      1  0.5527080000000  0.4967980000000  0.4755940000000 1.0
C      1  0.4524500000000  0.5309700000000  0.5277710000000 1.0
C      1  0.5692160000000  0.4788800000000  0.5210010000000 1.0
C      1  0.5608600000000  0.4737100000000  0.4942050000000 1.0
C      1  0.4763660000000  0.5274420000000  0.4960360000000 1.0
C      1  0.4796890000000  0.5127690000000  0.4203690000000 1.0
C      1  0.5245150000000  0.5234590000000  0.4499780000000 1.0
C      1  0.4910040000000  0.4889660000000  0.4703560000000 1.0
C      1  0.4615210000000  0.4812150000000  0.4715010000000 1.0
C      1  0.5306380000000  0.4660130000000  0.5626380000000 1.0
C      1  0.4847540000000  0.4579870000000  0.5435060000000 1.0
C      1  0.5409850000000  0.4507060000000  0.4941410000000 1.0
C      1  0.4721970000000  0.5342780000000  0.4628230000000 1.0
C      1  0.5401380000000  0.5221140000000  0.4725610000000 1.0
C      1  0.4510580000000  0.4830000000000  0.4975980000000 1.0
C      1  0.4829740000000  0.4419310000000  0.5143000000000 1.0
C      1  0.4764830000000  0.4147890000000  0.5133730000000 1.0
C      1  0.5029390000000  0.4949570000000  0.4997140000000 1.0
C      1  0.5437820000000  0.4825750000000  0.5403350000000 1.0
C      1  0.4735820000000  0.4882740000000  0.5407690000000 1.0
C      1  0.5322130000000  0.5372590000000  0.5472840000000 1.0
C      1  0.5262570000000  0.5137650000000  0.5090070000000 1.0
C      1  0.4849540000000  0.5083340000000  0.5228470000000 1.0
C      1  0.5080120000000  0.4552110000000  0.5612710000000 1.0
C      1  0.4569660000000  0.4623570000000  0.5153660000000 1.0
C      1  0.5123430000000  0.4666950000000  0.4713060000000 1.0
C      1  0.5259370000000  0.4741370000000  0.5136530000000 1.0
C      1  0.5369350000000  0.4742830000000  0.4621820000000 1.0
C      1  0.4465100000000  0.4925120000000  0.4504620000000 1.0
C      1  0.4955870000000  0.5128210000000  0.4506290000000 1.0
END
