TITL C-3371503-4580-20 0.00226501400462889 125000 -757.274473472867 0 0 142 (C1) n - 1
REM
REM in /nfs/bkarasulu/CARBON/AIRSS/Generating-Clusters/AIREBO/with-SteepDescent/Only-C1/SD-CG-opt/Try1-1.4A-POS3A/HFTN-CG
REM
REM
REM
REM
REM
REM ./C.cell (11c1c37f851c82e70ff6c80c92926a4b)
REM
REM compiler GCC version 9.2.1 20190827 (Red Hat 9.2.1-1)
REM options -cpp -mtune=generic -march=x86-64 -g -O0 -fpre-include=/usr/include/finclude/math-vector-fortran.h
REM seed 639596947 468557765 1671907126 1872967554 281123870 2136552070 1203141084 -1855320413 352147786 811992996 -1237274381 -381511612 -1118743188 -1912145402 -282600586 -1039804057 -550363736 1710373480 -1939951269 -2028618675 -1883202630 -1451526448 -1620430296 261960064 77421908 1672474282 1261452248 857655513 -303592130 1417041253 -404326101 -1157069563 1996725036
REM
CELL 1.54180   50.00000   50.00000   50.00000   90.00000   90.00000   90.00000
LATT -1
SFAC C  
C      1  0.4415730000000  0.5362930000000  0.5024240000000 1.0
C      1  0.5641050000000  0.5522470000000  0.5291700000000 1.0
C      1  0.4458660000000  0.4215860000000  0.5278270000000 1.0
C      1  0.5193300000000  0.5859640000000  0.4613570000000 1.0
C      1  0.5836650000000  0.5319170000000  0.5101360000000 1.0
C      1  0.5763570000000  0.5303270000000  0.4528950000000 1.0
C      1  0.4971330000000  0.5471400000000  0.5228920000000 1.0
C      1  0.4942590000000  0.4920280000000  0.4144720000000 1.0
C      1  0.5920520000000  0.5166420000000  0.5393370000000 1.0
C      1  0.5101450000000  0.5321850000000  0.4506010000000 1.0
C      1  0.4808960000000  0.4745010000000  0.5909280000000 1.0
C      1  0.4776540000000  0.5853430000000  0.5444360000000 1.0
C      1  0.5608780000000  0.4568860000000  0.4271430000000 1.0
C      1  0.5174870000000  0.4517880000000  0.4930240000000 1.0
C      1  0.4849930000000  0.5440200000000  0.4193680000000 1.0
C      1  0.4604520000000  0.4877270000000  0.4145190000000 1.0
C      1  0.4444050000000  0.5710850000000  0.5380130000000 1.0
C      1  0.4960260000000  0.5224750000000  0.4914540000000 1.0
C      1  0.5014420000000  0.6009400000000  0.5476850000000 1.0
C      1  0.5389230000000  0.5593770000000  0.4226340000000 1.0
C      1  0.5146080000000  0.5425680000000  0.4109240000000 1.0
C      1  0.5406320000000  0.4804920000000  0.5573450000000 1.0
C      1  0.4529130000000  0.4659980000000  0.4339000000000 1.0
C      1  0.4113420000000  0.5294910000000  0.4605270000000 1.0
C      1  0.4735840000000  0.4920830000000  0.5559270000000 1.0
C      1  0.4743480000000  0.5157350000000  0.4252910000000 1.0
C      1  0.5539200000000  0.4388200000000  0.5164090000000 1.0
C      1  0.4892270000000  0.4490500000000  0.5090110000000 1.0
C      1  0.4666640000000  0.5779550000000  0.4690480000000 1.0
C      1  0.5239830000000  0.5489700000000  0.5712880000000 1.0
C      1  0.5728280000000  0.5165690000000  0.5677760000000 1.0
C      1  0.5206230000000  0.5563790000000  0.5391210000000 1.0
C      1  0.5116540000000  0.4650380000000  0.5796520000000 1.0
C      1  0.5171490000000  0.4818830000000  0.5327920000000 1.0
C      1  0.4203960000000  0.4448600000000  0.4913810000000 1.0
C      1  0.5246280000000  0.4819880000000  0.4788150000000 1.0
C      1  0.5475460000000  0.5678460000000  0.5544620000000 1.0
C      1  0.5734540000000  0.4650450000000  0.5070780000000 1.0
C      1  0.5861410000000  0.4519610000000  0.5357990000000 1.0
C      1  0.4862070000000  0.4418630000000  0.4697220000000 1.0
C      1  0.5510250000000  0.5245600000000  0.5429350000000 1.0
C      1  0.4202390000000  0.4412240000000  0.4616960000000 1.0
C      1  0.4451680000000  0.4055390000000  0.4978270000000 1.0
C      1  0.6010580000000  0.5080480000000  0.4932800000000 1.0
C      1  0.4363310000000  0.5219410000000  0.5629610000000 1.0
C      1  0.5273810000000  0.4983280000000  0.5077080000000 1.0
C      1  0.4783680000000  0.5413580000000  0.4585040000000 1.0
C      1  0.5387160000000  0.4448740000000  0.5746760000000 1.0
C      1  0.4922030000000  0.4711440000000  0.4378680000000 1.0
C      1  0.5202290000000  0.4104620000000  0.5275370000000 1.0
C      1  0.5553260000000  0.5570570000000  0.4524660000000 1.0
C      1  0.5563950000000  0.5041960000000  0.4603790000000 1.0
C      1  0.4619010000000  0.5013460000000  0.5852930000000 1.0
C      1  0.4244110000000  0.4649390000000  0.4470820000000 1.0
C      1  0.5388550000000  0.4902130000000  0.4262500000000 1.0
C      1  0.4803740000000  0.5009220000000  0.5065800000000 1.0
C      1  0.5319610000000  0.4219300000000  0.4977500000000 1.0
C      1  0.4817050000000  0.4754890000000  0.4908540000000 1.0
C      1  0.4532520000000  0.5410540000000  0.5323380000000 1.0
C      1  0.5233070000000  0.5207690000000  0.5832720000000 1.0
C      1  0.4538520000000  0.5674950000000  0.4980110000000 1.0
C      1  0.6020060000000  0.4555470000000  0.4912290000000 1.0
C      1  0.5799630000000  0.5784440000000  0.5143930000000 1.0
C      1  0.5564360000000  0.5136600000000  0.5010760000000 1.0
C      1  0.4314410000000  0.4917060000000  0.5736080000000 1.0
C      1  0.5772900000000  0.5747500000000  0.4866150000000 1.0
C      1  0.5582360000000  0.4754760000000  0.4784870000000 1.0
C      1  0.4178110000000  0.6086920000000  0.5166510000000 1.0
C      1  0.4933440000000  0.4182360000000  0.5214770000000 1.0
C      1  0.4783510000000  0.5704510000000  0.5169090000000 1.0
C      1  0.4920350000000  0.5956880000000  0.4715630000000 1.0
C      1  0.4591200000000  0.4483180000000  0.5442250000000 1.0
C      1  0.4761120000000  0.5323100000000  0.5533340000000 1.0
C      1  0.5051090000000  0.4448500000000  0.5544220000000 1.0
C      1  0.3997470000000  0.5193460000000  0.5322840000000 1.0
C      1  0.5642100000000  0.4497200000000  0.4570750000000 1.0
C      1  0.4281860000000  0.5834120000000  0.5134040000000 1.0
C      1  0.5664340000000  0.4597720000000  0.5618710000000 1.0
C      1  0.5167210000000  0.5129600000000  0.4230670000000 1.0
C      1  0.4178150000000  0.4771100000000  0.5538490000000 1.0
C      1  0.5714750000000  0.4186020000000  0.4954470000000 1.0
C      1  0.4610620000000  0.5663770000000  0.5672840000000 1.0
C      1  0.5269290000000  0.4157590000000  0.4506480000000 1.0
C      1  0.5008800000000  0.5755670000000  0.4951350000000 1.0
C      1  0.4733530000000  0.4113300000000  0.5400160000000 1.0
C      1  0.4171470000000  0.4908710000000  0.4554770000000 1.0
C      1  0.4346190000000  0.4952270000000  0.5083420000000 1.0
C      1  0.5864260000000  0.5478920000000  0.4802300000000 1.0
C      1  0.4176060000000  0.4295070000000  0.5135660000000 1.0
C      1  0.4617080000000  0.4409400000000  0.4915110000000 1.0
C      1  0.5108120000000  0.4439170000000  0.4461610000000 1.0
C      1  0.5127540000000  0.3979020000000  0.4834840000000 1.0
C      1  0.4273410000000  0.4510860000000  0.5491640000000 1.0
C      1  0.4080030000000  0.5319520000000  0.5552780000000 1.0
C      1  0.4600010000000  0.5355220000000  0.5826140000000 1.0
C      1  0.5779800000000  0.4772260000000  0.4194060000000 1.0
C      1  0.4098390000000  0.4922630000000  0.5310780000000 1.0
C      1  0.4946060000000  0.4886710000000  0.4642110000000 1.0
C      1  0.5335890000000  0.4595810000000  0.4121050000000 1.0
C      1  0.5884360000000  0.4910810000000  0.4797780000000 1.0
C      1  0.5264580000000  0.5890330000000  0.5370020000000 1.0
C      1  0.4689050000000  0.5105070000000  0.4584500000000 1.0
C      1  0.5288770000000  0.5810570000000  0.5049180000000 1.0
C      1  0.5319610000000  0.4156480000000  0.5577320000000 1.0
C      1  0.4378460000000  0.5161390000000  0.4457880000000 1.0
C      1  0.4675200000000  0.4176950000000  0.4450410000000 1.0
C      1  0.5792570000000  0.4878150000000  0.5512880000000 1.0
C      1  0.5742840000000  0.4942500000000  0.5195040000000 1.0
C      1  0.5285610000000  0.5144870000000  0.4696070000000 1.0
C      1  0.4934050000000  0.5563510000000  0.5681280000000 1.0
C      1  0.5171360000000  0.5647310000000  0.4436390000000 1.0
C      1  0.5225840000000  0.5134520000000  0.5442020000000 1.0
C      1  0.5477710000000  0.5383130000000  0.4792430000000 1.0
C      1  0.4129160000000  0.5629150000000  0.4946380000000 1.0
C      1  0.4948140000000  0.4103120000000  0.4604070000000 1.0
C      1  0.4920950000000  0.5164440000000  0.5307560000000 1.0
C      1  0.5867070000000  0.4364340000000  0.4763420000000 1.0
C      1  0.5689180000000  0.5056020000000  0.4303860000000 1.0
C      1  0.5215520000000  0.5310840000000  0.5083280000000 1.0
C      1  0.5425570000000  0.5531770000000  0.5059310000000 1.0
C      1  0.5478580000000  0.5798400000000  0.4766920000000 1.0
C      1  0.4752950000000  0.4432570000000  0.4281800000000 1.0
C      1  0.4507100000000  0.5073150000000  0.5358090000000 1.0
C      1  0.5061020000000  0.4438960000000  0.4124790000000 1.0
C      1  0.5023280000000  0.5510290000000  0.4781230000000 1.0
C      1  0.4225680000000  0.5573050000000  0.4694550000000 1.0
C      1  0.4872250000000  0.4664920000000  0.5381430000000 1.0
C      1  0.4138060000000  0.5079850000000  0.4846710000000 1.0
C      1  0.5362780000000  0.4443940000000  0.5407600000000 1.0
C      1  0.4465780000000  0.4226000000000  0.4684830000000 1.0
C      1  0.4079760000000  0.5330940000000  0.5068430000000 1.0
C      1  0.4717170000000  0.4505710000000  0.5755160000000 1.0
C      1  0.4639890000000  0.5621490000000  0.4390600000000 1.0
C      1  0.4828440000000  0.4230870000000  0.5641110000000 1.0
C      1  0.5448970000000  0.5024080000000  0.5754270000000 1.0
C      1  0.4567610000000  0.5125990000000  0.4892560000000 1.0
C      1  0.4417970000000  0.4677630000000  0.4946650000000 1.0
C      1  0.5051260000000  0.4964440000000  0.5679220000000 1.0
C      1  0.4353380000000  0.5500040000000  0.4400670000000 1.0
C      1  0.4590340000000  0.4710860000000  0.4659010000000 1.0
C      1  0.5504810000000  0.4217260000000  0.4688790000000 1.0
C      1  0.5306910000000  0.4698340000000  0.4498980000000 1.0
END
