TITL C-3371501-9953-63 0.00163188088602453 125000 -595.768313354564 0 0 112 (C1) n - 1
REM
REM in /nfs/bkarasulu/CARBON/AIRSS/Generating-Clusters/AIREBO/with-SteepDescent/Only-C1/SD-CG-opt/Try1-1.4A-POS3A/HFTN-CG
REM
REM
REM
REM
REM
REM ./C.cell (11c1c37f851c82e70ff6c80c92926a4b)
REM
REM compiler GCC version 9.2.1 20190827 (Red Hat 9.2.1-1)
REM options -cpp -mtune=generic -march=x86-64 -g -O0 -fpre-include=/usr/include/finclude/math-vector-fortran.h
REM seed -843536814 1454145802 -1518442178 1251325359 737522815 -163792556 1922706964 -551770590 -1482098000 110536888 148843738 940152426 771956610 2026671865 510963226 -255612697 189525337 -1749555314 -1580929352 -1671237703 1526902527 -2027279763 503164473 1394181409 -1130940830 221313339 -955224156 1147927923 2028029021 -1137051480 2094954042 1755558055 2036079896
REM
CELL 1.54180   50.00000   50.00000   50.00000   90.00000   90.00000   90.00000
LATT -1
SFAC C  
C      1  0.5976080000000  0.4932070000000  0.4933360000000 1.0
C      1  0.4683340000000  0.4467330000000  0.4355300000000 1.0
C      1  0.4969360000000  0.5089060000000  0.5669340000000 1.0
C      1  0.5422540000000  0.5655960000000  0.5343820000000 1.0
C      1  0.4335430000000  0.4961670000000  0.5294030000000 1.0
C      1  0.5403550000000  0.5139440000000  0.4234590000000 1.0
C      1  0.3994620000000  0.4869730000000  0.4783450000000 1.0
C      1  0.5100430000000  0.5532980000000  0.4456010000000 1.0
C      1  0.5046290000000  0.5204940000000  0.4826160000000 1.0
C      1  0.5535290000000  0.4547660000000  0.4545360000000 1.0
C      1  0.4975760000000  0.5020220000000  0.4549320000000 1.0
C      1  0.5045430000000  0.4708570000000  0.4147320000000 1.0
C      1  0.4762700000000  0.5426850000000  0.4269990000000 1.0
C      1  0.4308900000000  0.5471530000000  0.5110610000000 1.0
C      1  0.5131340000000  0.4501260000000  0.5835750000000 1.0
C      1  0.4348550000000  0.4381440000000  0.5225750000000 1.0
C      1  0.5194070000000  0.5815850000000  0.4875250000000 1.0
C      1  0.5737500000000  0.4873330000000  0.5476830000000 1.0
C      1  0.4783270000000  0.4304820000000  0.5053930000000 1.0
C      1  0.4083910000000  0.4851640000000  0.4526740000000 1.0
C      1  0.5040430000000  0.4516620000000  0.5447960000000 1.0
C      1  0.4927970000000  0.5637670000000  0.5537460000000 1.0
C      1  0.5782760000000  0.5388060000000  0.4706660000000 1.0
C      1  0.5219840000000  0.4135730000000  0.5135490000000 1.0
C      1  0.4628930000000  0.5694000000000  0.4754960000000 1.0
C      1  0.4516550000000  0.5234420000000  0.4293210000000 1.0
C      1  0.4568750000000  0.4568700000000  0.5052840000000 1.0
C      1  0.5711060000000  0.4765880000000  0.4483640000000 1.0
C      1  0.5657630000000  0.4256350000000  0.5251830000000 1.0
C      1  0.4887710000000  0.5485600000000  0.4717960000000 1.0
C      1  0.5373270000000  0.5431290000000  0.4280150000000 1.0
C      1  0.4996820000000  0.4495590000000  0.4375930000000 1.0
C      1  0.5406470000000  0.4185560000000  0.5340740000000 1.0
C      1  0.4855810000000  0.5467570000000  0.5059900000000 1.0
C      1  0.4352030000000  0.5326180000000  0.4505090000000 1.0
C      1  0.5194260000000  0.4363870000000  0.4888080000000 1.0
C      1  0.5304940000000  0.5235850000000  0.4607530000000 1.0
C      1  0.5142270000000  0.5905130000000  0.5166590000000 1.0
C      1  0.4357890000000  0.5593770000000  0.4582510000000 1.0
C      1  0.5569350000000  0.5137480000000  0.4797300000000 1.0
C      1  0.4787790000000  0.5135110000000  0.5036320000000 1.0
C      1  0.5105890000000  0.4997520000000  0.5277260000000 1.0
C      1  0.5837970000000  0.5561760000000  0.5143570000000 1.0
C      1  0.4533010000000  0.4721480000000  0.4412630000000 1.0
C      1  0.4559080000000  0.4777110000000  0.5471900000000 1.0
C      1  0.5328170000000  0.5396040000000  0.5815720000000 1.0
C      1  0.5075610000000  0.5054500000000  0.5990470000000 1.0
C      1  0.5279270000000  0.4987840000000  0.5572610000000 1.0
C      1  0.5583180000000  0.5123750000000  0.5306050000000 1.0
C      1  0.5861770000000  0.4945350000000  0.5172590000000 1.0
C      1  0.5127060000000  0.5567160000000  0.5200550000000 1.0
C      1  0.5798230000000  0.5382550000000  0.5355240000000 1.0
C      1  0.4385030000000  0.5157110000000  0.4759300000000 1.0
C      1  0.5417970000000  0.4752730000000  0.5681160000000 1.0
C      1  0.5108680000000  0.5385980000000  0.5579690000000 1.0
C      1  0.4593940000000  0.5926540000000  0.4972160000000 1.0
C      1  0.5806210000000  0.4918620000000  0.4701110000000 1.0
C      1  0.4915700000000  0.4438540000000  0.4701310000000 1.0
C      1  0.4447840000000  0.5455000000000  0.5369650000000 1.0
C      1  0.4486520000000  0.4148870000000  0.4996920000000 1.0
C      1  0.5324990000000  0.4504980000000  0.4348040000000 1.0
C      1  0.5357190000000  0.4759490000000  0.4128300000000 1.0
C      1  0.5550640000000  0.5459970000000  0.5579730000000 1.0
C      1  0.5537340000000  0.5457330000000  0.4559410000000 1.0
C      1  0.5410890000000  0.5621120000000  0.4900280000000 1.0
C      1  0.5303180000000  0.4391900000000  0.5563250000000 1.0
C      1  0.4385560000000  0.4839360000000  0.4698080000000 1.0
C      1  0.5283010000000  0.5283950000000  0.5306050000000 1.0
C      1  0.5478580000000  0.4832970000000  0.5163980000000 1.0
C      1  0.4545730000000  0.4473320000000  0.5439270000000 1.0
C      1  0.4802930000000  0.4321880000000  0.5393020000000 1.0
C      1  0.5380940000000  0.4860210000000  0.4739880000000 1.0
C      1  0.4579410000000  0.4940310000000  0.4220000000000 1.0
C      1  0.4947600000000  0.4766480000000  0.5561900000000 1.0
C      1  0.4634620000000  0.5127870000000  0.5675610000000 1.0
C      1  0.5074600000000  0.5864710000000  0.5462430000000 1.0
C      1  0.4314020000000  0.4357110000000  0.4828500000000 1.0
C      1  0.5256970000000  0.5253880000000  0.6036510000000 1.0
C      1  0.5330650000000  0.5302670000000  0.4985170000000 1.0
C      1  0.5623230000000  0.4905340000000  0.4251600000000 1.0
C      1  0.4687560000000  0.5167720000000  0.4653210000000 1.0
C      1  0.4759630000000  0.4141260000000  0.4756630000000 1.0
C      1  0.4928780000000  0.4767060000000  0.5901380000000 1.0
C      1  0.4445650000000  0.5211500000000  0.5496340000000 1.0
C      1  0.5046220000000  0.4518220000000  0.5137930000000 1.0
C      1  0.4860980000000  0.4913920000000  0.4098040000000 1.0
C      1  0.5621490000000  0.4546370000000  0.5127150000000 1.0
C      1  0.5181310000000  0.4802450000000  0.5009140000000 1.0
C      1  0.4953750000000  0.4064440000000  0.5223670000000 1.0
C      1  0.4323040000000  0.5637800000000  0.4895960000000 1.0
C      1  0.4115190000000  0.4520000000000  0.4933950000000 1.0
C      1  0.5955350000000  0.5493610000000  0.4896750000000 1.0
C      1  0.4068030000000  0.4769870000000  0.5379700000000 1.0
C      1  0.4709270000000  0.5600340000000  0.5327890000000 1.0
C      1  0.5569040000000  0.5126880000000  0.5645800000000 1.0
C      1  0.4068970000000  0.4526300000000  0.5246300000000 1.0
C      1  0.4631010000000  0.4839360000000  0.5792630000000 1.0
C      1  0.4936140000000  0.4769730000000  0.4775800000000 1.0
C      1  0.4453740000000  0.5189350000000  0.5070670000000 1.0
C      1  0.5265790000000  0.4889870000000  0.4428830000000 1.0
C      1  0.4797100000000  0.4965590000000  0.5330950000000 1.0
C      1  0.4632020000000  0.4211990000000  0.4461300000000 1.0
C      1  0.5566120000000  0.4582880000000  0.5462650000000 1.0
C      1  0.5445260000000  0.4544050000000  0.4848140000000 1.0
C      1  0.4606460000000  0.5880950000000  0.5219710000000 1.0
C      1  0.4832870000000  0.5712630000000  0.4393490000000 1.0
C      1  0.4231840000000  0.4823350000000  0.5001060000000 1.0
C      1  0.4907990000000  0.5164420000000  0.4261120000000 1.0
C      1  0.4582410000000  0.4495580000000  0.4738000000000 1.0
C      1  0.5594890000000  0.5704390000000  0.5116420000000 1.0
C      1  0.5066270000000  0.5826170000000  0.4617150000000 1.0
C      1  0.4661730000000  0.4851870000000  0.4896310000000 1.0
END
