TITL C-3371514-4997-78 -0.00023876657048915 125000 -563.907966039219 0 0 102 (C1) n - 1
REM
REM in /nfs/bkarasulu/CARBON/AIRSS/Generating-Clusters/AIREBO/with-SteepDescent/Only-C1/SD-CG-opt/Try1-1.4A-POS3A/HFTN-CG
REM
REM
REM
REM
REM
REM ./C.cell (11c1c37f851c82e70ff6c80c92926a4b)
REM
REM compiler GCC version 9.2.1 20190827 (Red Hat 9.2.1-1)
REM options -cpp -mtune=generic -march=x86-64 -g -O0 -fpre-include=/usr/include/finclude/math-vector-fortran.h
REM seed -1541473719 1488404999 1230869584 1691215911 420882472 -333049645 1658770148 -1365319618 1010247748 -495373210 -293804400 425610404 -2058842082 340908047 -332609571 1762934932 539023776 -251537538 -4765125 1234004707 -470358773 1104754208 -475650157 1643582351 1102144707 326523596 -390720783 -62686734 572452232 -322666949 -173985472 1867368499 -1416025926
REM
CELL 1.54180   50.00000   50.00000   50.00000   90.00000   90.00000   90.00000
LATT -1
SFAC C  
C      1  0.5353310000000  0.4700490000000  0.5387280000000 1.0
C      1  0.5315590000000  0.5381730000000  0.4957550000000 1.0
C      1  0.5625290000000  0.4324410000000  0.5194420000000 1.0
C      1  0.4625820000000  0.4270420000000  0.5457220000000 1.0
C      1  0.5683390000000  0.5547600000000  0.4717020000000 1.0
C      1  0.4787090000000  0.4906400000000  0.6024910000000 1.0
C      1  0.4598670000000  0.5060980000000  0.5582490000000 1.0
C      1  0.5004290000000  0.5266290000000  0.4884190000000 1.0
C      1  0.4908080000000  0.5146990000000  0.4301490000000 1.0
C      1  0.4562370000000  0.5535550000000  0.4320310000000 1.0
C      1  0.5853050000000  0.5294750000000  0.5114140000000 1.0
C      1  0.4528310000000  0.5740980000000  0.5046820000000 1.0
C      1  0.4805540000000  0.4245230000000  0.5014510000000 1.0
C      1  0.5153710000000  0.5872920000000  0.5085550000000 1.0
C      1  0.4638020000000  0.4300380000000  0.4533710000000 1.0
C      1  0.4200680000000  0.4577650000000  0.4793580000000 1.0
C      1  0.4540760000000  0.5000410000000  0.4629820000000 1.0
C      1  0.4988220000000  0.4762270000000  0.4625830000000 1.0
C      1  0.5293690000000  0.5418540000000  0.4403850000000 1.0
C      1  0.5158600000000  0.5681210000000  0.4338920000000 1.0
C      1  0.4667720000000  0.5253700000000  0.4911150000000 1.0
C      1  0.4611580000000  0.4912790000000  0.5293420000000 1.0
C      1  0.5348690000000  0.4989160000000  0.4031710000000 1.0
C      1  0.5273250000000  0.4732170000000  0.4442890000000 1.0
C      1  0.5533720000000  0.5057580000000  0.5701120000000 1.0
C      1  0.4546520000000  0.5447240000000  0.5119560000000 1.0
C      1  0.4935430000000  0.5848640000000  0.4960980000000 1.0
C      1  0.4279850000000  0.5599070000000  0.4868200000000 1.0
C      1  0.5356120000000  0.4847600000000  0.4944020000000 1.0
C      1  0.4895880000000  0.5597520000000  0.4781080000000 1.0
C      1  0.4476830000000  0.4553770000000  0.4374080000000 1.0
C      1  0.5622360000000  0.4687340000000  0.5538390000000 1.0
C      1  0.4822120000000  0.5781700000000  0.5414880000000 1.0
C      1  0.4914240000000  0.5020230000000  0.5340840000000 1.0
C      1  0.5648970000000  0.5695840000000  0.5185040000000 1.0
C      1  0.5485040000000  0.4541720000000  0.4869400000000 1.0
C      1  0.5023400000000  0.4645650000000  0.5375150000000 1.0
C      1  0.4171400000000  0.5374250000000  0.5003050000000 1.0
C      1  0.5344630000000  0.4289370000000  0.5667000000000 1.0
C      1  0.4262890000000  0.4735840000000  0.4432030000000 1.0
C      1  0.5027700000000  0.5297790000000  0.5222140000000 1.0
C      1  0.5328400000000  0.4448000000000  0.5222690000000 1.0
C      1  0.5796280000000  0.4944150000000  0.5527370000000 1.0
C      1  0.4460860000000  0.5273670000000  0.4508520000000 1.0
C      1  0.4127130000000  0.5083370000000  0.5271130000000 1.0
C      1  0.4935970000000  0.4678140000000  0.5074990000000 1.0
C      1  0.4888060000000  0.4238300000000  0.4732180000000 1.0
C      1  0.5640370000000  0.5094850000000  0.4426490000000 1.0
C      1  0.5569740000000  0.5377190000000  0.4462960000000 1.0
C      1  0.5152090000000  0.5708890000000  0.4637130000000 1.0
C      1  0.5383950000000  0.5602710000000  0.4747140000000 1.0
C      1  0.4224530000000  0.4667400000000  0.5525930000000 1.0
C      1  0.5511630000000  0.5530370000000  0.5439570000000 1.0
C      1  0.4635870000000  0.4623050000000  0.5023800000000 1.0
C      1  0.5028270000000  0.4927330000000  0.4901760000000 1.0
C      1  0.4377960000000  0.5159640000000  0.4211380000000 1.0
C      1  0.4572090000000  0.4951440000000  0.4964020000000 1.0
C      1  0.5503440000000  0.5151530000000  0.4983730000000 1.0
C      1  0.5771020000000  0.4508470000000  0.4872010000000 1.0
C      1  0.4562100000000  0.5772540000000  0.4481070000000 1.0
C      1  0.5079590000000  0.4209910000000  0.5730560000000 1.0
C      1  0.5098470000000  0.5095340000000  0.4053530000000 1.0
C      1  0.5677570000000  0.5182040000000  0.5341560000000 1.0
C      1  0.5442300000000  0.4209830000000  0.4931590000000 1.0
C      1  0.4779100000000  0.4904990000000  0.4448830000000 1.0
C      1  0.4115100000000  0.5077400000000  0.4931980000000 1.0
C      1  0.4839320000000  0.5014010000000  0.5773790000000 1.0
C      1  0.4666210000000  0.5292020000000  0.4168680000000 1.0
C      1  0.5511740000000  0.5331370000000  0.5691100000000 1.0
C      1  0.5186570000000  0.4248610000000  0.4731640000000 1.0
C      1  0.5111810000000  0.5216270000000  0.4565240000000 1.0
C      1  0.4571470000000  0.5517070000000  0.4718620000000 1.0
C      1  0.5336400000000  0.5650320000000  0.5141220000000 1.0
C      1  0.5068450000000  0.4883310000000  0.5611280000000 1.0
C      1  0.4677250000000  0.4696670000000  0.4247320000000 1.0
C      1  0.5345600000000  0.5255760000000  0.5335760000000 1.0
C      1  0.5235440000000  0.4957230000000  0.5242500000000 1.0
C      1  0.5334520000000  0.4856810000000  0.5753640000000 1.0
C      1  0.4421110000000  0.4430050000000  0.4749330000000 1.0
C      1  0.4713100000000  0.4595250000000  0.4693830000000 1.0
C      1  0.4651330000000  0.5904540000000  0.5236770000000 1.0
C      1  0.5471730000000  0.4911510000000  0.4273660000000 1.0
C      1  0.3873140000000  0.5092940000000  0.5392120000000 1.0
C      1  0.4237820000000  0.4889800000000  0.4734430000000 1.0
C      1  0.4826920000000  0.4261420000000  0.5641490000000 1.0
C      1  0.5792260000000  0.5537700000000  0.4993270000000 1.0
C      1  0.5105180000000  0.4403670000000  0.5024460000000 1.0
C      1  0.5805630000000  0.4996820000000  0.5011880000000 1.0
C      1  0.4546630000000  0.5337090000000  0.5501600000000 1.0
C      1  0.4868500000000  0.5336150000000  0.5737390000000 1.0
C      1  0.5866310000000  0.4534550000000  0.5153030000000 1.0
C      1  0.5436120000000  0.4551060000000  0.5748510000000 1.0
C      1  0.4216170000000  0.4930040000000  0.4221240000000 1.0
C      1  0.5651080000000  0.5001260000000  0.4721950000000 1.0
C      1  0.4835770000000  0.5472550000000  0.5439570000000 1.0
C      1  0.4310870000000  0.4867760000000  0.5382990000000 1.0
C      1  0.4604290000000  0.4349800000000  0.5190670000000 1.0
C      1  0.5392300000000  0.4006700000000  0.5199710000000 1.0
C      1  0.5475490000000  0.4159110000000  0.5451790000000 1.0
C      1  0.4303080000000  0.5358630000000  0.5307390000000 1.0
C      1  0.5319310000000  0.4985110000000  0.4635210000000 1.0
C      1  0.5856400000000  0.4802320000000  0.5235270000000 1.0
END
