TITL C-3371510-9333-53 -0.000664800490891134 125000 -502.059243140423 0 0 92 (C1) n - 1
REM
REM in /nfs/bkarasulu/CARBON/AIRSS/Generating-Clusters/AIREBO/with-SteepDescent/Only-C1/SD-CG-opt/Try1-1.4A-POS3A/HFTN-CG
REM
REM
REM
REM
REM
REM ./C.cell (11c1c37f851c82e70ff6c80c92926a4b)
REM
REM compiler GCC version 9.2.1 20190827 (Red Hat 9.2.1-1)
REM options -cpp -mtune=generic -march=x86-64 -g -O0 -fpre-include=/usr/include/finclude/math-vector-fortran.h
REM seed -11087987 553924210 1671096441 -979689465 628400160 1224889931 -706132454 405972467 -1002963434 105581391 379364855 1946597323 2120274099 579400201 -452876056 -1184365981 -1694226083 -420386995 1463203653 1433367262 -1672737300 364886042 908329799 -1894013966 781269684 -1272970782 383718499 -1324044540 254429978 400525964 1604737053 1252945595 281925838
REM
CELL 1.54180   50.00000   50.00000   50.00000   90.00000   90.00000   90.00000
LATT -1
SFAC C  
C      1  0.4169390000000  0.4828490000000  0.4713500000000 1.0
C      1  0.5389540000000  0.5666040000000  0.5262510000000 1.0
C      1  0.5035610000000  0.4149620000000  0.4788240000000 1.0
C      1  0.4851350000000  0.4145970000000  0.5006130000000 1.0
C      1  0.5103980000000  0.4820850000000  0.5696740000000 1.0
C      1  0.5531680000000  0.5475650000000  0.5408760000000 1.0
C      1  0.5159320000000  0.4258660000000  0.5235030000000 1.0
C      1  0.5451350000000  0.5366070000000  0.4893970000000 1.0
C      1  0.4267400000000  0.5456020000000  0.5110230000000 1.0
C      1  0.4881580000000  0.5057940000000  0.4936470000000 1.0
C      1  0.5473060000000  0.5693070000000  0.4984570000000 1.0
C      1  0.5636980000000  0.5382210000000  0.4629370000000 1.0
C      1  0.5800120000000  0.4625980000000  0.4877340000000 1.0
C      1  0.5030010000000  0.5292670000000  0.4596460000000 1.0
C      1  0.4880460000000  0.5478560000000  0.5528710000000 1.0
C      1  0.4870920000000  0.4424490000000  0.5164540000000 1.0
C      1  0.4840370000000  0.5111340000000  0.4377010000000 1.0
C      1  0.5317150000000  0.4670040000000  0.4911620000000 1.0
C      1  0.5012390000000  0.5933920000000  0.4879030000000 1.0
C      1  0.4836280000000  0.4723380000000  0.5730920000000 1.0
C      1  0.5293840000000  0.5222500000000  0.4306390000000 1.0
C      1  0.5100810000000  0.4817050000000  0.4445530000000 1.0
C      1  0.5118370000000  0.4539910000000  0.4731520000000 1.0
C      1  0.5200600000000  0.5142420000000  0.4947150000000 1.0
C      1  0.4943850000000  0.5598480000000  0.4483690000000 1.0
C      1  0.4627210000000  0.4452890000000  0.4527600000000 1.0
C      1  0.4877840000000  0.4720240000000  0.4684530000000 1.0
C      1  0.5500990000000  0.5454780000000  0.4406210000000 1.0
C      1  0.5335390000000  0.4336330000000  0.5516510000000 1.0
C      1  0.4647200000000  0.4884370000000  0.4519190000000 1.0
C      1  0.5085970000000  0.5560910000000  0.5150740000000 1.0
C      1  0.5197810000000  0.4363070000000  0.4496140000000 1.0
C      1  0.4451880000000  0.4891350000000  0.4240880000000 1.0
C      1  0.4557270000000  0.5654090000000  0.4561900000000 1.0
C      1  0.5204030000000  0.5545890000000  0.4317280000000 1.0
C      1  0.5337780000000  0.5309020000000  0.5571980000000 1.0
C      1  0.4871330000000  0.4826250000000  0.4193960000000 1.0
C      1  0.4263810000000  0.5219760000000  0.5329710000000 1.0
C      1  0.4875540000000  0.4528570000000  0.4334980000000 1.0
C      1  0.5117600000000  0.5510800000000  0.5718750000000 1.0
C      1  0.5185980000000  0.4775520000000  0.5150490000000 1.0
C      1  0.5283620000000  0.5846790000000  0.4816830000000 1.0
C      1  0.4232100000000  0.5330440000000  0.4853120000000 1.0
C      1  0.5292470000000  0.4220790000000  0.4953680000000 1.0
C      1  0.4981480000000  0.5024310000000  0.5259750000000 1.0
C      1  0.4750080000000  0.4660690000000  0.4980270000000 1.0
C      1  0.5454370000000  0.4842780000000  0.4675610000000 1.0
C      1  0.4885860000000  0.4227620000000  0.4492910000000 1.0
C      1  0.4532920000000  0.4505390000000  0.4819580000000 1.0
C      1  0.4279260000000  0.4606390000000  0.4884090000000 1.0
C      1  0.4375130000000  0.4681150000000  0.4500060000000 1.0
C      1  0.4817780000000  0.5788810000000  0.4700080000000 1.0
C      1  0.4655210000000  0.5882020000000  0.5242270000000 1.0
C      1  0.4539500000000  0.4897660000000  0.5059160000000 1.0
C      1  0.5756410000000  0.5007560000000  0.5319120000000 1.0
C      1  0.4274160000000  0.4721030000000  0.5178710000000 1.0
C      1  0.4447470000000  0.5669530000000  0.5130180000000 1.0
C      1  0.5371180000000  0.4624580000000  0.4437100000000 1.0
C      1  0.5213870000000  0.5267260000000  0.5265080000000 1.0
C      1  0.5983780000000  0.4529940000000  0.5102320000000 1.0
C      1  0.4770520000000  0.5449920000000  0.5213140000000 1.0
C      1  0.5731280000000  0.5326570000000  0.5291760000000 1.0
C      1  0.5409980000000  0.4729550000000  0.5810960000000 1.0
C      1  0.5711800000000  0.4510470000000  0.5243000000000 1.0
C      1  0.4507330000000  0.5096670000000  0.5526060000000 1.0
C      1  0.4126840000000  0.5064560000000  0.4875750000000 1.0
C      1  0.5157850000000  0.5001890000000  0.4165910000000 1.0
C      1  0.4605350000000  0.5074340000000  0.4776160000000 1.0
C      1  0.4623570000000  0.4897240000000  0.5748660000000 1.0
C      1  0.4688930000000  0.5384760000000  0.4412880000000 1.0
C      1  0.5307870000000  0.5107090000000  0.4626400000000 1.0
C      1  0.4581930000000  0.5194820000000  0.5209170000000 1.0
C      1  0.4915990000000  0.4694780000000  0.5340830000000 1.0
C      1  0.5832180000000  0.5189500000000  0.4643110000000 1.0
C      1  0.5738830000000  0.4916070000000  0.4787550000000 1.0
C      1  0.5311400000000  0.4810830000000  0.5434770000000 1.0
C      1  0.4691800000000  0.5630910000000  0.4937310000000 1.0
C      1  0.5324900000000  0.5057600000000  0.5775910000000 1.0
C      1  0.5155210000000  0.5516460000000  0.4820520000000 1.0
C      1  0.5525250000000  0.4444720000000  0.4969390000000 1.0
C      1  0.5019740000000  0.4266400000000  0.5544410000000 1.0
C      1  0.5671040000000  0.5138420000000  0.5019130000000 1.0
C      1  0.4502300000000  0.4403440000000  0.5508650000000 1.0
C      1  0.5016990000000  0.5202240000000  0.5777190000000 1.0
C      1  0.5623820000000  0.4762370000000  0.5413770000000 1.0
C      1  0.4933290000000  0.5864780000000  0.5153300000000 1.0
C      1  0.5509030000000  0.4519970000000  0.5621840000000 1.0
C      1  0.4795520000000  0.4470560000000  0.5555440000000 1.0
C      1  0.4828330000000  0.5150630000000  0.5517980000000 1.0
C      1  0.4477100000000  0.5346480000000  0.4678520000000 1.0
C      1  0.4315180000000  0.4531000000000  0.5408430000000 1.0
C      1  0.4128170000000  0.4995070000000  0.5155890000000 1.0
END
