TITL C-3371499-8025-61 0.0014579171017211 125000 -521.803648167599 0 0 91 (C1) n - 1
REM
REM in /nfs/bkarasulu/CARBON/AIRSS/Generating-Clusters/AIREBO/with-SteepDescent/Only-C1/SD-CG-opt/Try1-1.4A-POS3A/HFTN-CG
REM
REM
REM
REM
REM
REM ./C.cell (11c1c37f851c82e70ff6c80c92926a4b)
REM
REM compiler GCC version 9.2.1 20190827 (Red Hat 9.2.1-1)
REM options -cpp -mtune=generic -march=x86-64 -g -O0 -fpre-include=/usr/include/finclude/math-vector-fortran.h
REM seed 437550589 1300415916 1321798355 -201552944 266708710 -1614789078 -1573923395 -346316080 -1262854732 2095849802 -1374264445 1886039562 -637053284 845109496 -2090548781 -349502736 -77246190 790783364 -340425122 789671093 312990348 -1854812993 -1204575562 267699246 273124492 -1073439497 1286906773 -1826087880 601076813 -626528022 497569018 -837983125 -679931132
REM
CELL 1.54180   50.00000   50.00000   50.00000   90.00000   90.00000   90.00000
LATT -1
SFAC C  
C      1  0.5701230000000  0.4377280000000  0.5450850000000 1.0
C      1  0.5896620000000  0.5209010000000  0.5118640000000 1.0
C      1  0.4734160000000  0.5192240000000  0.4740740000000 1.0
C      1  0.4308150000000  0.4990530000000  0.5653640000000 1.0
C      1  0.5068650000000  0.4850840000000  0.4630340000000 1.0
C      1  0.5259840000000  0.5389150000000  0.4185210000000 1.0
C      1  0.5217950000000  0.5742390000000  0.5574910000000 1.0
C      1  0.4757290000000  0.4977110000000  0.4215030000000 1.0
C      1  0.5745450000000  0.4626380000000  0.4734360000000 1.0
C      1  0.5629670000000  0.5021230000000  0.5661050000000 1.0
C      1  0.4578150000000  0.4295870000000  0.4815930000000 1.0
C      1  0.5867410000000  0.4801060000000  0.5297200000000 1.0
C      1  0.5214630000000  0.4437430000000  0.5404580000000 1.0
C      1  0.5396120000000  0.5027250000000  0.5160890000000 1.0
C      1  0.4776720000000  0.4684100000000  0.5152890000000 1.0
C      1  0.4919820000000  0.4376100000000  0.5521210000000 1.0
C      1  0.4766390000000  0.4263790000000  0.5311890000000 1.0
C      1  0.5246840000000  0.5644290000000  0.5050800000000 1.0
C      1  0.5274910000000  0.6009630000000  0.5592560000000 1.0
C      1  0.4290980000000  0.4587660000000  0.5262810000000 1.0
C      1  0.4243540000000  0.5079390000000  0.4324670000000 1.0
C      1  0.4577700000000  0.4936840000000  0.4600670000000 1.0
C      1  0.5167080000000  0.5150150000000  0.5627470000000 1.0
C      1  0.4944500000000  0.5584590000000  0.4988670000000 1.0
C      1  0.4425400000000  0.5533080000000  0.4933630000000 1.0
C      1  0.5422710000000  0.5589100000000  0.4556770000000 1.0
C      1  0.5424460000000  0.5098520000000  0.5783790000000 1.0
C      1  0.5458180000000  0.4357510000000  0.5575460000000 1.0
C      1  0.4709040000000  0.5069860000000  0.5232710000000 1.0
C      1  0.4912940000000  0.5111010000000  0.4486150000000 1.0
C      1  0.5397230000000  0.4682860000000  0.4359250000000 1.0
C      1  0.4574440000000  0.5028010000000  0.5798980000000 1.0
C      1  0.4247530000000  0.5243540000000  0.4961760000000 1.0
C      1  0.5174210000000  0.4495400000000  0.4718740000000 1.0
C      1  0.4786290000000  0.4750930000000  0.4467260000000 1.0
C      1  0.4421870000000  0.4919790000000  0.3832860000000 1.0
C      1  0.4778490000000  0.4115550000000  0.4874550000000 1.0
C      1  0.5299530000000  0.4232350000000  0.4681300000000 1.0
C      1  0.5432680000000  0.5742350000000  0.4803520000000 1.0
C      1  0.5528680000000  0.5330950000000  0.4582630000000 1.0
C      1  0.4352220000000  0.5393090000000  0.5228120000000 1.0
C      1  0.4328930000000  0.4464280000000  0.4948260000000 1.0
C      1  0.5749480000000  0.4557670000000  0.5242010000000 1.0
C      1  0.5596390000000  0.4522910000000  0.4987810000000 1.0
C      1  0.4194720000000  0.5001440000000  0.4844600000000 1.0
C      1  0.5382080000000  0.4959860000000  0.4556070000000 1.0
C      1  0.4543150000000  0.5488050000000  0.4358350000000 1.0
C      1  0.4815660000000  0.5038050000000  0.4980660000000 1.0
C      1  0.4965690000000  0.5339730000000  0.5750170000000 1.0
C      1  0.4615080000000  0.4735820000000  0.5646480000000 1.0
C      1  0.5197100000000  0.4245810000000  0.5152560000000 1.0
C      1  0.5256260000000  0.5126390000000  0.4284760000000 1.0
C      1  0.5227320000000  0.5262360000000  0.5335440000000 1.0
C      1  0.4759850000000  0.4396400000000  0.5986130000000 1.0
C      1  0.5682100000000  0.5072530000000  0.5339740000000 1.0
C      1  0.4306960000000  0.5780070000000  0.4881400000000 1.0
C      1  0.4788730000000  0.4848700000000  0.5421370000000 1.0
C      1  0.4375120000000  0.5341510000000  0.4198490000000 1.0
C      1  0.4231580000000  0.5238790000000  0.5538890000000 1.0
C      1  0.4299830000000  0.4723240000000  0.5521430000000 1.0
C      1  0.5074580000000  0.4943320000000  0.4158760000000 1.0
C      1  0.4376660000000  0.4828460000000  0.3598870000000 1.0
C      1  0.5504420000000  0.5447650000000  0.4962340000000 1.0
C      1  0.5251450000000  0.4750350000000  0.5297620000000 1.0
C      1  0.5224610000000  0.5607040000000  0.4360920000000 1.0
C      1  0.5770070000000  0.5148210000000  0.4645620000000 1.0
C      1  0.4997650000000  0.4779210000000  0.4937590000000 1.0
C      1  0.5068650000000  0.4895170000000  0.5493480000000 1.0
C      1  0.4933180000000  0.4149920000000  0.5112550000000 1.0
C      1  0.4181380000000  0.4767270000000  0.4993650000000 1.0
C      1  0.4711880000000  0.5494350000000  0.4805740000000 1.0
C      1  0.4581770000000  0.4459970000000  0.5180170000000 1.0
C      1  0.4493830000000  0.5046860000000  0.4095970000000 1.0
C      1  0.5409460000000  0.5144230000000  0.4840740000000 1.0
C      1  0.5199200000000  0.4688010000000  0.4161330000000 1.0
C      1  0.4719760000000  0.5622740000000  0.4523830000000 1.0
C      1  0.4776460000000  0.4494300000000  0.5731440000000 1.0
C      1  0.5395490000000  0.4271000000000  0.4963970000000 1.0
C      1  0.5328640000000  0.5578940000000  0.5349970000000 1.0
C      1  0.4698970000000  0.5270920000000  0.5731560000000 1.0
C      1  0.4301790000000  0.4976470000000  0.4578570000000 1.0
C      1  0.5303930000000  0.4663220000000  0.4981960000000 1.0
C      1  0.5599500000000  0.5399850000000  0.5380930000000 1.0
C      1  0.4731980000000  0.5323230000000  0.5331000000000 1.0
C      1  0.4968020000000  0.5704830000000  0.4422140000000 1.0
C      1  0.5072460000000  0.5599590000000  0.5769640000000 1.0
C      1  0.6131970000000  0.4820680000000  0.5370400000000 1.0
C      1  0.5772390000000  0.5301990000000  0.4898400000000 1.0
C      1  0.4504640000000  0.5430570000000  0.5524910000000 1.0
C      1  0.5701970000000  0.4866280000000  0.4623440000000 1.0
C      1  0.4967500000000  0.5433580000000  0.5243380000000 1.0
END
