TITL C-3371506-7941-47 0.000156096950690452 125000 -457.379430245724 0 0 85 (C1) n - 1
REM
REM in /nfs/bkarasulu/CARBON/AIRSS/Generating-Clusters/AIREBO/with-SteepDescent/Only-C1/SD-CG-opt/Try1-1.4A-POS3A/HFTN-CG
REM
REM
REM
REM
REM
REM ./C.cell (11c1c37f851c82e70ff6c80c92926a4b)
REM
REM compiler GCC version 9.2.1 20190827 (Red Hat 9.2.1-1)
REM options -cpp -mtune=generic -march=x86-64 -g -O0 -fpre-include=/usr/include/finclude/math-vector-fortran.h
REM seed 1069467497 1618562811 1529698167 -1449168359 1202868793 1595988917 1128559008 1098626455 -1277900492 -1234827426 136327342 1597056684 -1295717987 -757454603 748509950 446670312 -397031979 1359895645 1382521970 -641597958 1986978314 1123602153 -408956135 -1136008872 699195255 1335210208 711218039 427618034 -9670535 734783867 326261695 -989202681 1147460826
REM
CELL 1.54180   50.00000   50.00000   50.00000   90.00000   90.00000   90.00000
LATT -1
SFAC C  
C      1  0.4846740000000  0.5096250000000  0.5747510000000 1.0
C      1  0.4603050000000  0.4382010000000  0.5301800000000 1.0
C      1  0.4545680000000  0.5494830000000  0.5016160000000 1.0
C      1  0.4460420000000  0.4679550000000  0.4781790000000 1.0
C      1  0.4912000000000  0.4999940000000  0.4422170000000 1.0
C      1  0.5369540000000  0.4471520000000  0.5281850000000 1.0
C      1  0.5476450000000  0.4924770000000  0.4347520000000 1.0
C      1  0.4870620000000  0.5235130000000  0.4952020000000 1.0
C      1  0.5212120000000  0.5054520000000  0.4818660000000 1.0
C      1  0.5690730000000  0.5184340000000  0.4697300000000 1.0
C      1  0.4593260000000  0.5067580000000  0.5313750000000 1.0
C      1  0.4791380000000  0.4699400000000  0.4440860000000 1.0
C      1  0.5631890000000  0.4890770000000  0.4627600000000 1.0
C      1  0.4395860000000  0.4843650000000  0.5440080000000 1.0
C      1  0.4812000000000  0.4517830000000  0.4693680000000 1.0
C      1  0.4769960000000  0.4165360000000  0.4873680000000 1.0
C      1  0.4947200000000  0.4506310000000  0.4983460000000 1.0
C      1  0.5157680000000  0.5612480000000  0.5615090000000 1.0
C      1  0.4840840000000  0.4247130000000  0.5169800000000 1.0
C      1  0.5456570000000  0.4838570000000  0.4915120000000 1.0
C      1  0.4994890000000  0.4136420000000  0.4700850000000 1.0
C      1  0.5518090000000  0.5393130000000  0.4595760000000 1.0
C      1  0.5562040000000  0.5629470000000  0.4752260000000 1.0
C      1  0.5061880000000  0.4919270000000  0.4062480000000 1.0
C      1  0.4547580000000  0.5008010000000  0.4793710000000 1.0
C      1  0.4558860000000  0.5468730000000  0.5574070000000 1.0
C      1  0.5618490000000  0.5332290000000  0.5505100000000 1.0
C      1  0.5786490000000  0.4563290000000  0.4992250000000 1.0
C      1  0.4778210000000  0.5365500000000  0.4286720000000 1.0
C      1  0.4627360000000  0.5203500000000  0.5594830000000 1.0
C      1  0.4782030000000  0.5163240000000  0.4631730000000 1.0
C      1  0.4181360000000  0.4762550000000  0.5219760000000 1.0
C      1  0.4971460000000  0.5490360000000  0.4751240000000 1.0
C      1  0.4169510000000  0.5327890000000  0.5224340000000 1.0
C      1  0.5670960000000  0.4782780000000  0.5536580000000 1.0
C      1  0.4173270000000  0.4968660000000  0.5005420000000 1.0
C      1  0.4191970000000  0.4867720000000  0.4691120000000 1.0
C      1  0.4178770000000  0.5201800000000  0.4753040000000 1.0
C      1  0.4397960000000  0.4563030000000  0.5154820000000 1.0
C      1  0.4970040000000  0.4445630000000  0.5613700000000 1.0
C      1  0.4612810000000  0.4791820000000  0.5696680000000 1.0
C      1  0.4947270000000  0.4779020000000  0.5677350000000 1.0
C      1  0.5150710000000  0.5746370000000  0.5179460000000 1.0
C      1  0.5253990000000  0.4571680000000  0.4998020000000 1.0
C      1  0.5276220000000  0.4187270000000  0.5366440000000 1.0
C      1  0.5137950000000  0.4661080000000  0.5420680000000 1.0
C      1  0.5524220000000  0.5576110000000  0.5032410000000 1.0
C      1  0.5676640000000  0.4571610000000  0.4716620000000 1.0
C      1  0.4694650000000  0.4689570000000  0.5382910000000 1.0
C      1  0.5045280000000  0.5343740000000  0.5790680000000 1.0
C      1  0.4573080000000  0.5377880000000  0.4516160000000 1.0
C      1  0.5028450000000  0.5488300000000  0.4355670000000 1.0
C      1  0.4681340000000  0.4711170000000  0.5038540000000 1.0
C      1  0.5437870000000  0.5740780000000  0.5257100000000 1.0
C      1  0.4704130000000  0.5645350000000  0.4782560000000 1.0
C      1  0.5649460000000  0.4564870000000  0.5301750000000 1.0
C      1  0.4530200000000  0.4900040000000  0.4471530000000 1.0
C      1  0.5196770000000  0.5299180000000  0.4582750000000 1.0
C      1  0.4430790000000  0.5183510000000  0.5061520000000 1.0
C      1  0.4816580000000  0.5308200000000  0.5258680000000 1.0
C      1  0.5679280000000  0.5212850000000  0.4976700000000 1.0
C      1  0.5005830000000  0.4212430000000  0.5426260000000 1.0
C      1  0.5351240000000  0.4524610000000  0.4692590000000 1.0
C      1  0.4940310000000  0.4923580000000  0.4976780000000 1.0
C      1  0.5124590000000  0.4878470000000  0.5218630000000 1.0
C      1  0.4548890000000  0.4351600000000  0.4758960000000 1.0
C      1  0.4979510000000  0.5710280000000  0.5405870000000 1.0
C      1  0.5354610000000  0.5281140000000  0.5028890000000 1.0
C      1  0.5129140000000  0.5533970000000  0.4999920000000 1.0
C      1  0.4652720000000  0.5888760000000  0.4702500000000 1.0
C      1  0.5706620000000  0.4854380000000  0.5145250000000 1.0
C      1  0.5434440000000  0.5607660000000  0.5513720000000 1.0
C      1  0.4385570000000  0.5402200000000  0.4730470000000 1.0
C      1  0.5771490000000  0.5155350000000  0.5258190000000 1.0
C      1  0.5512190000000  0.5009810000000  0.5523120000000 1.0
C      1  0.5288460000000  0.5119030000000  0.5288780000000 1.0
C      1  0.5142000000000  0.4332170000000  0.4560860000000 1.0
C      1  0.5210610000000  0.5109440000000  0.4300920000000 1.0
C      1  0.5244750000000  0.4820820000000  0.4573630000000 1.0
C      1  0.4823500000000  0.5119380000000  0.4116360000000 1.0
C      1  0.5147400000000  0.4717450000000  0.4264390000000 1.0
C      1  0.4681300000000  0.5609260000000  0.5307410000000 1.0
C      1  0.5011030000000  0.4465240000000  0.4351770000000 1.0
C      1  0.5055420000000  0.5264530000000  0.5452210000000 1.0
C      1  0.5325480000000  0.5252820000000  0.5658590000000 1.0
END
