TITL C-3371501-9953-75 0.000546188940055634 125000 -295.637541553505 0 0 55 (C1) n - 1
REM
REM in /nfs/bkarasulu/CARBON/AIRSS/Generating-Clusters/AIREBO/with-SteepDescent/Only-C1/SD-CG-opt/Try1-1.4A-POS3A/HFTN-CG
REM
REM
REM
REM
REM
REM ./C.cell (11c1c37f851c82e70ff6c80c92926a4b)
REM
REM compiler GCC version 9.2.1 20190827 (Red Hat 9.2.1-1)
REM options -cpp -mtune=generic -march=x86-64 -g -O0 -fpre-include=/usr/include/finclude/math-vector-fortran.h
REM seed 1463947829 1142630123 -1176033907 334477077 2140455748 -136434629 609056015 -719470260 -1040907860 -1034386999 1748230338 -1229993354 2037134216 1600552568 -104985947 -12560963 -2040813849 -1317287330 1357060955 572797838 -1663319242 1304610324 1745689814 2001660785 -737172657 -1052696986 763317904 22832041 -377135427 -1810843792 -866317897 607269803 1086937910
REM
CELL 1.54180   50.00000   50.00000   50.00000   90.00000   90.00000   90.00000
LATT -1
SFAC C  
C      1  0.5136140000000  0.5290430000000  0.4740120000000 1.0
C      1  0.5005050000000  0.5143050000000  0.4478020000000 1.0
C      1  0.4307990000000  0.5301290000000  0.4590420000000 1.0
C      1  0.5236230000000  0.5598530000000  0.4657080000000 1.0
C      1  0.5085380000000  0.4727220000000  0.4768970000000 1.0
C      1  0.4742450000000  0.4673010000000  0.5238180000000 1.0
C      1  0.5207660000000  0.4968210000000  0.5705470000000 1.0
C      1  0.5672420000000  0.4946430000000  0.5386590000000 1.0
C      1  0.5067550000000  0.4748180000000  0.5172220000000 1.0
C      1  0.5188730000000  0.4447760000000  0.5219630000000 1.0
C      1  0.4621400000000  0.4928400000000  0.5393080000000 1.0
C      1  0.5116270000000  0.5412700000000  0.5389990000000 1.0
C      1  0.4630430000000  0.5386980000000  0.5021320000000 1.0
C      1  0.5192620000000  0.4905540000000  0.4320620000000 1.0
C      1  0.5284200000000  0.4919780000000  0.4966510000000 1.0
C      1  0.5554920000000  0.5084110000000  0.4833210000000 1.0
C      1  0.5422220000000  0.5395830000000  0.4481330000000 1.0
C      1  0.4872620000000  0.4919060000000  0.4952150000000 1.0
C      1  0.4911460000000  0.5387570000000  0.5229690000000 1.0
C      1  0.5361940000000  0.5327670000000  0.5478470000000 1.0
C      1  0.4909240000000  0.5206830000000  0.4947400000000 1.0
C      1  0.4916040000000  0.5611880000000  0.4656360000000 1.0
C      1  0.4491170000000  0.5126580000000  0.5190190000000 1.0
C      1  0.4691610000000  0.4408110000000  0.5445270000000 1.0
C      1  0.4493230000000  0.4560230000000  0.4557600000000 1.0
C      1  0.4070450000000  0.5260510000000  0.4487360000000 1.0
C      1  0.4949390000000  0.4419540000000  0.4784470000000 1.0
C      1  0.4362950000000  0.4458860000000  0.4345370000000 1.0
C      1  0.5176470000000  0.4901390000000  0.5445980000000 1.0
C      1  0.4502810000000  0.4642850000000  0.5052910000000 1.0
C      1  0.4739990000000  0.4683400000000  0.5633770000000 1.0
C      1  0.5039590000000  0.4278580000000  0.4996920000000 1.0
C      1  0.4560220000000  0.5317560000000  0.4695880000000 1.0
C      1  0.4367830000000  0.4682050000000  0.4774580000000 1.0
C      1  0.5617790000000  0.5323820000000  0.5064690000000 1.0
C      1  0.5006600000000  0.4517200000000  0.5492690000000 1.0
C      1  0.4357300000000  0.4920380000000  0.4999700000000 1.0
C      1  0.4796550000000  0.5113600000000  0.5903100000000 1.0
C      1  0.5625920000000  0.5619720000000  0.4971930000000 1.0
C      1  0.5073090000000  0.5108450000000  0.5899380000000 1.0
C      1  0.5574610000000  0.5212860000000  0.4565790000000 1.0
C      1  0.5295060000000  0.5241550000000  0.5036740000000 1.0
C      1  0.5526560000000  0.4499060000000  0.4862150000000 1.0
C      1  0.4921030000000  0.4822470000000  0.4483040000000 1.0
C      1  0.5383190000000  0.4626140000000  0.4653000000000 1.0
C      1  0.4658930000000  0.4978090000000  0.5717740000000 1.0
C      1  0.4798420000000  0.5377630000000  0.4544990000000 1.0
C      1  0.4776970000000  0.5666130000000  0.4893660000000 1.0
C      1  0.5588920000000  0.5213780000000  0.5351210000000 1.0
C      1  0.5628530000000  0.4684440000000  0.5315650000000 1.0
C      1  0.5404100000000  0.4747130000000  0.4393060000000 1.0
C      1  0.4775840000000  0.4560350000000  0.4579770000000 1.0
C      1  0.5483270000000  0.4511850000000  0.5144820000000 1.0
C      1  0.4379270000000  0.5448910000000  0.5242110000000 1.0
C      1  0.5439400000000  0.5736300000000  0.4847660000000 1.0
END
