TITL C-3371504-3437-31 -3.47492673506856 125000 -396.569563401239 0 0 71 (C1) n - 1
REM
REM in /nfs/bkarasulu/CARBON/AIRSS/Generating-Clusters/AIREBO/with-SteepDescent/Only-C1/SD-CG-opt/Try1-1.4A-POS3A/HFTN-CG
REM
REM
REM
REM
REM
REM ./C.cell (11c1c37f851c82e70ff6c80c92926a4b)
REM
REM compiler GCC version 9.2.1 20190827 (Red Hat 9.2.1-1)
REM options -cpp -mtune=generic -march=x86-64 -g -O0 -fpre-include=/usr/include/finclude/math-vector-fortran.h
REM seed -172592242 -975038145 -625658356 -51034622 1397383432 -5087313 55462628 -46978920 2003973752 -448863850 1789725957 -1097652770 -1911175502 -1584037250 -1294453195 -800220744 1403906505 1301479107 -1983950295 -1199539490 -332560107 -1127620170 -1305629320 1314531375 -797661535 1389149985 1510443077 -191639808 1503548565 1942187997 -1331355990 2125633153 -1618360535
REM
CELL 1.54180   50.00000   50.00000   50.00000   90.00000   90.00000   90.00000
LATT -1
SFAC C  
C      1  0.4569150000000  0.5263710000000  0.4512240000000 1.0
C      1  0.5202830000000  0.4695370000000  0.4805580000000 1.0
C      1  0.4947850000000  0.4570900000000  0.4367130000000 1.0
C      1  0.5252040000000  0.5513280000000  0.5382970000000 1.0
C      1  0.4689060000000  0.5741900000000  0.4817510000000 1.0
C      1  0.4555350000000  0.5209610000000  0.5366360000000 1.0
C      1  0.5188010000000  0.4262910000000  0.5194410000000 1.0
C      1  0.5704200000000  0.4784690000000  0.5496010000000 1.0
C      1  0.5612510000000  0.4933400000000  0.4335080000000 1.0
C      1  0.5246240000000  0.5198330000000  0.4755120000000 1.0
C      1  0.4504490000000  0.5633260000000  0.5001460000000 1.0
C      1  0.4940790000000  0.5684990000000  0.4373330000000 1.0
C      1  0.5853390000000  0.4710940000000  0.5713160000000 1.0
C      1  0.5091000000000  0.5067170000000  0.5176030000000 1.0
C      1  0.4701000000000  0.4710970000000  0.4454330000000 1.0
C      1  0.4471650000000  0.4503260000000  0.4466360000000 1.0
C      1  0.4810850000000  0.4341180000000  0.5382900000000 1.0
C      1  0.6139060000000  0.5059170000000  0.4821400000000 1.0
C      1  0.4280880000000  0.4745540000000  0.4857240000000 1.0
C      1  0.4823210000000  0.5251600000000  0.5076320000000 1.0
C      1  0.4697910000000  0.4957360000000  0.5187920000000 1.0
C      1  0.5405500000000  0.4761140000000  0.5501610000000 1.0
C      1  0.5801880000000  0.4896430000000  0.4525610000000 1.0
C      1  0.4624130000000  0.5474390000000  0.5194270000000 1.0
C      1  0.4903410000000  0.5904530000000  0.4869520000000 1.0
C      1  0.4291840000000  0.5507070000000  0.4883690000000 1.0
C      1  0.4272030000000  0.4788420000000  0.5363800000000 1.0
C      1  0.5899880000000  0.4940450000000  0.4782370000000 1.0
C      1  0.5164910000000  0.4223380000000  0.4697230000000 1.0
C      1  0.5171660000000  0.4345750000000  0.4445470000000 1.0
C      1  0.5168310000000  0.6032030000000  0.4959110000000 1.0
C      1  0.5269910000000  0.4473770000000  0.5560890000000 1.0
C      1  0.4605100000000  0.5006630000000  0.4354340000000 1.0
C      1  0.4311690000000  0.5029640000000  0.5233450000000 1.0
C      1  0.4743210000000  0.5547210000000  0.4567760000000 1.0
C      1  0.5046000000000  0.5865250000000  0.5648030000000 1.0
C      1  0.4479530000000  0.4992440000000  0.4929500000000 1.0
C      1  0.4350720000000  0.4479800000000  0.5023030000000 1.0
C      1  0.4438460000000  0.4573310000000  0.5274480000000 1.0
C      1  0.5279400000000  0.4784990000000  0.5199450000000 1.0
C      1  0.5033760000000  0.4335850000000  0.5556170000000 1.0
C      1  0.5256710000000  0.5363710000000  0.5159660000000 1.0
C      1  0.5807320000000  0.4899090000000  0.5263110000000 1.0
C      1  0.5142510000000  0.5189880000000  0.5840080000000 1.0
C      1  0.4372530000000  0.5227410000000  0.4738220000000 1.0
C      1  0.4895070000000  0.5178680000000  0.4567320000000 1.0
C      1  0.5159500000000  0.5779530000000  0.4464050000000 1.0
C      1  0.5057690000000  0.4576400000000  0.5178930000000 1.0
C      1  0.5492550000000  0.4699180000000  0.4963160000000 1.0
C      1  0.5741170000000  0.4863350000000  0.4993970000000 1.0
C      1  0.5088570000000  0.5605530000000  0.5592670000000 1.0
C      1  0.4900760000000  0.5385590000000  0.4817500000000 1.0
C      1  0.5563660000000  0.4390770000000  0.4935850000000 1.0
C      1  0.5338160000000  0.4216830000000  0.4948320000000 1.0
C      1  0.4055360000000  0.5356620000000  0.4747690000000 1.0
C      1  0.5193900000000  0.5491230000000  0.4875640000000 1.0
C      1  0.5233950000000  0.4669750000000  0.4487300000000 1.0
C      1  0.5195250000000  0.5134180000000  0.4460010000000 1.0
C      1  0.5266230000000  0.4983190000000  0.5655730000000 1.0
C      1  0.4748710000000  0.4657460000000  0.5274670000000 1.0
C      1  0.5005940000000  0.4428800000000  0.4882330000000 1.0
C      1  0.4794580000000  0.5042740000000  0.5638190000000 1.0
C      1  0.4800690000000  0.4281950000000  0.5097260000000 1.0
C      1  0.4330280000000  0.4480950000000  0.4701010000000 1.0
C      1  0.4669840000000  0.5316150000000  0.5662130000000 1.0
C      1  0.5028880000000  0.5030990000000  0.5491810000000 1.0
C      1  0.5225690000000  0.5766700000000  0.4764600000000 1.0
C      1  0.5052530000000  0.4954190000000  0.4857570000000 1.0
C      1  0.4960760000000  0.5392480000000  0.5738460000000 1.0
C      1  0.4742100000000  0.4917160000000  0.4721730000000 1.0
C      1  0.5336300000000  0.4917470000000  0.4368380000000 1.0
END
