TITL C-3371508-3820-23 -0.000149109468584554 125000 -96.1817176763642 0 0 19 (C1) n - 1
REM
REM in /nfs/bkarasulu/CARBON/AIRSS/Generating-Clusters/AIREBO/with-SteepDescent/Only-C1/SD-CG-opt/Try1-1.4A-POS3A/HFTN-CG
REM
REM
REM
REM
REM
REM ./C.cell (11c1c37f851c82e70ff6c80c92926a4b)
REM
REM compiler GCC version 9.2.1 20190827 (Red Hat 9.2.1-1)
REM options -cpp -mtune=generic -march=x86-64 -g -O0 -fpre-include=/usr/include/finclude/math-vector-fortran.h
REM seed -69510244 437058015 568460634 794709297 -1509088506 -1480816044 1336034841 895099512 1212108185 -1878675809 -1979443278 -904782742 -1225926759 2063412848 -338880665 -1716672637 -813613604 -483369109 -1027982529 -157331828 1971813461 -1179790864 -1741444751 -1817806343 1208821140 768859664 871798338 -1831797724 1639722169 986378414 -1186653960 1117929628 534933120
REM
CELL 1.54180   50.00000   50.00000   50.00000   90.00000   90.00000   90.00000
LATT -1
SFAC C  
C      1  0.5067150000000  0.5691790000000  0.5002670000000 1.0
C      1  0.5322570000000  0.5367800000000  0.4759990000000 1.0
C      1  0.5244960000000  0.5270560000000  0.5253510000000 1.0
C      1  0.4851480000000  0.5347130000000  0.4731380000000 1.0
C      1  0.5353870000000  0.5180180000000  0.4958580000000 1.0
C      1  0.4426170000000  0.4667530000000  0.4978370000000 1.0
C      1  0.4667460000000  0.4690100000000  0.5107280000000 1.0
C      1  0.5264300000000  0.4466490000000  0.4951550000000 1.0
C      1  0.5159770000000  0.5592290000000  0.5244580000000 1.0
C      1  0.5076520000000  0.5517670000000  0.4775400000000 1.0
C      1  0.4868090000000  0.5101510000000  0.4833080000000 1.0
C      1  0.5062040000000  0.4593680000000  0.4809830000000 1.0
C      1  0.4738260000000  0.4539860000000  0.5617520000000 1.0
C      1  0.4706790000000  0.4600910000000  0.5364580000000 1.0
C      1  0.5069110000000  0.5046750000000  0.5091450000000 1.0
C      1  0.4900550000000  0.4793800000000  0.4956080000000 1.0
C      1  0.5085970000000  0.4637160000000  0.4471130000000 1.0
C      1  0.4898600000000  0.4421560000000  0.4566350000000 1.0
C      1  0.5236330000000  0.5473230000000  0.5526690000000 1.0
END
