TITL C-3371499-8025-11 -0.00245424418820732 125000 -328.060738240391 0 0 59 (C1) n - 1
REM
REM in /nfs/bkarasulu/CARBON/AIRSS/Generating-Clusters/AIREBO/with-SteepDescent/Only-C1/SD-CG-opt/Try1-1.4A-POS3A/HFTN-CG
REM
REM
REM
REM
REM
REM ./C.cell (11c1c37f851c82e70ff6c80c92926a4b)
REM
REM compiler GCC version 9.2.1 20190827 (Red Hat 9.2.1-1)
REM options -cpp -mtune=generic -march=x86-64 -g -O0 -fpre-include=/usr/include/finclude/math-vector-fortran.h
REM seed 40479414 687648961 1759690395 -253823295 -845708752 1160503127 -1828650558 1116517484 589941017 781129461 1420412406 628933362 1668191740 -1755792011 -1466717616 2033845142 1118431819 1087923468 1666578141 1415627273 -801806702 -856653629 -1054005824 -1705504674 -977115675 -633844722 -1732247630 -1919725822 -1546086020 241203817 365564767 5063645 -1025517079
REM
CELL 1.54180   50.00000   50.00000   50.00000   90.00000   90.00000   90.00000
LATT -1
SFAC C  
C      1  0.5082770000000  0.5349310000000  0.5554770000000 1.0
C      1  0.4626180000000  0.5788840000000  0.4537720000000 1.0
C      1  0.4662940000000  0.4830580000000  0.4893680000000 1.0
C      1  0.4852600000000  0.4896480000000  0.5169330000000 1.0
C      1  0.5503550000000  0.5335500000000  0.5231240000000 1.0
C      1  0.4769720000000  0.4740130000000  0.4596900000000 1.0
C      1  0.5310160000000  0.4312900000000  0.5072760000000 1.0
C      1  0.4790290000000  0.4318300000000  0.4936160000000 1.0
C      1  0.5059490000000  0.4526900000000  0.4223900000000 1.0
C      1  0.4579750000000  0.4521990000000  0.5010450000000 1.0
C      1  0.5208080000000  0.5413590000000  0.5308020000000 1.0
C      1  0.5135530000000  0.5074410000000  0.5614930000000 1.0
C      1  0.5459410000000  0.4755740000000  0.5387150000000 1.0
C      1  0.4775140000000  0.5577400000000  0.4648360000000 1.0
C      1  0.4743180000000  0.5275240000000  0.5230030000000 1.0
C      1  0.4636900000000  0.5582330000000  0.5381990000000 1.0
C      1  0.4657260000000  0.5184770000000  0.5644840000000 1.0
C      1  0.4998970000000  0.5381170000000  0.5090790000000 1.0
C      1  0.4608000000000  0.5002080000000  0.5380780000000 1.0
C      1  0.5427160000000  0.4533280000000  0.4933090000000 1.0
C      1  0.5117730000000  0.4915710000000  0.5019340000000 1.0
C      1  0.4793840000000  0.4636010000000  0.4274070000000 1.0
C      1  0.5592560000000  0.5069970000000  0.5379870000000 1.0
C      1  0.4461430000000  0.5399970000000  0.5157660000000 1.0
C      1  0.4949070000000  0.4292240000000  0.4669140000000 1.0
C      1  0.5288000000000  0.4521910000000  0.5472170000000 1.0
C      1  0.5741410000000  0.5158480000000  0.4513480000000 1.0
C      1  0.4583180000000  0.4531010000000  0.5318720000000 1.0
C      1  0.4641950000000  0.5298210000000  0.4612280000000 1.0
C      1  0.4202440000000  0.4754780000000  0.5538480000000 1.0
C      1  0.5232790000000  0.5516580000000  0.4354920000000 1.0
C      1  0.4648480000000  0.5192670000000  0.4352800000000 1.0
C      1  0.4806600000000  0.5416780000000  0.5597250000000 1.0
C      1  0.4333800000000  0.5254750000000  0.4975570000000 1.0
C      1  0.5404260000000  0.4992600000000  0.5618610000000 1.0
C      1  0.4874390000000  0.5627040000000  0.4950310000000 1.0
C      1  0.5012720000000  0.4616460000000  0.5566120000000 1.0
C      1  0.5057910000000  0.4562440000000  0.4564530000000 1.0
C      1  0.5382330000000  0.4532330000000  0.4661830000000 1.0
C      1  0.4324580000000  0.4447400000000  0.4908670000000 1.0
C      1  0.5450020000000  0.5295720000000  0.4436580000000 1.0
C      1  0.5414960000000  0.4809660000000  0.5077050000000 1.0
C      1  0.5137090000000  0.4860550000000  0.4697870000000 1.0
C      1  0.5165100000000  0.5205720000000  0.4891650000000 1.0
C      1  0.5784480000000  0.5075270000000  0.4750030000000 1.0
C      1  0.4451950000000  0.4752030000000  0.5427970000000 1.0
C      1  0.5506720000000  0.5360920000000  0.4765480000000 1.0
C      1  0.4813510000000  0.4422590000000  0.5444380000000 1.0
C      1  0.5553930000000  0.5105330000000  0.4985770000000 1.0
C      1  0.5086670000000  0.5588110000000  0.4580400000000 1.0
C      1  0.4739050000000  0.5775300000000  0.5146780000000 1.0
C      1  0.5083880000000  0.4162690000000  0.4924340000000 1.0
C      1  0.4516120000000  0.5123110000000  0.4800380000000 1.0
C      1  0.5068450000000  0.4366730000000  0.5263430000000 1.0
C      1  0.5238850000000  0.5516650000000  0.4804320000000 1.0
C      1  0.5685110000000  0.5548990000000  0.5237020000000 1.0
C      1  0.4968490000000  0.4883590000000  0.5489110000000 1.0
C      1  0.5283400000000  0.5077520000000  0.4595560000000 1.0
C      1  0.4715630000000  0.4931220000000  0.4329210000000 1.0
END
