TITL C-3371503-4580-76 0.000539749963519806 125000 -923.908958033907 0 0 168 (C1) n - 1
REM
REM in /nfs/bkarasulu/CARBON/AIRSS/Generating-Clusters/AIREBO/with-SteepDescent/Only-C1/SD-CG-opt/Try1-1.4A-POS3A/HFTN-CG
REM
REM
REM
REM
REM
REM ./C.cell (11c1c37f851c82e70ff6c80c92926a4b)
REM
REM compiler GCC version 9.2.1 20190827 (Red Hat 9.2.1-1)
REM options -cpp -mtune=generic -march=x86-64 -g -O0 -fpre-include=/usr/include/finclude/math-vector-fortran.h
REM seed 644911163 -1480042125 -197270803 -49946672 1080378279 14582392 -266415421 2050562297 1057922639 -2141679758 -1212787134 1400548724 -1276988503 528738968 1246108223 -275450359 1559129215 215833477 1995258076 -57996658 1897072728 -1804143790 -759059043 1882607986 1202323766 -1138812588 1078351759 -2039963712 -570982189 1976771126 1876477537 -1313397230 1326851005
REM
CELL 1.54180   50.00000   50.00000   50.00000   90.00000   90.00000   90.00000
LATT -1
SFAC C  
C      1  0.5351290000000  0.4504190000000  0.3957180000000 1.0
C      1  0.4699410000000  0.4593060000000  0.5678860000000 1.0
C      1  0.5246600000000  0.4018860000000  0.5212800000000 1.0
C      1  0.5803630000000  0.4693370000000  0.5483170000000 1.0
C      1  0.4857210000000  0.5058320000000  0.5488510000000 1.0
C      1  0.5298210000000  0.4622850000000  0.5015620000000 1.0
C      1  0.5680490000000  0.5520880000000  0.5715810000000 1.0
C      1  0.4972760000000  0.4909010000000  0.4647530000000 1.0
C      1  0.5568500000000  0.4998520000000  0.5380870000000 1.0
C      1  0.4281490000000  0.5217340000000  0.5070990000000 1.0
C      1  0.4296990000000  0.4028610000000  0.5358230000000 1.0
C      1  0.4919410000000  0.4138100000000  0.5400030000000 1.0
C      1  0.4688620000000  0.4894210000000  0.3961880000000 1.0
C      1  0.4844050000000  0.5643660000000  0.4180260000000 1.0
C      1  0.3828000000000  0.5055910000000  0.4813840000000 1.0
C      1  0.4745070000000  0.4631160000000  0.4473330000000 1.0
C      1  0.5208100000000  0.4907030000000  0.4162750000000 1.0
C      1  0.5244400000000  0.5158970000000  0.5944840000000 1.0
C      1  0.5118930000000  0.5213610000000  0.4056560000000 1.0
C      1  0.5408050000000  0.5276420000000  0.4188840000000 1.0
C      1  0.4634510000000  0.4018450000000  0.4991460000000 1.0
C      1  0.5711330000000  0.4697940000000  0.4712690000000 1.0
C      1  0.3985260000000  0.5301660000000  0.4652310000000 1.0
C      1  0.4413010000000  0.5023200000000  0.5911170000000 1.0
C      1  0.5752350000000  0.4376640000000  0.4815280000000 1.0
C      1  0.5212560000000  0.5561570000000  0.4622710000000 1.0
C      1  0.5232280000000  0.5870900000000  0.4674100000000 1.0
C      1  0.4566550000000  0.4874030000000  0.4412990000000 1.0
C      1  0.5375110000000  0.4321070000000  0.5152240000000 1.0
C      1  0.6016370000000  0.5219610000000  0.5481270000000 1.0
C      1  0.4913890000000  0.6087760000000  0.4777310000000 1.0
C      1  0.4732440000000  0.5071470000000  0.5804730000000 1.0
C      1  0.4412050000000  0.4469940000000  0.5086160000000 1.0
C      1  0.5110720000000  0.3995940000000  0.4673010000000 1.0
C      1  0.5294080000000  0.4865890000000  0.6038820000000 1.0
C      1  0.5083550000000  0.5252700000000  0.5651870000000 1.0
C      1  0.4369860000000  0.4482930000000  0.5481830000000 1.0
C      1  0.5395850000000  0.4368240000000  0.4541800000000 1.0
C      1  0.4016750000000  0.4596400000000  0.5160500000000 1.0
C      1  0.4577480000000  0.5347270000000  0.4786190000000 1.0
C      1  0.5543190000000  0.5961860000000  0.4682610000000 1.0
C      1  0.5423910000000  0.5035550000000  0.4552330000000 1.0
C      1  0.4403250000000  0.4926820000000  0.5525560000000 1.0
C      1  0.4289320000000  0.4345200000000  0.4825330000000 1.0
C      1  0.4755780000000  0.4605490000000  0.4784790000000 1.0
C      1  0.4118720000000  0.4658730000000  0.5447040000000 1.0
C      1  0.4609720000000  0.5640980000000  0.5391550000000 1.0
C      1  0.5663860000000  0.4988930000000  0.5707240000000 1.0
C      1  0.4803250000000  0.5838030000000  0.4375530000000 1.0
C      1  0.5538810000000  0.4226880000000  0.4887490000000 1.0
C      1  0.4841920000000  0.4952740000000  0.5021670000000 1.0
C      1  0.5049520000000  0.5529440000000  0.6014830000000 1.0
C      1  0.4735080000000  0.4758090000000  0.5383740000000 1.0
C      1  0.4576490000000  0.5650380000000  0.4856590000000 1.0
C      1  0.4857870000000  0.5443430000000  0.5054080000000 1.0
C      1  0.4287430000000  0.5164980000000  0.4236480000000 1.0
C      1  0.4916450000000  0.4525290000000  0.5265960000000 1.0
C      1  0.4998380000000  0.5998500000000  0.4501670000000 1.0
C      1  0.5281240000000  0.5379680000000  0.5246950000000 1.0
C      1  0.5368400000000  0.5435310000000  0.5685330000000 1.0
C      1  0.5145330000000  0.4376480000000  0.5722450000000 1.0
C      1  0.4744500000000  0.4187120000000  0.4320030000000 1.0
C      1  0.5854090000000  0.5450660000000  0.5441890000000 1.0
C      1  0.4643360000000  0.4304220000000  0.5508350000000 1.0
C      1  0.5130190000000  0.6003170000000  0.4992850000000 1.0
C      1  0.4583190000000  0.5561310000000  0.5780720000000 1.0
C      1  0.5245980000000  0.5671840000000  0.5388270000000 1.0
C      1  0.5530800000000  0.5189710000000  0.5102230000000 1.0
C      1  0.4931480000000  0.4794970000000  0.5823720000000 1.0
C      1  0.5443810000000  0.5989730000000  0.4993230000000 1.0
C      1  0.4558870000000  0.5184680000000  0.5423130000000 1.0
C      1  0.5225920000000  0.4099510000000  0.5542480000000 1.0
C      1  0.5938460000000  0.5289360000000  0.4901090000000 1.0
C      1  0.4208400000000  0.5181060000000  0.5758360000000 1.0
C      1  0.5605640000000  0.4326830000000  0.3899560000000 1.0
C      1  0.4599890000000  0.4018110000000  0.5329860000000 1.0
C      1  0.4979130000000  0.5188690000000  0.6127790000000 1.0
C      1  0.5954380000000  0.5014510000000  0.4708960000000 1.0
C      1  0.4657880000000  0.5863700000000  0.5632390000000 1.0
C      1  0.5514510000000  0.4273320000000  0.5615640000000 1.0
C      1  0.4432960000000  0.4111390000000  0.4750670000000 1.0
C      1  0.5960060000000  0.4979210000000  0.5047070000000 1.0
C      1  0.5816170000000  0.4792880000000  0.4252250000000 1.0
C      1  0.5178350000000  0.4560370000000  0.4611720000000 1.0
C      1  0.4247560000000  0.5696620000000  0.4920790000000 1.0
C      1  0.5117710000000  0.5647860000000  0.5703590000000 1.0
C      1  0.4636640000000  0.6038410000000  0.4781690000000 1.0
C      1  0.4620530000000  0.5204540000000  0.5093220000000 1.0
C      1  0.5233240000000  0.5099570000000  0.4967440000000 1.0
C      1  0.4082510000000  0.4985260000000  0.5508090000000 1.0
C      1  0.4772770000000  0.5374770000000  0.5953160000000 1.0
C      1  0.5187790000000  0.4466270000000  0.5396230000000 1.0
C      1  0.4274220000000  0.5587500000000  0.5412750000000 1.0
C      1  0.4557280000000  0.5798770000000  0.4561230000000 1.0
C      1  0.5220970000000  0.4763460000000  0.5661520000000 1.0
C      1  0.5111700000000  0.5391380000000  0.4885050000000 1.0
C      1  0.4288870000000  0.5208650000000  0.4763940000000 1.0
C      1  0.4798950000000  0.5176500000000  0.4081230000000 1.0
C      1  0.5302740000000  0.5634870000000  0.4322980000000 1.0
C      1  0.5907410000000  0.4986530000000  0.5355460000000 1.0
C      1  0.4849730000000  0.5492390000000  0.5581100000000 1.0
C      1  0.4479880000000  0.4474450000000  0.4389120000000 1.0
C      1  0.5105470000000  0.5543140000000  0.4143150000000 1.0
C      1  0.4175370000000  0.4312250000000  0.5261240000000 1.0
C      1  0.5818660000000  0.5538100000000  0.4430110000000 1.0
C      1  0.4987670000000  0.4185660000000  0.5068650000000 1.0
C      1  0.4468730000000  0.4764880000000  0.5170310000000 1.0
C      1  0.4955260000000  0.4174090000000  0.4493810000000 1.0
C      1  0.5275610000000  0.5018140000000  0.5509830000000 1.0
C      1  0.4487170000000  0.4145140000000  0.4473960000000 1.0
C      1  0.5633530000000  0.4543440000000  0.4155120000000 1.0
C      1  0.5495620000000  0.4900390000000  0.4286820000000 1.0
C      1  0.4454290000000  0.4750460000000  0.5768680000000 1.0
C      1  0.5767620000000  0.4704800000000  0.5795070000000 1.0
C      1  0.4926710000000  0.3901540000000  0.4887280000000 1.0
C      1  0.4962670000000  0.5917700000000  0.5566670000000 1.0
C      1  0.5617760000000  0.4474480000000  0.5869650000000 1.0
C      1  0.4136240000000  0.5584690000000  0.4648110000000 1.0
C      1  0.4325960000000  0.5629830000000  0.4437970000000 1.0
C      1  0.4552000000000  0.4877850000000  0.4860570000000 1.0
C      1  0.5664380000000  0.5779110000000  0.5144960000000 1.0
C      1  0.5008010000000  0.5180730000000  0.5209200000000 1.0
C      1  0.5826780000000  0.5511250000000  0.4699430000000 1.0
C      1  0.4695380000000  0.5085560000000  0.4632540000000 1.0
C      1  0.5589180000000  0.5539920000000  0.4271870000000 1.0
C      1  0.4755320000000  0.5720090000000  0.5133180000000 1.0
C      1  0.5262270000000  0.4847000000000  0.4777980000000 1.0
C      1  0.4905110000000  0.4899270000000  0.6118810000000 1.0
C      1  0.4162920000000  0.5065210000000  0.4495070000000 1.0
C      1  0.5372870000000  0.4105650000000  0.4682030000000 1.0
C      1  0.5846290000000  0.4487390000000  0.5258680000000 1.0
C      1  0.4684280000000  0.4334470000000  0.5106660000000 1.0
C      1  0.4255570000000  0.4814530000000  0.4705640000000 1.0
C      1  0.5033310000000  0.4737610000000  0.4375590000000 1.0
C      1  0.6010810000000  0.4860980000000  0.4483140000000 1.0
C      1  0.5127310000000  0.4653070000000  0.3997880000000 1.0
C      1  0.5478800000000  0.4596370000000  0.5515290000000 1.0
C      1  0.5726200000000  0.5055290000000  0.4090320000000 1.0
C      1  0.4392950000000  0.5384060000000  0.5606840000000 1.0
C      1  0.5563580000000  0.5229920000000  0.5851610000000 1.0
C      1  0.4314950000000  0.5847470000000  0.5218770000000 1.0
C      1  0.4983950000000  0.4682290000000  0.5012460000000 1.0
C      1  0.4474520000000  0.4960230000000  0.4166110000000 1.0
C      1  0.5793560000000  0.4711140000000  0.5027820000000 1.0
C      1  0.4196120000000  0.4952220000000  0.5189150000000 1.0
C      1  0.5573130000000  0.5657770000000  0.5423680000000 1.0
C      1  0.5749050000000  0.5449140000000  0.5132330000000 1.0
C      1  0.4986260000000  0.4361220000000  0.4776180000000 1.0
C      1  0.4262610000000  0.4527770000000  0.4606340000000 1.0
C      1  0.5649460000000  0.5295950000000  0.3955170000000 1.0
C      1  0.4023640000000  0.4834660000000  0.4938890000000 1.0
C      1  0.4833720000000  0.4639990000000  0.3995550000000 1.0
C      1  0.5630260000000  0.5680720000000  0.4830080000000 1.0
C      1  0.5202180000000  0.5273490000000  0.4460270000000 1.0
C      1  0.5329180000000  0.4560010000000  0.5907750000000 1.0
C      1  0.4697600000000  0.4430960000000  0.4130830000000 1.0
C      1  0.4173190000000  0.5483000000000  0.5145670000000 1.0
C      1  0.5017310000000  0.5870920000000  0.5234360000000 1.0
C      1  0.4447740000000  0.6013440000000  0.5410970000000 1.0
C      1  0.4903650000000  0.5205650000000  0.4392030000000 1.0
C      1  0.4648670000000  0.5449780000000  0.4122330000000 1.0
C      1  0.5394280000000  0.5541830000000  0.4974060000000 1.0
C      1  0.5632890000000  0.5012100000000  0.4819690000000 1.0
C      1  0.5522640000000  0.4714580000000  0.5199500000000 1.0
C      1  0.4882770000000  0.4361580000000  0.5834270000000 1.0
C      1  0.5646740000000  0.4289120000000  0.5322740000000 1.0
C      1  0.5622750000000  0.4513750000000  0.4463540000000 1.0
C      1  0.4395920000000  0.5430520000000  0.4245340000000 1.0
END
