TITL C-3371503-4580-8 -0.000489475728016957 125000 -311.415430517233 0 0 59 (C1) n - 1
REM
REM in /nfs/bkarasulu/CARBON/AIRSS/Generating-Clusters/AIREBO/with-SteepDescent/Only-C1/SD-CG-opt/Try1-1.4A-POS3A/HFTN-CG
REM
REM
REM
REM
REM
REM ./C.cell (11c1c37f851c82e70ff6c80c92926a4b)
REM
REM compiler GCC version 9.2.1 20190827 (Red Hat 9.2.1-1)
REM options -cpp -mtune=generic -march=x86-64 -g -O0 -fpre-include=/usr/include/finclude/math-vector-fortran.h
REM seed 1456744121 1857974787 548414848 -1172881668 -2002426223 1101305527 -1480216962 -94342859 806286441 1103936400 -1781765974 -36812877 -9520587 -737437267 1112246334 1348844471 -261547612 -1829194607 1841903323 -1075459674 660103935 1490401114 -1597638731 -590631863 -134535699 -698443022 -1471746511 681022480 1469297972 1797552840 -1868934013 982347938 1905067718
REM
CELL 1.54180   50.00000   50.00000   50.00000   90.00000   90.00000   90.00000
LATT -1
SFAC C  
C      1  0.4563670000000  0.5283100000000  0.5064160000000 1.0
C      1  0.5394960000000  0.5232260000000  0.5387030000000 1.0
C      1  0.5158200000000  0.5298840000000  0.4208310000000 1.0
C      1  0.4616590000000  0.4221040000000  0.4900010000000 1.0
C      1  0.5307300000000  0.4462130000000  0.5172060000000 1.0
C      1  0.5761650000000  0.4971460000000  0.5324170000000 1.0
C      1  0.4570770000000  0.5579300000000  0.4674450000000 1.0
C      1  0.4793730000000  0.4706880000000  0.5010980000000 1.0
C      1  0.5991260000000  0.5435710000000  0.4971920000000 1.0
C      1  0.5655060000000  0.5244400000000  0.5283030000000 1.0
C      1  0.5394430000000  0.4732500000000  0.4701870000000 1.0
C      1  0.4508770000000  0.5117860000000  0.5559750000000 1.0
C      1  0.4840460000000  0.4500040000000  0.4571090000000 1.0
C      1  0.5484180000000  0.4913010000000  0.5136280000000 1.0
C      1  0.4850700000000  0.5103680000000  0.4606950000000 1.0
C      1  0.4589530000000  0.4613920000000  0.4507520000000 1.0
C      1  0.5202460000000  0.4773380000000  0.5266490000000 1.0
C      1  0.5331370000000  0.5281810000000  0.4653790000000 1.0
C      1  0.4816130000000  0.5008030000000  0.5543510000000 1.0
C      1  0.4879920000000  0.5601020000000  0.4644430000000 1.0
C      1  0.4626170000000  0.4901990000000  0.4440080000000 1.0
C      1  0.4224500000000  0.5282300000000  0.5039900000000 1.0
C      1  0.5722810000000  0.5374340000000  0.5002520000000 1.0
C      1  0.5535810000000  0.5510550000000  0.4767820000000 1.0
C      1  0.4701250000000  0.4462950000000  0.5473450000000 1.0
C      1  0.5049010000000  0.4955440000000  0.5032030000000 1.0
C      1  0.4891310000000  0.5309780000000  0.5294970000000 1.0
C      1  0.5024890000000  0.5757390000000  0.5177040000000 1.0
C      1  0.5617340000000  0.4460300000000  0.5124210000000 1.0
C      1  0.4341680000000  0.5584210000000  0.4925700000000 1.0
C      1  0.5360450000000  0.5000920000000  0.5554300000000 1.0
C      1  0.4332000000000  0.5020130000000  0.4873660000000 1.0
C      1  0.5218540000000  0.5557470000000  0.5025340000000 1.0
C      1  0.4827380000000  0.4404870000000  0.4858280000000 1.0
C      1  0.5096950000000  0.4904610000000  0.4730830000000 1.0
C      1  0.5060620000000  0.4652960000000  0.4505090000000 1.0
C      1  0.4479340000000  0.4575250000000  0.5418230000000 1.0
C      1  0.5082030000000  0.4305580000000  0.4981950000000 1.0
C      1  0.4815820000000  0.5597760000000  0.5296270000000 1.0
C      1  0.5582300000000  0.4801860000000  0.5507010000000 1.0
C      1  0.5178940000000  0.5249430000000  0.5143390000000 1.0
C      1  0.5313110000000  0.5113410000000  0.4382650000000 1.0
C      1  0.5319610000000  0.4834450000000  0.4409720000000 1.0
C      1  0.5447440000000  0.5171460000000  0.4949840000000 1.0
C      1  0.5018720000000  0.5733830000000  0.4847880000000 1.0
C      1  0.4503460000000  0.4763960000000  0.5178690000000 1.0
C      1  0.5079140000000  0.4254100000000  0.5314450000000 1.0
C      1  0.4708060000000  0.5031370000000  0.5226100000000 1.0
C      1  0.4649910000000  0.5301660000000  0.4775060000000 1.0
C      1  0.4367750000000  0.4559670000000  0.4682860000000 1.0
C      1  0.5610370000000  0.4528560000000  0.5424360000000 1.0
C      1  0.4591680000000  0.5595560000000  0.5128030000000 1.0
C      1  0.4379790000000  0.5225420000000  0.5344400000000 1.0
C      1  0.4937090000000  0.4561410000000  0.5282920000000 1.0
C      1  0.4314490000000  0.4713240000000  0.4914990000000 1.0
C      1  0.5536270000000  0.4684280000000  0.4931780000000 1.0
C      1  0.5028480000000  0.5357180000000  0.4518930000000 1.0
C      1  0.4638090000000  0.4902400000000  0.4779980000000 1.0
C      1  0.5076240000000  0.4917580000000  0.5547470000000 1.0
END
