TITL C-3371506-7941-18 0.00803040980171655 125000 -1039.34657878617 0 0 194 (C1) n - 1
REM
REM in /nfs/bkarasulu/CARBON/AIRSS/Generating-Clusters/AIREBO/with-SteepDescent/Only-C1/SD-CG-opt/Try1-1.4A-POS3A/HFTN-CG
REM
REM
REM
REM
REM
REM ./C.cell (11c1c37f851c82e70ff6c80c92926a4b)
REM
REM compiler GCC version 9.2.1 20190827 (Red Hat 9.2.1-1)
REM options -cpp -mtune=generic -march=x86-64 -g -O0 -fpre-include=/usr/include/finclude/math-vector-fortran.h
REM seed 2085627997 -703869111 395251176 -182038247 956736312 1594366436 549557999 61107629 -245844363 -2079081723 -428111384 -180251632 123986125 -1928347531 1967310829 351020509 -1956927125 1744020957 -753985728 918599721 1977636233 -1023312886 973282929 1619624757 389794351 -1262539454 492825305 468510515 -1851224995 2039305886 -252381872 1449781168 1370621720
REM
CELL 1.54180   50.00000   50.00000   50.00000   90.00000   90.00000   90.00000
LATT -1
SFAC C  
C      1  0.4440350000000  0.4985370000000  0.4276590000000 1.0
C      1  0.5099680000000  0.5062050000000  0.5320240000000 1.0
C      1  0.5124020000000  0.5076690000000  0.4311470000000 1.0
C      1  0.4915170000000  0.5333630000000  0.5231870000000 1.0
C      1  0.4750000000000  0.3640140000000  0.4793030000000 1.0
C      1  0.5055440000000  0.4617640000000  0.5901070000000 1.0
C      1  0.4031630000000  0.5135420000000  0.5371400000000 1.0
C      1  0.5263400000000  0.5249050000000  0.5673030000000 1.0
C      1  0.5473310000000  0.4029720000000  0.4932060000000 1.0
C      1  0.4886950000000  0.4106390000000  0.4904110000000 1.0
C      1  0.5110220000000  0.6079210000000  0.4652920000000 1.0
C      1  0.4266430000000  0.4495730000000  0.5354520000000 1.0
C      1  0.4468390000000  0.4433930000000  0.5088030000000 1.0
C      1  0.5613520000000  0.4519340000000  0.4822840000000 1.0
C      1  0.4863890000000  0.5213720000000  0.4487930000000 1.0
C      1  0.4335840000000  0.5758380000000  0.4776260000000 1.0
C      1  0.4495110000000  0.5413150000000  0.5566980000000 1.0
C      1  0.5756760000000  0.5426840000000  0.4307910000000 1.0
C      1  0.5177450000000  0.5537780000000  0.4671550000000 1.0
C      1  0.5449350000000  0.5302320000000  0.5239730000000 1.0
C      1  0.5866440000000  0.5745030000000  0.5144610000000 1.0
C      1  0.5889730000000  0.5336610000000  0.4586850000000 1.0
C      1  0.5721360000000  0.5240320000000  0.4044830000000 1.0
C      1  0.6146390000000  0.5428470000000  0.5566350000000 1.0
C      1  0.4674180000000  0.4704380000000  0.4125300000000 1.0
C      1  0.5506710000000  0.4423100000000  0.4059920000000 1.0
C      1  0.3823010000000  0.4828520000000  0.4823300000000 1.0
C      1  0.6077110000000  0.5275230000000  0.4855070000000 1.0
C      1  0.5462820000000  0.5098340000000  0.4064230000000 1.0
C      1  0.3545310000000  0.4206400000000  0.4769030000000 1.0
C      1  0.4106550000000  0.5188030000000  0.4234970000000 1.0
C      1  0.4764570000000  0.6244430000000  0.4236480000000 1.0
C      1  0.4971590000000  0.4543500000000  0.5162420000000 1.0
C      1  0.5615490000000  0.4881010000000  0.4631720000000 1.0
C      1  0.4397870000000  0.4797800000000  0.5442520000000 1.0
C      1  0.4304410000000  0.4917510000000  0.5148050000000 1.0
C      1  0.4319220000000  0.5854950000000  0.5357070000000 1.0
C      1  0.4492010000000  0.5514940000000  0.4360880000000 1.0
C      1  0.4710790000000  0.4848660000000  0.4431050000000 1.0
C      1  0.4589820000000  0.4634730000000  0.5652580000000 1.0
C      1  0.5315660000000  0.3953500000000  0.5137470000000 1.0
C      1  0.4771630000000  0.5052320000000  0.6120480000000 1.0
C      1  0.5519100000000  0.4288440000000  0.5379320000000 1.0
C      1  0.5446710000000  0.4662500000000  0.4489570000000 1.0
C      1  0.5008780000000  0.5492590000000  0.3975750000000 1.0
C      1  0.5158200000000  0.4026880000000  0.4477320000000 1.0
C      1  0.4698920000000  0.5588770000000  0.4813720000000 1.0
C      1  0.4291980000000  0.5057660000000  0.5848720000000 1.0
C      1  0.4340020000000  0.5374370000000  0.4142480000000 1.0
C      1  0.5005400000000  0.5023540000000  0.3846600000000 1.0
C      1  0.4951520000000  0.4321680000000  0.5419330000000 1.0
C      1  0.5942110000000  0.5410160000000  0.5346160000000 1.0
C      1  0.3914000000000  0.4997560000000  0.5117150000000 1.0
C      1  0.4952920000000  0.4480360000000  0.4436650000000 1.0
C      1  0.4312340000000  0.4968740000000  0.4753050000000 1.0
C      1  0.5568210000000  0.4292360000000  0.4573620000000 1.0
C      1  0.5182810000000  0.4905690000000  0.4657280000000 1.0
C      1  0.4430610000000  0.4496950000000  0.4648980000000 1.0
C      1  0.4971000000000  0.5468970000000  0.5511460000000 1.0
C      1  0.5162090000000  0.5757570000000  0.4425470000000 1.0
C      1  0.4661940000000  0.5119250000000  0.5230480000000 1.0
C      1  0.5751000000000  0.4522190000000  0.5293920000000 1.0
C      1  0.4753630000000  0.6037980000000  0.5018400000000 1.0
C      1  0.5287070000000  0.6201810000000  0.5073460000000 1.0
C      1  0.5408000000000  0.4609970000000  0.5586710000000 1.0
C      1  0.3762400000000  0.4340060000000  0.4781990000000 1.0
C      1  0.4344880000000  0.4161420000000  0.5350520000000 1.0
C      1  0.4947440000000  0.4091430000000  0.5207870000000 1.0
C      1  0.4621050000000  0.4467030000000  0.4368560000000 1.0
C      1  0.4022270000000  0.5366460000000  0.4707240000000 1.0
C      1  0.4546020000000  0.5273490000000  0.4594350000000 1.0
C      1  0.4710180000000  0.4837500000000  0.5090210000000 1.0
C      1  0.4128230000000  0.4850440000000  0.4271610000000 1.0
C      1  0.4217080000000  0.5267680000000  0.4507300000000 1.0
C      1  0.5754610000000  0.5168200000000  0.5306070000000 1.0
C      1  0.4709710000000  0.5583740000000  0.5127500000000 1.0
C      1  0.4977800000000  0.4392300000000  0.4743970000000 1.0
C      1  0.5088780000000  0.4552890000000  0.5590770000000 1.0
C      1  0.5710270000000  0.5044530000000  0.5601180000000 1.0
C      1  0.5494060000000  0.4749620000000  0.5288700000000 1.0
C      1  0.4167810000000  0.4994370000000  0.5593090000000 1.0
C      1  0.5287310000000  0.5357580000000  0.6148000000000 1.0
C      1  0.4682250000000  0.5191200000000  0.4227950000000 1.0
C      1  0.4613090000000  0.6058070000000  0.4475330000000 1.0
C      1  0.5714950000000  0.4361660000000  0.5650270000000 1.0
C      1  0.5287060000000  0.4486510000000  0.5229180000000 1.0
C      1  0.5065880000000  0.5294730000000  0.3776990000000 1.0
C      1  0.4633680000000  0.5413100000000  0.5857110000000 1.0
C      1  0.6054730000000  0.4748480000000  0.5091770000000 1.0
C      1  0.4405430000000  0.5536210000000  0.5275860000000 1.0
C      1  0.4278440000000  0.4258820000000  0.4782720000000 1.0
C      1  0.4856110000000  0.5541290000000  0.4578840000000 1.0
C      1  0.4159690000000  0.4291690000000  0.5096860000000 1.0
C      1  0.4510150000000  0.4881590000000  0.5973380000000 1.0
C      1  0.5831840000000  0.4972450000000  0.5086090000000 1.0
C      1  0.4746160000000  0.4383490000000  0.4995700000000 1.0
C      1  0.5311750000000  0.4033830000000  0.5468760000000 1.0
C      1  0.5246190000000  0.5591440000000  0.4167390000000 1.0
C      1  0.4449260000000  0.4707830000000  0.4922820000000 1.0
C      1  0.5021220000000  0.5235730000000  0.6112810000000 1.0
C      1  0.4507730000000  0.4541610000000  0.5967010000000 1.0
C      1  0.5427150000000  0.5771580000000  0.3990340000000 1.0
C      1  0.4752910000000  0.3891510000000  0.5367920000000 1.0
C      1  0.4030550000000  0.4491410000000  0.4769580000000 1.0
C      1  0.4541650000000  0.5215550000000  0.3919430000000 1.0
C      1  0.5279470000000  0.4532060000000  0.4759930000000 1.0
C      1  0.5018040000000  0.4879060000000  0.5567040000000 1.0
C      1  0.4630820000000  0.5052030000000  0.4838100000000 1.0
C      1  0.6179610000000  0.4972940000000  0.4888860000000 1.0
C      1  0.4644890000000  0.5932320000000  0.5310490000000 1.0
C      1  0.5659580000000  0.5919830000000  0.4442550000000 1.0
C      1  0.4098690000000  0.5400710000000  0.5332610000000 1.0
C      1  0.5942870000000  0.4567680000000  0.4753320000000 1.0
C      1  0.5168700000000  0.5660310000000  0.5511760000000 1.0
C      1  0.5675470000000  0.4220130000000  0.4991310000000 1.0
C      1  0.5424490000000  0.5347540000000  0.4286710000000 1.0
C      1  0.5766470000000  0.5738800000000  0.4310060000000 1.0
C      1  0.5201930000000  0.4328920000000  0.4038440000000 1.0
C      1  0.4550100000000  0.5090220000000  0.5526500000000 1.0
C      1  0.4497830000000  0.3954100000000  0.5412190000000 1.0
C      1  0.4827590000000  0.4780040000000  0.5940980000000 1.0
C      1  0.5979890000000  0.5012010000000  0.5890880000000 1.0
C      1  0.4065800000000  0.4706950000000  0.5027950000000 1.0
C      1  0.4343150000000  0.4626800000000  0.4131070000000 1.0
C      1  0.4368920000000  0.5320930000000  0.5935010000000 1.0
C      1  0.4013840000000  0.4752100000000  0.4551690000000 1.0
C      1  0.4422160000000  0.4017440000000  0.4738770000000 1.0
C      1  0.5091860000000  0.4253380000000  0.4284210000000 1.0
C      1  0.5808910000000  0.5076890000000  0.4781860000000 1.0
C      1  0.5391070000000  0.6394120000000  0.5228120000000 1.0
C      1  0.5502420000000  0.5376000000000  0.5966590000000 1.0
C      1  0.4984090000000  0.5642710000000  0.5878540000000 1.0
C      1  0.5626100000000  0.5537870000000  0.5387920000000 1.0
C      1  0.5282520000000  0.4635830000000  0.3987100000000 1.0
C      1  0.4549850000000  0.6011340000000  0.4797530000000 1.0
C      1  0.5424880000000  0.5128580000000  0.4879570000000 1.0
C      1  0.5356340000000  0.4369100000000  0.5821400000000 1.0
C      1  0.5444570000000  0.5467990000000  0.4870020000000 1.0
C      1  0.5320690000000  0.4595710000000  0.6038060000000 1.0
C      1  0.4402750000000  0.5241040000000  0.5106990000000 1.0
C      1  0.4346620000000  0.4440380000000  0.6172000000000 1.0
C      1  0.4554530000000  0.5748340000000  0.5580390000000 1.0
C      1  0.4722250000000  0.3913280000000  0.4733950000000 1.0
C      1  0.5960680000000  0.4825820000000  0.5659280000000 1.0
C      1  0.4667110000000  0.4135100000000  0.4310670000000 1.0
C      1  0.5387310000000  0.5930890000000  0.4915670000000 1.0
C      1  0.6141670000000  0.4740760000000  0.4701540000000 1.0
C      1  0.5591070000000  0.4438430000000  0.4321780000000 1.0
C      1  0.5199210000000  0.5438480000000  0.5103550000000 1.0
C      1  0.5033860000000  0.5250820000000  0.4784150000000 1.0
C      1  0.5395810000000  0.4069960000000  0.4647940000000 1.0
C      1  0.5939690000000  0.4576670000000  0.5552330000000 1.0
C      1  0.5557040000000  0.5696800000000  0.5095110000000 1.0
C      1  0.5134130000000  0.4742990000000  0.4382320000000 1.0
C      1  0.4945590000000  0.5817280000000  0.5201180000000 1.0
C      1  0.4438400000000  0.4311000000000  0.4127820000000 1.0
C      1  0.5710260000000  0.5771200000000  0.5620620000000 1.0
C      1  0.5250930000000  0.5707480000000  0.5899430000000 1.0
C      1  0.5346820000000  0.5169790000000  0.4550940000000 1.0
C      1  0.5247890000000  0.4951890000000  0.5803300000000 1.0
C      1  0.4762730000000  0.5788350000000  0.5812930000000 1.0
C      1  0.5497830000000  0.4865100000000  0.5966910000000 1.0
C      1  0.6042490000000  0.5499890000000  0.5058910000000 1.0
C      1  0.4738900000000  0.4948040000000  0.3917300000000 1.0
C      1  0.4669400000000  0.4285060000000  0.5824630000000 1.0
C      1  0.4045900000000  0.5625440000000  0.4772940000000 1.0
C      1  0.5148490000000  0.5051630000000  0.5024280000000 1.0
C      1  0.5672900000000  0.5513910000000  0.4687390000000 1.0
C      1  0.5552360000000  0.4824010000000  0.4961710000000 1.0
C      1  0.5929480000000  0.4435520000000  0.5051230000000 1.0
C      1  0.5441770000000  0.5538730000000  0.5674050000000 1.0
C      1  0.5085010000000  0.3813160000000  0.5344180000000 1.0
C      1  0.4041040000000  0.5072040000000  0.4807530000000 1.0
C      1  0.4778840000000  0.5034830000000  0.5721170000000 1.0
C      1  0.4953550000000  0.5313650000000  0.5798240000000 1.0
C      1  0.4851750000000  0.4872760000000  0.4695630000000 1.0
C      1  0.5217420000000  0.4914080000000  0.4027650000000 1.0
C      1  0.5198030000000  0.4163270000000  0.5726570000000 1.0
C      1  0.4907550000000  0.4221660000000  0.5719910000000 1.0
C      1  0.4933810000000  0.6005030000000  0.4410180000000 1.0
C      1  0.5648870000000  0.4631800000000  0.5816870000000 1.0
C      1  0.4420910000000  0.5440700000000  0.4862780000000 1.0
C      1  0.4420160000000  0.4775970000000  0.4530770000000 1.0
C      1  0.5898470000000  0.5854520000000  0.5409530000000 1.0
C      1  0.5065170000000  0.4736970000000  0.4926510000000 1.0
C      1  0.5405890000000  0.5037110000000  0.5448010000000 1.0
C      1  0.4518550000000  0.5757330000000  0.4499550000000 1.0
C      1  0.5043890000000  0.6135370000000  0.4916570000000 1.0
C      1  0.4784570000000  0.4717200000000  0.5387050000000 1.0
C      1  0.5671520000000  0.5128350000000  0.5929210000000 1.0
C      1  0.4739380000000  0.5460500000000  0.4051300000000 1.0
C      1  0.4846620000000  0.3995420000000  0.4465380000000 1.0
C      1  0.5167720000000  0.5739560000000  0.5016170000000 1.0
C      1  0.5396110000000  0.5943510000000  0.4591500000000 1.0
END
