TITL C-3371512-288-33 -0.000623339173555372 125000 -164.997870929287 0 0 29 (C1) n - 1
REM
REM in /nfs/bkarasulu/CARBON/AIRSS/Generating-Clusters/AIREBO/with-SteepDescent/Only-C1/SD-CG-opt/Try1-1.4A-POS3A/HFTN-CG
REM
REM
REM
REM
REM
REM ./C.cell (11c1c37f851c82e70ff6c80c92926a4b)
REM
REM compiler GCC version 9.2.1 20190827 (Red Hat 9.2.1-1)
REM options -cpp -mtune=generic -march=x86-64 -g -O0 -fpre-include=/usr/include/finclude/math-vector-fortran.h
REM seed -849188915 -2019846616 -1087579296 1506007345 1802293390 -681122340 -539857134 -1883451972 -560920749 1528782164 -1584649397 582205412 -626933167 -2129208067 -1226955968 -1793666036 1579285961 -648251637 -531540103 -418972672 -1617386382 -1206499601 2107717756 -108838059 -2140362876 -2081578524 -1908121908 656404997 -860796479 1354919292 -327090283 176451984 1988360178
REM
CELL 1.54180   50.00000   50.00000   50.00000   90.00000   90.00000   90.00000
LATT -1
SFAC C  
C      1  0.5013440000000  0.5374590000000  0.5148130000000 1.0
C      1  0.4616330000000  0.4409600000000  0.5416930000000 1.0
C      1  0.5129480000000  0.5065430000000  0.5620420000000 1.0
C      1  0.5009950000000  0.5516840000000  0.4894730000000 1.0
C      1  0.4787810000000  0.4935650000000  0.4573080000000 1.0
C      1  0.4633680000000  0.4612300000000  0.5229520000000 1.0
C      1  0.4876180000000  0.5046980000000  0.5509250000000 1.0
C      1  0.5591050000000  0.5206030000000  0.5565760000000 1.0
C      1  0.5341850000000  0.5174630000000  0.5469000000000 1.0
C      1  0.4476020000000  0.5099760000000  0.4945100000000 1.0
C      1  0.5733370000000  0.4517070000000  0.4694960000000 1.0
C      1  0.5273600000000  0.5588820000000  0.4802550000000 1.0
C      1  0.5082580000000  0.4742950000000  0.4968420000000 1.0
C      1  0.4653630000000  0.4910130000000  0.5356910000000 1.0
C      1  0.4727500000000  0.4676550000000  0.4469390000000 1.0
C      1  0.4823010000000  0.4778880000000  0.5019460000000 1.0
C      1  0.5246950000000  0.5109670000000  0.4615680000000 1.0
C      1  0.5330040000000  0.4872140000000  0.4840610000000 1.0
C      1  0.5556820000000  0.4684860000000  0.4771220000000 1.0
C      1  0.4540720000000  0.4517610000000  0.4916400000000 1.0
C      1  0.5418950000000  0.5349720000000  0.4740830000000 1.0
C      1  0.4519010000000  0.5149460000000  0.5217680000000 1.0
C      1  0.4866790000000  0.5397990000000  0.4675460000000 1.0
C      1  0.4796480000000  0.5278360000000  0.5306020000000 1.0
C      1  0.5409410000000  0.5153350000000  0.4974860000000 1.0
C      1  0.5270240000000  0.5246380000000  0.5203080000000 1.0
C      1  0.4674670000000  0.4935040000000  0.4836220000000 1.0
C      1  0.4629520000000  0.4494940000000  0.4658450000000 1.0
C      1  0.4970920000000  0.5154220000000  0.4559880000000 1.0
END
