TITL C-3371512-288-63 0.00041834752915529 125000 -820.697017536278 0 0 157 (C1) n - 1
REM
REM in /nfs/bkarasulu/CARBON/AIRSS/Generating-Clusters/AIREBO/with-SteepDescent/Only-C1/SD-CG-opt/Try1-1.4A-POS3A/HFTN-CG
REM
REM
REM
REM
REM
REM ./C.cell (11c1c37f851c82e70ff6c80c92926a4b)
REM
REM compiler GCC version 9.2.1 20190827 (Red Hat 9.2.1-1)
REM options -cpp -mtune=generic -march=x86-64 -g -O0 -fpre-include=/usr/include/finclude/math-vector-fortran.h
REM seed -485468877 321603338 2039987480 8288438 622606669 294637758 1062870230 130465016 1830302598 1226638817 -1915180356 -472755594 -199914004 -1279305016 1097905136 461791992 -1350428686 -1386928837 2076589774 -2118832631 -1537233145 -305848421 151657882 1407013283 -1743033284 -264158906 755037838 1037632368 1011761342 9662845 -2073561524 1536110176 1819719396
REM
CELL 1.54180   50.00000   50.00000   50.00000   90.00000   90.00000   90.00000
LATT -1
SFAC C  
C      1  0.4551340000000  0.5796130000000  0.4314390000000 1.0
C      1  0.5435560000000  0.5569280000000  0.4420420000000 1.0
C      1  0.5171000000000  0.4063710000000  0.4333160000000 1.0
C      1  0.4387800000000  0.5827730000000  0.5359450000000 1.0
C      1  0.4955390000000  0.5117640000000  0.5508010000000 1.0
C      1  0.5230430000000  0.4097800000000  0.4857940000000 1.0
C      1  0.4591900000000  0.5219550000000  0.4916170000000 1.0
C      1  0.4830990000000  0.4801340000000  0.4311100000000 1.0
C      1  0.5271170000000  0.5180170000000  0.4683450000000 1.0
C      1  0.5478990000000  0.4728180000000  0.3986590000000 1.0
C      1  0.5662360000000  0.4351690000000  0.5554980000000 1.0
C      1  0.4511260000000  0.5016180000000  0.4086180000000 1.0
C      1  0.5921490000000  0.5346620000000  0.5108000000000 1.0
C      1  0.5595420000000  0.5173170000000  0.5294550000000 1.0
C      1  0.5933780000000  0.4657660000000  0.5253390000000 1.0
C      1  0.5400400000000  0.4559500000000  0.4566780000000 1.0
C      1  0.5662410000000  0.4600120000000  0.5119480000000 1.0
C      1  0.5902620000000  0.5009590000000  0.4384480000000 1.0
C      1  0.5908490000000  0.4743530000000  0.4713300000000 1.0
C      1  0.5876550000000  0.4982560000000  0.5262020000000 1.0
C      1  0.4413930000000  0.5369210000000  0.4429610000000 1.0
C      1  0.5019360000000  0.5357340000000  0.5141640000000 1.0
C      1  0.4337590000000  0.5066940000000  0.5082490000000 1.0
C      1  0.4561040000000  0.5620430000000  0.4605460000000 1.0
C      1  0.4542130000000  0.4298950000000  0.5157200000000 1.0
C      1  0.5282450000000  0.4600360000000  0.4957250000000 1.0
C      1  0.5222120000000  0.4643230000000  0.5591000000000 1.0
C      1  0.4710050000000  0.5630090000000  0.5116670000000 1.0
C      1  0.5143570000000  0.4786700000000  0.4002840000000 1.0
C      1  0.5628470000000  0.4288960000000  0.5080240000000 1.0
C      1  0.5549540000000  0.5733740000000  0.5566640000000 1.0
C      1  0.4931500000000  0.6003980000000  0.4808440000000 1.0
C      1  0.5572700000000  0.4481620000000  0.4069100000000 1.0
C      1  0.4821730000000  0.3915580000000  0.5078370000000 1.0
C      1  0.4001250000000  0.4825110000000  0.4607830000000 1.0
C      1  0.4266790000000  0.4489390000000  0.5350110000000 1.0
C      1  0.5681620000000  0.5515870000000  0.4957510000000 1.0
C      1  0.5319260000000  0.5342980000000  0.5212210000000 1.0
C      1  0.4751790000000  0.4475610000000  0.5005130000000 1.0
C      1  0.4389110000000  0.5510830000000  0.5681080000000 1.0
C      1  0.4484790000000  0.4799560000000  0.4932430000000 1.0
C      1  0.5082360000000  0.5568740000000  0.5796190000000 1.0
C      1  0.4856880000000  0.4424000000000  0.4439090000000 1.0
C      1  0.4927160000000  0.4931000000000  0.6059480000000 1.0
C      1  0.4791700000000  0.4012710000000  0.4650880000000 1.0
C      1  0.5531080000000  0.4216420000000  0.5338660000000 1.0
C      1  0.4594770000000  0.4045030000000  0.4994920000000 1.0
C      1  0.4727230000000  0.5202670000000  0.4055200000000 1.0
C      1  0.4537420000000  0.5069630000000  0.4532980000000 1.0
C      1  0.4718450000000  0.5557250000000  0.5624690000000 1.0
C      1  0.4949300000000  0.4402120000000  0.5948950000000 1.0
C      1  0.4536200000000  0.4218460000000  0.4711510000000 1.0
C      1  0.5078730000000  0.4336890000000  0.4225480000000 1.0
C      1  0.5458060000000  0.4437350000000  0.5723840000000 1.0
C      1  0.3995580000000  0.5189780000000  0.5328490000000 1.0
C      1  0.5483680000000  0.5316300000000  0.4265990000000 1.0
C      1  0.5845770000000  0.5069050000000  0.5582970000000 1.0
C      1  0.4137450000000  0.5555290000000  0.4950200000000 1.0
C      1  0.4286660000000  0.5127060000000  0.4227520000000 1.0
C      1  0.4634520000000  0.5843540000000  0.5502200000000 1.0
C      1  0.5097230000000  0.4051150000000  0.5137230000000 1.0
C      1  0.4321780000000  0.4522510000000  0.5026360000000 1.0
C      1  0.4902250000000  0.5943600000000  0.5449550000000 1.0
C      1  0.5294470000000  0.5854010000000  0.4735400000000 1.0
C      1  0.4121520000000  0.5449700000000  0.4583430000000 1.0
C      1  0.4518260000000  0.4814980000000  0.5404770000000 1.0
C      1  0.5366860000000  0.5813030000000  0.5280320000000 1.0
C      1  0.4636220000000  0.5482940000000  0.4198620000000 1.0
C      1  0.5826590000000  0.5377550000000  0.5433050000000 1.0
C      1  0.4174160000000  0.5410340000000  0.5237560000000 1.0
C      1  0.5366500000000  0.4594570000000  0.5286890000000 1.0
C      1  0.4814540000000  0.5364010000000  0.5390860000000 1.0
C      1  0.5601860000000  0.4834180000000  0.4952510000000 1.0
C      1  0.4545570000000  0.4347010000000  0.5492790000000 1.0
C      1  0.6011350000000  0.4601650000000  0.4927020000000 1.0
C      1  0.5641050000000  0.4917790000000  0.4581490000000 1.0
C      1  0.4676520000000  0.4527590000000  0.4690240000000 1.0
C      1  0.5896810000000  0.4757160000000  0.5723910000000 1.0
C      1  0.5134000000000  0.4895590000000  0.4996750000000 1.0
C      1  0.5458150000000  0.5276300000000  0.4935190000000 1.0
C      1  0.5002770000000  0.4738120000000  0.5349090000000 1.0
C      1  0.4889550000000  0.5566970000000  0.4640170000000 1.0
C      1  0.5198090000000  0.4644730000000  0.4307120000000 1.0
C      1  0.4745890000000  0.4783420000000  0.5149670000000 1.0
C      1  0.5374250000000  0.5112660000000  0.4021060000000 1.0
C      1  0.4752050000000  0.5031270000000  0.5715610000000 1.0
C      1  0.4160720000000  0.5233450000000  0.4842920000000 1.0
C      1  0.4892240000000  0.4573050000000  0.4062130000000 1.0
C      1  0.5033200000000  0.5102720000000  0.4064170000000 1.0
C      1  0.5177050000000  0.5198660000000  0.4357090000000 1.0
C      1  0.4978550000000  0.5781670000000  0.5192150000000 1.0
C      1  0.4645880000000  0.5892130000000  0.4929400000000 1.0
C      1  0.4762440000000  0.4676950000000  0.5533720000000 1.0
C      1  0.5644550000000  0.5616960000000  0.5267650000000 1.0
C      1  0.4401180000000  0.5129230000000  0.5410800000000 1.0
C      1  0.4512800000000  0.5396770000000  0.5265910000000 1.0
C      1  0.4585850000000  0.4717620000000  0.4090870000000 1.0
C      1  0.5358740000000  0.4928390000000  0.4306410000000 1.0
C      1  0.4732340000000  0.4845990000000  0.4699200000000 1.0
C      1  0.5192450000000  0.4920300000000  0.5760730000000 1.0
C      1  0.4131280000000  0.4721860000000  0.5430540000000 1.0
C      1  0.5343190000000  0.4851140000000  0.4732180000000 1.0
C      1  0.5686630000000  0.5243190000000  0.4483370000000 1.0
C      1  0.4801340000000  0.5429180000000  0.5928630000000 1.0
C      1  0.5197180000000  0.4978010000000  0.5316340000000 1.0
C      1  0.5135020000000  0.4399370000000  0.4615940000000 1.0
C      1  0.5444640000000  0.4659850000000  0.5922680000000 1.0
C      1  0.4857380000000  0.5103010000000  0.4422790000000 1.0
C      1  0.5589970000000  0.4428870000000  0.4340460000000 1.0
C      1  0.4174990000000  0.4547600000000  0.4505350000000 1.0
C      1  0.5123360000000  0.5477990000000  0.4188190000000 1.0
C      1  0.5730280000000  0.5121210000000  0.4917410000000 1.0
C      1  0.4066290000000  0.4919120000000  0.5224620000000 1.0
C      1  0.5091300000000  0.3998780000000  0.4586750000000 1.0
C      1  0.4868410000000  0.5083370000000  0.5046090000000 1.0
C      1  0.5990510000000  0.5063910000000  0.4708580000000 1.0
C      1  0.5886400000000  0.4536480000000  0.5532420000000 1.0
C      1  0.4956050000000  0.5200120000000  0.6114260000000 1.0
C      1  0.4842500000000  0.5263190000000  0.4694060000000 1.0
C      1  0.4589570000000  0.4474570000000  0.4303540000000 1.0
C      1  0.5284080000000  0.5520130000000  0.4676760000000 1.0
C      1  0.4358640000000  0.5811460000000  0.5056550000000 1.0
C      1  0.4677110000000  0.4402900000000  0.5803140000000 1.0
C      1  0.5483520000000  0.4887240000000  0.5415480000000 1.0
C      1  0.4751270000000  0.4732090000000  0.5848400000000 1.0
C      1  0.5201770000000  0.4301750000000  0.5342140000000 1.0
C      1  0.4258560000000  0.5136880000000  0.5720760000000 1.0
C      1  0.5654450000000  0.4961210000000  0.4161440000000 1.0
C      1  0.4243630000000  0.5613310000000  0.5467290000000 1.0
C      1  0.5196320000000  0.3982540000000  0.5459470000000 1.0
C      1  0.4933690000000  0.4262780000000  0.4839910000000 1.0
C      1  0.5035520000000  0.5851070000000  0.4523130000000 1.0
C      1  0.4657430000000  0.5946700000000  0.4604530000000 1.0
C      1  0.4113260000000  0.5121930000000  0.4521030000000 1.0
C      1  0.4087170000000  0.4575500000000  0.4827440000000 1.0
C      1  0.5332600000000  0.5481110000000  0.5497570000000 1.0
C      1  0.5186810000000  0.5356680000000  0.5998720000000 1.0
C      1  0.4472100000000  0.5534700000000  0.4893330000000 1.0
C      1  0.5055450000000  0.5593100000000  0.4919860000000 1.0
C      1  0.5414150000000  0.4326490000000  0.4890230000000 1.0
C      1  0.5159760000000  0.5769670000000  0.5547880000000 1.0
C      1  0.3972690000000  0.5202700000000  0.5604790000000 1.0
C      1  0.5596780000000  0.5763620000000  0.4729480000000 1.0
C      1  0.4287160000000  0.4836280000000  0.5653360000000 1.0
C      1  0.4907450000000  0.5618750000000  0.4304570000000 1.0
C      1  0.6102500000000  0.5084730000000  0.5029160000000 1.0
C      1  0.5122510000000  0.4672460000000  0.5982770000000 1.0
C      1  0.5044030000000  0.4785490000000  0.4575680000000 1.0
C      1  0.4880240000000  0.4372870000000  0.5436770000000 1.0
C      1  0.4340210000000  0.4816020000000  0.4632870000000 1.0
C      1  0.5769510000000  0.5487910000000  0.4630220000000 1.0
C      1  0.5590990000000  0.4905270000000  0.5737730000000 1.0
C      1  0.4395510000000  0.4359810000000  0.4461490000000 1.0
C      1  0.5202070000000  0.5951450000000  0.5016920000000 1.0
C      1  0.5235510000000  0.5229660000000  0.5624350000000 1.0
C      1  0.5411240000000  0.5147350000000  0.5888060000000 1.0
C      1  0.4548620000000  0.5246960000000  0.5806360000000 1.0
END
