TITL C-3371510-9333-28 0.00536754474597325 125000 -685.74914502703 0 0 128 (C1) n - 1
REM
REM in /nfs/bkarasulu/CARBON/AIRSS/Generating-Clusters/AIREBO/with-SteepDescent/Only-C1/SD-CG-opt/Try1-1.4A-POS3A/HFTN-CG
REM
REM
REM
REM
REM
REM ./C.cell (11c1c37f851c82e70ff6c80c92926a4b)
REM
REM compiler GCC version 9.2.1 20190827 (Red Hat 9.2.1-1)
REM options -cpp -mtune=generic -march=x86-64 -g -O0 -fpre-include=/usr/include/finclude/math-vector-fortran.h
REM seed 1097206972 -1676360313 531117188 1424639040 2053831350 -1355500855 -327815058 1446084105 -479166679 1124443790 534406347 18525771 1434134023 -1668133231 -1579209997 791447353 356115945 671262492 688194241 -1934431490 786619375 496800632 320711261 -315167153 -1072233405 2011260248 -660172821 -1687732446 -71911598 -803140543 -1404167701 997028002 -350615016
REM
CELL 1.54180   50.00000   50.00000   50.00000   90.00000   90.00000   90.00000
LATT -1
SFAC C  
C      1  0.4183070000000  0.4695610000000  0.4985670000000 1.0
C      1  0.4082760000000  0.5239600000000  0.4869950000000 1.0
C      1  0.4095070000000  0.5000890000000  0.5111970000000 1.0
C      1  0.5196370000000  0.4778210000000  0.5478050000000 1.0
C      1  0.5048550000000  0.4659240000000  0.4483190000000 1.0
C      1  0.5559610000000  0.5081520000000  0.5380350000000 1.0
C      1  0.5963780000000  0.4897360000000  0.5177130000000 1.0
C      1  0.5497540000000  0.5066000000000  0.4250290000000 1.0
C      1  0.4502760000000  0.4503240000000  0.5730490000000 1.0
C      1  0.4402860000000  0.4947050000000  0.4724410000000 1.0
C      1  0.4432580000000  0.5597500000000  0.5197500000000 1.0
C      1  0.4924260000000  0.5207460000000  0.4185900000000 1.0
C      1  0.4537950000000  0.5865330000000  0.5299360000000 1.0
C      1  0.4717710000000  0.4602970000000  0.5023130000000 1.0
C      1  0.5185690000000  0.4350730000000  0.4441300000000 1.0
C      1  0.4635290000000  0.5081710000000  0.5925240000000 1.0
C      1  0.4843510000000  0.5694240000000  0.5108930000000 1.0
C      1  0.5015040000000  0.5665210000000  0.4630620000000 1.0
C      1  0.5775390000000  0.5018520000000  0.4440560000000 1.0
C      1  0.4262380000000  0.5423960000000  0.5667340000000 1.0
C      1  0.4393820000000  0.5034250000000  0.5013110000000 1.0
C      1  0.5434630000000  0.5079350000000  0.5843610000000 1.0
C      1  0.5241390000000  0.5722220000000  0.4825140000000 1.0
C      1  0.4995150000000  0.5030110000000  0.5586370000000 1.0
C      1  0.5198850000000  0.5182520000000  0.5058580000000 1.0
C      1  0.5721980000000  0.5376230000000  0.5430050000000 1.0
C      1  0.5362660000000  0.4094160000000  0.4842930000000 1.0
C      1  0.4590550000000  0.4884620000000  0.4268300000000 1.0
C      1  0.5210400000000  0.4616870000000  0.4734740000000 1.0
C      1  0.5395040000000  0.4345090000000  0.4705600000000 1.0
C      1  0.4943600000000  0.5334470000000  0.4500800000000 1.0
C      1  0.4414150000000  0.4268700000000  0.5248830000000 1.0
C      1  0.4574720000000  0.4179780000000  0.5470250000000 1.0
C      1  0.5181350000000  0.5496080000000  0.5029620000000 1.0
C      1  0.4823540000000  0.6019610000000  0.5205870000000 1.0
C      1  0.4427900000000  0.5623510000000  0.4803740000000 1.0
C      1  0.4681410000000  0.5328300000000  0.4717230000000 1.0
C      1  0.4687700000000  0.5379470000000  0.5985110000000 1.0
C      1  0.4826630000000  0.4568560000000  0.5658830000000 1.0
C      1  0.4863210000000  0.4425540000000  0.4772230000000 1.0
C      1  0.4964930000000  0.4695620000000  0.4099690000000 1.0
C      1  0.5531780000000  0.4764090000000  0.5363240000000 1.0
C      1  0.4906090000000  0.5886060000000  0.4413070000000 1.0
C      1  0.4845030000000  0.5661920000000  0.5447410000000 1.0
C      1  0.5424170000000  0.5330960000000  0.4326790000000 1.0
C      1  0.4405730000000  0.4553050000000  0.4771840000000 1.0
C      1  0.5032930000000  0.5422150000000  0.5525180000000 1.0
C      1  0.5678680000000  0.4224850000000  0.5210440000000 1.0
C      1  0.4076910000000  0.5072130000000  0.5410380000000 1.0
C      1  0.4972280000000  0.4302280000000  0.5070100000000 1.0
C      1  0.4254220000000  0.4932790000000  0.5575230000000 1.0
C      1  0.4855770000000  0.4909740000000  0.4810440000000 1.0
C      1  0.5759890000000  0.4769450000000  0.4209610000000 1.0
C      1  0.5519210000000  0.5143640000000  0.5073280000000 1.0
C      1  0.4504120000000  0.5132350000000  0.4119640000000 1.0
C      1  0.5674240000000  0.5152780000000  0.5692440000000 1.0
C      1  0.5551100000000  0.5687090000000  0.4716440000000 1.0
C      1  0.5126220000000  0.5883400000000  0.5104690000000 1.0
C      1  0.5699180000000  0.4314690000000  0.4451800000000 1.0
C      1  0.4654680000000  0.4736660000000  0.4632910000000 1.0
C      1  0.4598030000000  0.5816900000000  0.4908090000000 1.0
C      1  0.4501550000000  0.5539640000000  0.5860140000000 1.0
C      1  0.5204200000000  0.4891110000000  0.5172130000000 1.0
C      1  0.4942290000000  0.4159060000000  0.4582850000000 1.0
C      1  0.4870360000000  0.5395860000000  0.4978920000000 1.0
C      1  0.5173620000000  0.5420380000000  0.4259130000000 1.0
C      1  0.4544930000000  0.5259510000000  0.4412600000000 1.0
C      1  0.4314480000000  0.4400130000000  0.4482190000000 1.0
C      1  0.4572360000000  0.4826140000000  0.5167490000000 1.0
C      1  0.4897230000000  0.4951910000000  0.4398990000000 1.0
C      1  0.5428190000000  0.5824170000000  0.5221270000000 1.0
C      1  0.5254890000000  0.5173300000000  0.5458220000000 1.0
C      1  0.5380870000000  0.4897160000000  0.4749520000000 1.0
C      1  0.5696050000000  0.4458570000000  0.4754730000000 1.0
C      1  0.5074430000000  0.5718140000000  0.5689070000000 1.0
C      1  0.4749270000000  0.5602910000000  0.4424180000000 1.0
C      1  0.4557810000000  0.5668900000000  0.5568020000000 1.0
C      1  0.4229250000000  0.5315980000000  0.4645200000000 1.0
C      1  0.5447010000000  0.4726100000000  0.5036130000000 1.0
C      1  0.5843460000000  0.5139360000000  0.4970740000000 1.0
C      1  0.5480020000000  0.4401220000000  0.4304560000000 1.0
C      1  0.4455250000000  0.5075500000000  0.5702900000000 1.0
C      1  0.5882490000000  0.5259910000000  0.4655120000000 1.0
C      1  0.5096630000000  0.5062210000000  0.4649130000000 1.0
C      1  0.4825000000000  0.4265910000000  0.5548520000000 1.0
C      1  0.5273340000000  0.5472220000000  0.5321470000000 1.0
C      1  0.5668920000000  0.4759140000000  0.4632900000000 1.0
C      1  0.4631070000000  0.4788770000000  0.5486720000000 1.0
C      1  0.5860460000000  0.5547990000000  0.4687040000000 1.0
C      1  0.4428850000000  0.5554130000000  0.4505500000000 1.0
C      1  0.4572350000000  0.4279090000000  0.4674070000000 1.0
C      1  0.5068520000000  0.4656380000000  0.5836130000000 1.0
C      1  0.5846850000000  0.5634520000000  0.4979700000000 1.0
C      1  0.5505630000000  0.5195450000000  0.4764140000000 1.0
C      1  0.4240350000000  0.4500990000000  0.5259280000000 1.0
C      1  0.5882730000000  0.5413700000000  0.5157440000000 1.0
C      1  0.4110580000000  0.4783700000000  0.4665100000000 1.0
C      1  0.4804990000000  0.4067280000000  0.4889740000000 1.0
C      1  0.5329370000000  0.5554570000000  0.5755030000000 1.0
C      1  0.5050690000000  0.4507570000000  0.5331310000000 1.0
C      1  0.4320850000000  0.4650440000000  0.5502040000000 1.0
C      1  0.4757570000000  0.5090340000000  0.5395470000000 1.0
C      1  0.4579250000000  0.4289340000000  0.5013870000000 1.0
C      1  0.4747910000000  0.4590770000000  0.4339860000000 1.0
C      1  0.5912480000000  0.4864850000000  0.4782280000000 1.0
C      1  0.5038600000000  0.4710220000000  0.4988320000000 1.0
C      1  0.5506080000000  0.5398250000000  0.4584930000000 1.0
C      1  0.4793990000000  0.4264440000000  0.4328270000000 1.0
C      1  0.5513290000000  0.5614710000000  0.5475400000000 1.0
C      1  0.5519410000000  0.4640990000000  0.4172470000000 1.0
C      1  0.4951040000000  0.5200850000000  0.5865130000000 1.0
C      1  0.5770110000000  0.4446710000000  0.5057800000000 1.0
C      1  0.5621440000000  0.5826420000000  0.5018530000000 1.0
C      1  0.4556950000000  0.5331810000000  0.5523300000000 1.0
C      1  0.4039240000000  0.5329550000000  0.5524350000000 1.0
C      1  0.5027470000000  0.4992510000000  0.3994620000000 1.0
C      1  0.5253460000000  0.4147500000000  0.5091130000000 1.0
C      1  0.5801590000000  0.4679810000000  0.5211510000000 1.0
C      1  0.5468700000000  0.4211990000000  0.5414950000000 1.0
C      1  0.5347800000000  0.4449290000000  0.5203530000000 1.0
C      1  0.4269590000000  0.5060960000000  0.4433060000000 1.0
C      1  0.4468240000000  0.5338440000000  0.4979860000000 1.0
C      1  0.5128180000000  0.4191060000000  0.5428340000000 1.0
C      1  0.5254370000000  0.5298390000000  0.5865810000000 1.0
C      1  0.4325100000000  0.4723390000000  0.4408150000000 1.0
C      1  0.5281680000000  0.4831940000000  0.4124670000000 1.0
C      1  0.4871870000000  0.5096360000000  0.5094890000000 1.0
C      1  0.5311320000000  0.4821720000000  0.5795140000000 1.0
END
