TITL C-3371514-4997-4 -0.000104099824753236 125000 -216.947492540136 0 0 41 (C1) n - 1
REM
REM in /nfs/bkarasulu/CARBON/AIRSS/Generating-Clusters/AIREBO/with-SteepDescent/Only-C1/SD-CG-opt/Try1-1.4A-POS3A/HFTN-CG
REM
REM
REM
REM
REM
REM ./C.cell (11c1c37f851c82e70ff6c80c92926a4b)
REM
REM compiler GCC version 9.2.1 20190827 (Red Hat 9.2.1-1)
REM options -cpp -mtune=generic -march=x86-64 -g -O0 -fpre-include=/usr/include/finclude/math-vector-fortran.h
REM seed 1330220341 457002226 1830241826 986701465 1483833715 -1420303040 -1590454998 1602458 628755477 -1236253943 362787569 -1505795431 892773370 2114594502 1270364065 -153014115 1387136900 286938977 1320579214 1778765371 57270241 870223337 -1353793788 -1225306449 -803315593 -1054269979 1510922234 493079933 -1714221134 1515822686 1710747812 1114858537 -1918538513
REM
CELL 1.54180   50.00000   50.00000   50.00000   90.00000   90.00000   90.00000
LATT -1
SFAC C  
C      1  0.4507820000000  0.4458550000000  0.4881200000000 1.0
C      1  0.4464330000000  0.4870110000000  0.5510580000000 1.0
C      1  0.4719200000000  0.4278840000000  0.4948060000000 1.0
C      1  0.5602340000000  0.4169670000000  0.4836830000000 1.0
C      1  0.4667040000000  0.4805750000000  0.5275630000000 1.0
C      1  0.4872140000000  0.4660870000000  0.5504890000000 1.0
C      1  0.5151360000000  0.5011170000000  0.4810350000000 1.0
C      1  0.5239900000000  0.4809850000000  0.5488510000000 1.0
C      1  0.4654610000000  0.5582100000000  0.4703140000000 1.0
C      1  0.5132860000000  0.5717880000000  0.5060900000000 1.0
C      1  0.5234300000000  0.5081740000000  0.4496670000000 1.0
C      1  0.5451260000000  0.5386920000000  0.5141860000000 1.0
C      1  0.5090270000000  0.5207800000000  0.5254900000000 1.0
C      1  0.5366380000000  0.4645440000000  0.4768910000000 1.0
C      1  0.5424650000000  0.5521130000000  0.4576660000000 1.0
C      1  0.4707760000000  0.5185670000000  0.5476770000000 1.0
C      1  0.4924380000000  0.4711270000000  0.5073870000000 1.0
C      1  0.5236190000000  0.4784880000000  0.5012300000000 1.0
C      1  0.5269320000000  0.5204350000000  0.5544010000000 1.0
C      1  0.4581660000000  0.5320680000000  0.5655470000000 1.0
C      1  0.4905570000000  0.4394790000000  0.5124370000000 1.0
C      1  0.4438320000000  0.4618080000000  0.5108080000000 1.0
C      1  0.4960570000000  0.4988330000000  0.5480240000000 1.0
C      1  0.4737810000000  0.5027590000000  0.4441960000000 1.0
C      1  0.4912030000000  0.5422100000000  0.4726470000000 1.0
C      1  0.5429460000000  0.5302340000000  0.4418450000000 1.0
C      1  0.5383880000000  0.4873390000000  0.5260340000000 1.0
C      1  0.5483110000000  0.5148200000000  0.5295720000000 1.0
C      1  0.4506360000000  0.4599450000000  0.4633850000000 1.0
C      1  0.4642730000000  0.4844700000000  0.4630280000000 1.0
C      1  0.5160700000000  0.5600070000000  0.4763020000000 1.0
C      1  0.5498590000000  0.4408290000000  0.4805480000000 1.0
C      1  0.4921640000000  0.5194750000000  0.4959860000000 1.0
C      1  0.5207630000000  0.5526850000000  0.5243840000000 1.0
C      1  0.4659810000000  0.5127610000000  0.5166190000000 1.0
C      1  0.4727500000000  0.4922240000000  0.4898970000000 1.0
C      1  0.4437960000000  0.5715570000000  0.4684450000000 1.0
C      1  0.4950570000000  0.4416100000000  0.5412200000000 1.0
C      1  0.4942250000000  0.5193650000000  0.4507760000000 1.0
C      1  0.5475250000000  0.5486510000000  0.4880700000000 1.0
C      1  0.5320480000000  0.4774740000000  0.4536240000000 1.0
END
