TITL C-3371504-3437-78 -0.00390614492082245 125000 -938.641975169493 0 0 173 (C1) n - 1
REM
REM in /nfs/bkarasulu/CARBON/AIRSS/Generating-Clusters/AIREBO/with-SteepDescent/Only-C1/SD-CG-opt/Try1-1.4A-POS3A/HFTN-CG
REM
REM
REM
REM
REM
REM ./C.cell (11c1c37f851c82e70ff6c80c92926a4b)
REM
REM compiler GCC version 9.2.1 20190827 (Red Hat 9.2.1-1)
REM options -cpp -mtune=generic -march=x86-64 -g -O0 -fpre-include=/usr/include/finclude/math-vector-fortran.h
REM seed -1302116586 -499662841 1863072344 1063918179 1540407624 753172075 -119189510 -190411683 -373205960 916571885 -1249441747 1547076836 -635219054 -1084104758 1671283373 1192577082 561888233 -793125084 -222442928 1186546818 -1537279060 -638934888 -571573084 -1378943141 -349297720 -1629999587 -282743646 -1709999061 -1911285 1743696618 -840972354 -78438066 977893551
REM
CELL 1.54180   50.00000   50.00000   50.00000   90.00000   90.00000   90.00000
LATT -1
SFAC C  
C      1  0.4596210000000  0.4476160000000  0.5217610000000 1.0
C      1  0.4184230000000  0.5595430000000  0.4390290000000 1.0
C      1  0.4473340000000  0.5191960000000  0.5882640000000 1.0
C      1  0.4782670000000  0.4641510000000  0.3833380000000 1.0
C      1  0.4345040000000  0.5518310000000  0.4663750000000 1.0
C      1  0.5059040000000  0.5064550000000  0.4774430000000 1.0
C      1  0.4022150000000  0.5328030000000  0.5255850000000 1.0
C      1  0.4323890000000  0.5310030000000  0.5088210000000 1.0
C      1  0.5316580000000  0.4512650000000  0.5881710000000 1.0
C      1  0.4803920000000  0.5982020000000  0.5262740000000 1.0
C      1  0.5780020000000  0.5477390000000  0.4886520000000 1.0
C      1  0.4264320000000  0.4935290000000  0.4251490000000 1.0
C      1  0.4282820000000  0.4660480000000  0.4290070000000 1.0
C      1  0.5233090000000  0.5825060000000  0.4706440000000 1.0
C      1  0.4661080000000  0.5072150000000  0.5628010000000 1.0
C      1  0.4141940000000  0.4528400000000  0.4507400000000 1.0
C      1  0.5542030000000  0.4616160000000  0.5648220000000 1.0
C      1  0.4553520000000  0.5482720000000  0.5238010000000 1.0
C      1  0.5585590000000  0.5225380000000  0.4883770000000 1.0
C      1  0.4704380000000  0.4298940000000  0.4279800000000 1.0
C      1  0.5935150000000  0.4703330000000  0.5280320000000 1.0
C      1  0.5536380000000  0.4407110000000  0.5412780000000 1.0
C      1  0.4903790000000  0.5381370000000  0.5805670000000 1.0
C      1  0.4660880000000  0.5171880000000  0.5241660000000 1.0
C      1  0.4547070000000  0.4919530000000  0.4910480000000 1.0
C      1  0.5917750000000  0.5486400000000  0.4593410000000 1.0
C      1  0.5030340000000  0.4724080000000  0.5705170000000 1.0
C      1  0.5297120000000  0.4118780000000  0.5123740000000 1.0
C      1  0.5482060000000  0.4564110000000  0.4450330000000 1.0
C      1  0.4188820000000  0.5652130000000  0.4934730000000 1.0
C      1  0.6023630000000  0.4488330000000  0.4785990000000 1.0
C      1  0.5534650000000  0.5979730000000  0.4977660000000 1.0
C      1  0.5306370000000  0.5108670000000  0.5632250000000 1.0
C      1  0.5006920000000  0.4896050000000  0.5990700000000 1.0
C      1  0.4399060000000  0.4545940000000  0.5558070000000 1.0
C      1  0.5691170000000  0.5340280000000  0.5277580000000 1.0
C      1  0.5497780000000  0.5666270000000  0.4849540000000 1.0
C      1  0.4203930000000  0.5216600000000  0.5741930000000 1.0
C      1  0.4520610000000  0.5298840000000  0.4110560000000 1.0
C      1  0.5365400000000  0.5158360000000  0.5964650000000 1.0
C      1  0.5433100000000  0.4942500000000  0.4122520000000 1.0
C      1  0.6074410000000  0.4725470000000  0.5010570000000 1.0
C      1  0.5792280000000  0.4456280000000  0.4538470000000 1.0
C      1  0.5000580000000  0.4468000000000  0.4267730000000 1.0
C      1  0.5634480000000  0.4114460000000  0.5161300000000 1.0
C      1  0.4563320000000  0.4047550000000  0.4949170000000 1.0
C      1  0.4531650000000  0.6065640000000  0.5074280000000 1.0
C      1  0.5271210000000  0.4252560000000  0.5667400000000 1.0
C      1  0.5193640000000  0.5864780000000  0.5651450000000 1.0
C      1  0.5429590000000  0.4095080000000  0.5436060000000 1.0
C      1  0.6071250000000  0.4992230000000  0.4933860000000 1.0
C      1  0.5254660000000  0.6112210000000  0.4575360000000 1.0
C      1  0.5303450000000  0.5082380000000  0.4538540000000 1.0
C      1  0.5274340000000  0.4489240000000  0.5268080000000 1.0
C      1  0.5799640000000  0.5631240000000  0.4379480000000 1.0
C      1  0.5914690000000  0.5217550000000  0.4507850000000 1.0
C      1  0.5625890000000  0.5048710000000  0.4637040000000 1.0
C      1  0.5298780000000  0.6179760000000  0.4868450000000 1.0
C      1  0.4160300000000  0.5624280000000  0.5273310000000 1.0
C      1  0.4818210000000  0.4437370000000  0.4978620000000 1.0
C      1  0.5125860000000  0.4921180000000  0.4046450000000 1.0
C      1  0.4735590000000  0.5296400000000  0.4757050000000 1.0
C      1  0.5230700000000  0.5608980000000  0.5804000000000 1.0
C      1  0.4757330000000  0.5738660000000  0.4837810000000 1.0
C      1  0.4810100000000  0.4862900000000  0.4729290000000 1.0
C      1  0.5202710000000  0.5203410000000  0.3930040000000 1.0
C      1  0.4553650000000  0.4698460000000  0.4581150000000 1.0
C      1  0.4244820000000  0.5099840000000  0.4512420000000 1.0
C      1  0.5074350000000  0.6027430000000  0.5075230000000 1.0
C      1  0.4901830000000  0.5857290000000  0.5563550000000 1.0
C      1  0.4155810000000  0.5047590000000  0.5194870000000 1.0
C      1  0.5758690000000  0.4947570000000  0.4209510000000 1.0
C      1  0.4037790000000  0.5338490000000  0.4481890000000 1.0
C      1  0.5540710000000  0.4243960000000  0.4442020000000 1.0
C      1  0.4028420000000  0.4923280000000  0.4946930000000 1.0
C      1  0.4420340000000  0.4992350000000  0.5401440000000 1.0
C      1  0.5618360000000  0.4793010000000  0.5365210000000 1.0
C      1  0.4425230000000  0.5208850000000  0.4779740000000 1.0
C      1  0.5303200000000  0.4753100000000  0.4618520000000 1.0
C      1  0.6023110000000  0.5007920000000  0.4656990000000 1.0
C      1  0.4321560000000  0.4286670000000  0.4947830000000 1.0
C      1  0.4672750000000  0.4035290000000  0.4685280000000 1.0
C      1  0.5448770000000  0.5282410000000  0.4132770000000 1.0
C      1  0.4687750000000  0.4828310000000  0.4094370000000 1.0
C      1  0.4691410000000  0.4859730000000  0.5867890000000 1.0
C      1  0.5960670000000  0.5302060000000  0.5568400000000 1.0
C      1  0.5365060000000  0.6045830000000  0.5232350000000 1.0
C      1  0.4919250000000  0.4924260000000  0.4316470000000 1.0
C      1  0.4239330000000  0.4630110000000  0.5307960000000 1.0
C      1  0.5162340000000  0.5298080000000  0.4315540000000 1.0
C      1  0.4480970000000  0.5820190000000  0.4886700000000 1.0
C      1  0.4464260000000  0.5033710000000  0.4084820000000 1.0
C      1  0.4816880000000  0.4041120000000  0.5469070000000 1.0
C      1  0.4967090000000  0.4334760000000  0.5244450000000 1.0
C      1  0.3902850000000  0.4640370000000  0.4996620000000 1.0
C      1  0.5502880000000  0.4644050000000  0.4171700000000 1.0
C      1  0.4270000000000  0.4297440000000  0.4611850000000 1.0
C      1  0.4957330000000  0.4081130000000  0.4214730000000 1.0
C      1  0.5392020000000  0.5889280000000  0.5451720000000 1.0
C      1  0.4791670000000  0.5156360000000  0.5996160000000 1.0
C      1  0.5048470000000  0.3993690000000  0.4997270000000 1.0
C      1  0.5373950000000  0.5184310000000  0.5098330000000 1.0
C      1  0.4987440000000  0.4083900000000  0.4684710000000 1.0
C      1  0.4564100000000  0.5416000000000  0.4424310000000 1.0
C      1  0.4178270000000  0.5399150000000  0.5535880000000 1.0
C      1  0.4890070000000  0.5056370000000  0.5069380000000 1.0
C      1  0.3914210000000  0.5135910000000  0.4725500000000 1.0
C      1  0.5489540000000  0.5595340000000  0.5377030000000 1.0
C      1  0.4025170000000  0.4844450000000  0.4558780000000 1.0
C      1  0.4506980000000  0.4778740000000  0.5171390000000 1.0
C      1  0.5936010000000  0.5035340000000  0.5354000000000 1.0
C      1  0.5169740000000  0.4914860000000  0.5135300000000 1.0
C      1  0.5179370000000  0.5400700000000  0.6003960000000 1.0
C      1  0.5507050000000  0.5075410000000  0.5381920000000 1.0
C      1  0.5115980000000  0.5391670000000  0.4701220000000 1.0
C      1  0.4467180000000  0.5718290000000  0.5758850000000 1.0
C      1  0.5234540000000  0.5486150000000  0.5529540000000 1.0
C      1  0.4719290000000  0.4635300000000  0.5477700000000 1.0
C      1  0.5836100000000  0.5013700000000  0.5677370000000 1.0
C      1  0.5930360000000  0.5242140000000  0.5082790000000 1.0
C      1  0.5023740000000  0.4631240000000  0.4008200000000 1.0
C      1  0.4507600000000  0.5816600000000  0.5284830000000 1.0
C      1  0.4734850000000  0.5652570000000  0.5763300000000 1.0
C      1  0.4746880000000  0.5680360000000  0.4326550000000 1.0
C      1  0.5608030000000  0.5223080000000  0.5739570000000 1.0
C      1  0.5396700000000  0.5486520000000  0.4579130000000 1.0
C      1  0.4957120000000  0.5377810000000  0.5001870000000 1.0
C      1  0.4319660000000  0.5770250000000  0.5535970000000 1.0
C      1  0.4519240000000  0.4180100000000  0.4498970000000 1.0
C      1  0.5260060000000  0.5942530000000  0.4322610000000 1.0
C      1  0.4968930000000  0.4854610000000  0.5403780000000 1.0
C      1  0.4983670000000  0.5153050000000  0.5566390000000 1.0
C      1  0.5003570000000  0.4400470000000  0.4735160000000 1.0
C      1  0.5687060000000  0.5507820000000  0.5639680000000 1.0
C      1  0.5796770000000  0.4413370000000  0.5250990000000 1.0
C      1  0.5777560000000  0.4755620000000  0.5768090000000 1.0
C      1  0.4379930000000  0.4257570000000  0.5281610000000 1.0
C      1  0.4950050000000  0.5670280000000  0.4598980000000 1.0
C      1  0.4703080000000  0.4491440000000  0.6017720000000 1.0
C      1  0.5079910000000  0.4471310000000  0.5518530000000 1.0
C      1  0.5335540000000  0.4834770000000  0.5927580000000 1.0
C      1  0.4972950000000  0.4452290000000  0.5901300000000 1.0
C      1  0.3933410000000  0.5465440000000  0.4808130000000 1.0
C      1  0.5818560000000  0.4771460000000  0.4413460000000 1.0
C      1  0.4285840000000  0.4795740000000  0.4766810000000 1.0
C      1  0.4093740000000  0.4481650000000  0.5108210000000 1.0
C      1  0.5777850000000  0.4791740000000  0.4750510000000 1.0
C      1  0.4808870000000  0.5601200000000  0.5380650000000 1.0
C      1  0.5317340000000  0.5524490000000  0.5092450000000 1.0
C      1  0.5188540000000  0.5634450000000  0.4358470000000 1.0
C      1  0.4978110000000  0.4155090000000  0.5741250000000 1.0
C      1  0.5035970000000  0.5707020000000  0.5033660000000 1.0
C      1  0.4548320000000  0.4501070000000  0.4825180000000 1.0
C      1  0.5618330000000  0.4702380000000  0.5036310000000 1.0
C      1  0.4406560000000  0.4206570000000  0.5577680000000 1.0
C      1  0.5325060000000  0.4087700000000  0.4646370000000 1.0
C      1  0.4854190000000  0.5233200000000  0.4444440000000 1.0
C      1  0.5748320000000  0.4419680000000  0.4932470000000 1.0
C      1  0.5902710000000  0.5583300000000  0.5386320000000 1.0
C      1  0.5324120000000  0.4714330000000  0.4942850000000 1.0
C      1  0.4277110000000  0.4900050000000  0.5695710000000 1.0
C      1  0.5000170000000  0.4669720000000  0.4527170000000 1.0
C      1  0.5563150000000  0.5510760000000  0.4311670000000 1.0
C      1  0.4721210000000  0.4325450000000  0.5617820000000 1.0
C      1  0.5230570000000  0.4405760000000  0.4953320000000 1.0
C      1  0.4590540000000  0.4591690000000  0.4290930000000 1.0
C      1  0.4453740000000  0.4658320000000  0.5857250000000 1.0
C      1  0.5564110000000  0.4177260000000  0.4834620000000 1.0
C      1  0.4987260000000  0.5382590000000  0.4031330000000 1.0
C      1  0.5004170000000  0.5386790000000  0.5338650000000 1.0
C      1  0.5209760000000  0.4213220000000  0.4352130000000 1.0
C      1  0.4786950000000  0.4058720000000  0.5160720000000 1.0
C      1  0.4745040000000  0.5498570000000  0.4079520000000 1.0
END
