TITL C-3371505-1292-79 -0.00120800754591424 125000 -595.023797343724 0 0 109 (C1) n - 1
REM
REM in /nfs/bkarasulu/CARBON/AIRSS/Generating-Clusters/AIREBO/with-SteepDescent/Only-C1/SD-CG-opt/Try1-1.4A-POS3A/HFTN-CG
REM
REM
REM
REM
REM
REM ./C.cell (11c1c37f851c82e70ff6c80c92926a4b)
REM
REM compiler GCC version 9.2.1 20190827 (Red Hat 9.2.1-1)
REM options -cpp -mtune=generic -march=x86-64 -g -O0 -fpre-include=/usr/include/finclude/math-vector-fortran.h
REM seed -31413300 -396775191 -33756589 -1689031854 1866203702 -179134335 1021378088 1496071726 1921732073 340316789 138997233 1681314955 -2028433605 1308094624 -1432440856 1469652796 1035530059 1647002814 -581661138 -904483916 419536792 -1712092689 2141627217 -1122546541 846088366 -887004986 1896460867 497465869 -1702041419 409304844 1793988951 418965849 232130312
REM
CELL 1.54180   50.00000   50.00000   50.00000   90.00000   90.00000   90.00000
LATT -1
SFAC C  
C      1  0.4553440000000  0.5783320000000  0.4913670000000 1.0
C      1  0.5044180000000  0.4681220000000  0.4271260000000 1.0
C      1  0.4393870000000  0.4937690000000  0.4366540000000 1.0
C      1  0.5397760000000  0.5570760000000  0.5265820000000 1.0
C      1  0.5670850000000  0.5485200000000  0.4487990000000 1.0
C      1  0.4776240000000  0.4761280000000  0.5458780000000 1.0
C      1  0.4773010000000  0.5912050000000  0.5062190000000 1.0
C      1  0.5156200000000  0.4418660000000  0.5437370000000 1.0
C      1  0.5057510000000  0.5019980000000  0.4598740000000 1.0
C      1  0.5519640000000  0.4866660000000  0.5642100000000 1.0
C      1  0.4923330000000  0.4600650000000  0.4551790000000 1.0
C      1  0.5268270000000  0.4254960000000  0.4673720000000 1.0
C      1  0.4590780000000  0.4889010000000  0.5235640000000 1.0
C      1  0.5839470000000  0.4995470000000  0.4989650000000 1.0
C      1  0.5579830000000  0.4454360000000  0.5042820000000 1.0
C      1  0.5148720000000  0.4527240000000  0.4794530000000 1.0
C      1  0.5323030000000  0.4887590000000  0.4469490000000 1.0
C      1  0.5408120000000  0.5885620000000  0.4828650000000 1.0
C      1  0.5193840000000  0.5718700000000  0.4636500000000 1.0
C      1  0.4766710000000  0.5176380000000  0.4733090000000 1.0
C      1  0.4431740000000  0.5118140000000  0.4737530000000 1.0
C      1  0.4571440000000  0.4513670000000  0.5547410000000 1.0
C      1  0.5512210000000  0.4416440000000  0.5333230000000 1.0
C      1  0.5324880000000  0.5718720000000  0.5720870000000 1.0
C      1  0.5316480000000  0.4167700000000  0.5338580000000 1.0
C      1  0.4395060000000  0.5403350000000  0.4555810000000 1.0
C      1  0.4881950000000  0.4584290000000  0.4947410000000 1.0
C      1  0.5603890000000  0.5333100000000  0.5261620000000 1.0
C      1  0.4755340000000  0.4566240000000  0.5813460000000 1.0
C      1  0.4404120000000  0.4566730000000  0.5092650000000 1.0
C      1  0.4660870000000  0.5467920000000  0.4845930000000 1.0
C      1  0.4665370000000  0.5714060000000  0.5770240000000 1.0
C      1  0.5324470000000  0.5373870000000  0.5736500000000 1.0
C      1  0.5837880000000  0.4755750000000  0.5204800000000 1.0
C      1  0.5232510000000  0.4015820000000  0.5131170000000 1.0
C      1  0.4537630000000  0.5106760000000  0.5674100000000 1.0
C      1  0.4219600000000  0.5206930000000  0.5343630000000 1.0
C      1  0.5156160000000  0.5469090000000  0.5463850000000 1.0
C      1  0.4874090000000  0.4853450000000  0.5083980000000 1.0
C      1  0.5015130000000  0.5278140000000  0.5824850000000 1.0
C      1  0.5045660000000  0.4144270000000  0.4909030000000 1.0
C      1  0.5725180000000  0.4909050000000  0.4745970000000 1.0
C      1  0.4355930000000  0.5668740000000  0.4685120000000 1.0
C      1  0.5720580000000  0.5375140000000  0.4786500000000 1.0
C      1  0.5487100000000  0.5065370000000  0.4230510000000 1.0
C      1  0.4978420000000  0.5810020000000  0.4873370000000 1.0
C      1  0.5254900000000  0.5675630000000  0.5027140000000 1.0
C      1  0.5238620000000  0.5530460000000  0.4287000000000 1.0
C      1  0.4823030000000  0.5411810000000  0.5139470000000 1.0
C      1  0.4598030000000  0.5483970000000  0.5366000000000 1.0
C      1  0.4435380000000  0.5295640000000  0.5496190000000 1.0
C      1  0.4117530000000  0.4809780000000  0.4971040000000 1.0
C      1  0.4350430000000  0.5370640000000  0.4950220000000 1.0
C      1  0.4627780000000  0.5730770000000  0.5490020000000 1.0
C      1  0.4619950000000  0.4463840000000  0.4773100000000 1.0
C      1  0.5422710000000  0.5505990000000  0.4706580000000 1.0
C      1  0.5061250000000  0.5416580000000  0.4553920000000 1.0
C      1  0.4802340000000  0.5634880000000  0.4585350000000 1.0
C      1  0.4224590000000  0.4862240000000  0.4652320000000 1.0
C      1  0.4523370000000  0.4044240000000  0.5137840000000 1.0
C      1  0.4423530000000  0.4272850000000  0.4935320000000 1.0
C      1  0.4972550000000  0.5700220000000  0.4292580000000 1.0
C      1  0.4130230000000  0.4648530000000  0.5275500000000 1.0
C      1  0.5422400000000  0.4953990000000  0.4748370000000 1.0
C      1  0.5016010000000  0.5749420000000  0.5581620000000 1.0
C      1  0.5796340000000  0.4451780000000  0.4708850000000 1.0
C      1  0.5102890000000  0.5021150000000  0.5254240000000 1.0
C      1  0.5491580000000  0.5780470000000  0.5492260000000 1.0
C      1  0.4792920000000  0.4078880000000  0.4437440000000 1.0
C      1  0.5295530000000  0.4295390000000  0.4360690000000 1.0
C      1  0.5565300000000  0.4739290000000  0.4297010000000 1.0
C      1  0.4902230000000  0.5545670000000  0.5829010000000 1.0
C      1  0.5227900000000  0.4594900000000  0.5646230000000 1.0
C      1  0.4822960000000  0.5897650000000  0.5341580000000 1.0
C      1  0.4545280000000  0.4671730000000  0.4282170000000 1.0
C      1  0.5915450000000  0.4506950000000  0.4995190000000 1.0
C      1  0.4351520000000  0.4896770000000  0.5730280000000 1.0
C      1  0.5484860000000  0.5391430000000  0.4279360000000 1.0
C      1  0.4804930000000  0.4232050000000  0.5105310000000 1.0
C      1  0.4870430000000  0.4279780000000  0.4651040000000 1.0
C      1  0.4868180000000  0.5042990000000  0.5625870000000 1.0
C      1  0.5766100000000  0.5267530000000  0.5041470000000 1.0
C      1  0.4507240000000  0.4845980000000  0.4927140000000 1.0
C      1  0.5558410000000  0.4264400000000  0.4771640000000 1.0
C      1  0.5666910000000  0.4637130000000  0.5473820000000 1.0
C      1  0.5755210000000  0.4692380000000  0.4562630000000 1.0
C      1  0.4550940000000  0.4339000000000  0.5305070000000 1.0
C      1  0.4443150000000  0.4611490000000  0.4577380000000 1.0
C      1  0.5519660000000  0.5193990000000  0.5552300000000 1.0
C      1  0.5056400000000  0.5437770000000  0.4893410000000 1.0
C      1  0.4788470000000  0.4907740000000  0.4310560000000 1.0
C      1  0.4279400000000  0.4940750000000  0.5239890000000 1.0
C      1  0.5362570000000  0.4963330000000  0.5365070000000 1.0
C      1  0.5374610000000  0.4689310000000  0.4911870000000 1.0
C      1  0.5315340000000  0.5229800000000  0.4820530000000 1.0
C      1  0.4912440000000  0.4505440000000  0.5277010000000 1.0
C      1  0.4662690000000  0.5380920000000  0.4407550000000 1.0
C      1  0.4557200000000  0.5157740000000  0.4260200000000 1.0
C      1  0.4162800000000  0.5379230000000  0.5134360000000 1.0
C      1  0.4995050000000  0.5180930000000  0.4317690000000 1.0
C      1  0.5081130000000  0.5042060000000  0.4937250000000 1.0
C      1  0.5296750000000  0.4551030000000  0.4256290000000 1.0
C      1  0.4313610000000  0.4685180000000  0.5559690000000 1.0
C      1  0.5317280000000  0.4797130000000  0.5878040000000 1.0
C      1  0.4991260000000  0.4776840000000  0.5798090000000 1.0
C      1  0.5519330000000  0.4829410000000  0.5158000000000 1.0
C      1  0.4764680000000  0.4853470000000  0.4645360000000 1.0
C      1  0.4960780000000  0.5257080000000  0.5378330000000 1.0
C      1  0.5199190000000  0.5165040000000  0.4114790000000 1.0
END
