TITL C-3371503-4580-15 0.00456105106549341 125000 -518.71813577825 0 0 96 (C1) n - 1
REM
REM in /nfs/bkarasulu/CARBON/AIRSS/Generating-Clusters/AIREBO/with-SteepDescent/Only-C1/SD-CG-opt/Try1-1.4A-POS3A/HFTN-CG
REM
REM
REM
REM
REM
REM ./C.cell (11c1c37f851c82e70ff6c80c92926a4b)
REM
REM compiler GCC version 9.2.1 20190827 (Red Hat 9.2.1-1)
REM options -cpp -mtune=generic -march=x86-64 -g -O0 -fpre-include=/usr/include/finclude/math-vector-fortran.h
REM seed 1242662512 -1940546598 -514738998 -802284598 1816835328 -1849930044 -423511101 -48258734 451490018 -1316902784 -2107863648 -2051297204 -190575305 19123172 2000881049 720947155 1052562222 -113955708 525863218 -1591112512 1887678780 -1390598520 205995038 609622082 -2018394828 1815645298 -809560345 1443811678 173001728 -1851992453 1486633877 150511255 946613971
REM
CELL 1.54180   50.00000   50.00000   50.00000   90.00000   90.00000   90.00000
LATT -1
SFAC C  
C      1  0.4773040000000  0.4703170000000  0.5798420000000 1.0
C      1  0.5278650000000  0.4721280000000  0.5639610000000 1.0
C      1  0.4969560000000  0.5802250000000  0.5002740000000 1.0
C      1  0.4827790000000  0.5146130000000  0.4380530000000 1.0
C      1  0.5661080000000  0.5113030000000  0.4366900000000 1.0
C      1  0.4784360000000  0.4829990000000  0.5125620000000 1.0
C      1  0.5549820000000  0.5179620000000  0.5606390000000 1.0
C      1  0.4431500000000  0.5463210000000  0.4616380000000 1.0
C      1  0.4258190000000  0.5384890000000  0.4846330000000 1.0
C      1  0.5375970000000  0.4361240000000  0.4732550000000 1.0
C      1  0.5567870000000  0.5129370000000  0.4693490000000 1.0
C      1  0.5720370000000  0.5446380000000  0.5119880000000 1.0
C      1  0.4111390000000  0.5377870000000  0.5299030000000 1.0
C      1  0.4646790000000  0.4119460000000  0.4717800000000 1.0
C      1  0.5085440000000  0.5888910000000  0.4719210000000 1.0
C      1  0.5054780000000  0.5436080000000  0.4650120000000 1.0
C      1  0.5066000000000  0.4657210000000  0.5016810000000 1.0
C      1  0.4547200000000  0.4757780000000  0.4397910000000 1.0
C      1  0.5126850000000  0.5695530000000  0.5231350000000 1.0
C      1  0.4602330000000  0.5670420000000  0.4688390000000 1.0
C      1  0.4694760000000  0.4446020000000  0.4963280000000 1.0
C      1  0.5685020000000  0.5365280000000  0.4818900000000 1.0
C      1  0.5064720000000  0.5222380000000  0.3928730000000 1.0
C      1  0.4376380000000  0.4985670000000  0.4512690000000 1.0
C      1  0.4867490000000  0.5681430000000  0.4560710000000 1.0
C      1  0.4733850000000  0.5092660000000  0.4915580000000 1.0
C      1  0.4427880000000  0.5321300000000  0.5294390000000 1.0
C      1  0.4443460000000  0.4324530000000  0.4682580000000 1.0
C      1  0.5487930000000  0.5246900000000  0.5145050000000 1.0
C      1  0.5784940000000  0.4557990000000  0.5035680000000 1.0
C      1  0.5024640000000  0.4393350000000  0.4254000000000 1.0
C      1  0.5222010000000  0.5267720000000  0.5573510000000 1.0
C      1  0.5199700000000  0.4959160000000  0.5432300000000 1.0
C      1  0.4954850000000  0.5145890000000  0.4673350000000 1.0
C      1  0.4315290000000  0.4616320000000  0.5210550000000 1.0
C      1  0.5549010000000  0.4462860000000  0.5216550000000 1.0
C      1  0.5515630000000  0.4553650000000  0.4488630000000 1.0
C      1  0.5246260000000  0.5730520000000  0.4460670000000 1.0
C      1  0.5599190000000  0.4813970000000  0.4774540000000 1.0
C      1  0.5548340000000  0.4592880000000  0.5504510000000 1.0
C      1  0.5238070000000  0.4399560000000  0.5542340000000 1.0
C      1  0.4095180000000  0.4998450000000  0.5020570000000 1.0
C      1  0.4572680000000  0.5014480000000  0.5317910000000 1.0
C      1  0.4779780000000  0.4857000000000  0.4286160000000 1.0
C      1  0.4521480000000  0.5251410000000  0.4454080000000 1.0
C      1  0.4174790000000  0.4911410000000  0.4765520000000 1.0
C      1  0.4596630000000  0.4552940000000  0.4571800000000 1.0
C      1  0.4541700000000  0.4812950000000  0.5590120000000 1.0
C      1  0.5744600000000  0.4509030000000  0.4736070000000 1.0
C      1  0.5235090000000  0.5311500000000  0.5246730000000 1.0
C      1  0.5900360000000  0.4960580000000  0.4833960000000 1.0
C      1  0.4992580000000  0.4684770000000  0.4305980000000 1.0
C      1  0.4705040000000  0.4382450000000  0.5428780000000 1.0
C      1  0.4781640000000  0.4281580000000  0.5185690000000 1.0
C      1  0.4268200000000  0.4896250000000  0.5222780000000 1.0
C      1  0.5558060000000  0.4949330000000  0.5184030000000 1.0
C      1  0.5231600000000  0.4945680000000  0.5088060000000 1.0
C      1  0.5338280000000  0.5206380000000  0.4372690000000 1.0
C      1  0.5063650000000  0.5289630000000  0.4227270000000 1.0
C      1  0.4938400000000  0.5508770000000  0.5428440000000 1.0
C      1  0.5254510000000  0.5012110000000  0.4754980000000 1.0
C      1  0.5370780000000  0.4226110000000  0.5049840000000 1.0
C      1  0.4696750000000  0.5668570000000  0.4992810000000 1.0
C      1  0.5247640000000  0.5604750000000  0.5535960000000 1.0
C      1  0.4581510000000  0.5054270000000  0.5802510000000 1.0
C      1  0.4475960000000  0.4547960000000  0.5430450000000 1.0
C      1  0.4581750000000  0.5616300000000  0.5282700000000 1.0
C      1  0.5428640000000  0.4875910000000  0.4421700000000 1.0
C      1  0.4505910000000  0.4865370000000  0.4802450000000 1.0
C      1  0.5396080000000  0.4609940000000  0.4949200000000 1.0
C      1  0.5009050000000  0.4725610000000  0.5344990000000 1.0
C      1  0.4933450000000  0.4531950000000  0.5570420000000 1.0
C      1  0.5408130000000  0.5932050000000  0.4761340000000 1.0
C      1  0.5499910000000  0.5641790000000  0.4854680000000 1.0
C      1  0.5095590000000  0.4418780000000  0.4585580000000 1.0
C      1  0.5370670000000  0.5462590000000  0.4595980000000 1.0
C      1  0.5288130000000  0.4192870000000  0.5353870000000 1.0
C      1  0.4555880000000  0.5358800000000  0.4981640000000 1.0
C      1  0.4823390000000  0.4971900000000  0.6005630000000 1.0
C      1  0.4646190000000  0.5508950000000  0.5571100000000 1.0
C      1  0.5066740000000  0.4317110000000  0.5020490000000 1.0
C      1  0.4550890000000  0.5314620000000  0.5741250000000 1.0
C      1  0.4983190000000  0.5173800000000  0.5132110000000 1.0
C      1  0.5592530000000  0.4919420000000  0.5492070000000 1.0
C      1  0.5024650000000  0.5592150000000  0.4277100000000 1.0
C      1  0.5084880000000  0.4832450000000  0.5838900000000 1.0
C      1  0.5451740000000  0.5641240000000  0.5194000000000 1.0
C      1  0.5832840000000  0.4833570000000  0.5093310000000 1.0
C      1  0.5549970000000  0.5469870000000  0.5471250000000 1.0
C      1  0.4968590000000  0.5132440000000  0.5742210000000 1.0
C      1  0.4909710000000  0.4185570000000  0.4749080000000 1.0
C      1  0.4840230000000  0.5184980000000  0.5440570000000 1.0
C      1  0.5174770000000  0.4749320000000  0.4554310000000 1.0
C      1  0.4066090000000  0.5280620000000  0.5025620000000 1.0
C      1  0.4864110000000  0.4595850000000  0.4750010000000 1.0
C      1  0.4411030000000  0.4561920000000  0.4925260000000 1.0
END
