TITL C-3371500-4992-4 4.28490382777541e-05 125000 -642.907337550192 0 0 120 (C1) n - 1
REM
REM in /nfs/bkarasulu/CARBON/AIRSS/Generating-Clusters/AIREBO/with-SteepDescent/Only-C1/SD-CG-opt/Try1-1.4A-POS3A/HFTN-CG
REM
REM
REM
REM
REM
REM ./C.cell (11c1c37f851c82e70ff6c80c92926a4b)
REM
REM compiler GCC version 9.2.1 20190827 (Red Hat 9.2.1-1)
REM options -cpp -mtune=generic -march=x86-64 -g -O0 -fpre-include=/usr/include/finclude/math-vector-fortran.h
REM seed 889881209 -1811862776 450222889 -787002356 2078166581 1032870792 929594660 653123841 -372782627 -1202584430 1138108842 731815848 902968552 2091883630 -2005659886 -397077105 -845193954 870877862 192095329 -1688419612 -2145765039 -2014258021 173500855 -2024101289 -1762777993 -1006339684 1445940590 308485680 -1615987159 -1405401101 90057795 1081276658 -207063641
REM
CELL 1.54180   50.00000   50.00000   50.00000   90.00000   90.00000   90.00000
LATT -1
SFAC C  
C      1  0.5251990000000  0.4854910000000  0.5438480000000 1.0
C      1  0.5112930000000  0.5197080000000  0.5927120000000 1.0
C      1  0.5407080000000  0.4952180000000  0.4116020000000 1.0
C      1  0.5067690000000  0.4934470000000  0.6017320000000 1.0
C      1  0.5245970000000  0.5870440000000  0.5481670000000 1.0
C      1  0.5867520000000  0.4748330000000  0.5217920000000 1.0
C      1  0.4874350000000  0.4398750000000  0.5579370000000 1.0
C      1  0.4860300000000  0.4762570000000  0.5926760000000 1.0
C      1  0.4422260000000  0.5316750000000  0.4384130000000 1.0
C      1  0.4507030000000  0.4572230000000  0.5040120000000 1.0
C      1  0.4949210000000  0.4197190000000  0.5314620000000 1.0
C      1  0.5259310000000  0.5922060000000  0.4976920000000 1.0
C      1  0.4992920000000  0.4841210000000  0.4694190000000 1.0
C      1  0.4167060000000  0.5497010000000  0.5159440000000 1.0
C      1  0.5582130000000  0.4772970000000  0.4348560000000 1.0
C      1  0.4149280000000  0.4761790000000  0.5547100000000 1.0
C      1  0.5285780000000  0.4711590000000  0.4607660000000 1.0
C      1  0.5309690000000  0.4886490000000  0.5049710000000 1.0
C      1  0.5362890000000  0.5207070000000  0.4949690000000 1.0
C      1  0.5410900000000  0.5880310000000  0.4443450000000 1.0
C      1  0.4887480000000  0.4320550000000  0.4921730000000 1.0
C      1  0.4165130000000  0.4973060000000  0.5055240000000 1.0
C      1  0.4425840000000  0.4263970000000  0.5381710000000 1.0
C      1  0.4899230000000  0.4484160000000  0.5873510000000 1.0
C      1  0.4465690000000  0.5290400000000  0.4870580000000 1.0
C      1  0.5650900000000  0.5634550000000  0.5602490000000 1.0
C      1  0.5515840000000  0.5431020000000  0.4322580000000 1.0
C      1  0.5543860000000  0.4851450000000  0.5263920000000 1.0
C      1  0.4318110000000  0.5202170000000  0.4641780000000 1.0
C      1  0.4491930000000  0.5530660000000  0.5064930000000 1.0
C      1  0.5347090000000  0.4407480000000  0.5377400000000 1.0
C      1  0.4731910000000  0.5707950000000  0.4978180000000 1.0
C      1  0.5031530000000  0.4980620000000  0.5205680000000 1.0
C      1  0.4464660000000  0.4242360000000  0.4373130000000 1.0
C      1  0.5084550000000  0.5058670000000  0.4068060000000 1.0
C      1  0.3963510000000  0.4714800000000  0.4620760000000 1.0
C      1  0.4435060000000  0.5781130000000  0.4714260000000 1.0
C      1  0.4937670000000  0.4294750000000  0.6068340000000 1.0
C      1  0.4808920000000  0.5622740000000  0.5548900000000 1.0
C      1  0.5423060000000  0.4488510000000  0.4446040000000 1.0
C      1  0.5263920000000  0.4635450000000  0.4902120000000 1.0
C      1  0.4373120000000  0.5789890000000  0.5250150000000 1.0
C      1  0.5384790000000  0.5595790000000  0.4587440000000 1.0
C      1  0.4754390000000  0.5437640000000  0.5812430000000 1.0
C      1  0.4685120000000  0.5168430000000  0.5737180000000 1.0
C      1  0.5180160000000  0.5934510000000  0.4295830000000 1.0
C      1  0.5340290000000  0.4174390000000  0.5149210000000 1.0
C      1  0.4951370000000  0.5801990000000  0.4361160000000 1.0
C      1  0.4756510000000  0.4405720000000  0.4692500000000 1.0
C      1  0.4747830000000  0.5236560000000  0.4593220000000 1.0
C      1  0.4351370000000  0.5336650000000  0.5476120000000 1.0
C      1  0.4721340000000  0.4212130000000  0.4490680000000 1.0
C      1  0.5150270000000  0.4389510000000  0.4971250000000 1.0
C      1  0.4370860000000  0.5887800000000  0.4933860000000 1.0
C      1  0.5708750000000  0.5028430000000  0.4534000000000 1.0
C      1  0.4600830000000  0.5133250000000  0.4223260000000 1.0
C      1  0.4810000000000  0.4657620000000  0.5285990000000 1.0
C      1  0.5774030000000  0.5061030000000  0.5137840000000 1.0
C      1  0.4886590000000  0.5814250000000  0.5206780000000 1.0
C      1  0.4438600000000  0.4738180000000  0.5646500000000 1.0
C      1  0.5327970000000  0.5048900000000  0.4650570000000 1.0
C      1  0.5198400000000  0.5020360000000  0.4370330000000 1.0
C      1  0.4832290000000  0.5768750000000  0.4671080000000 1.0
C      1  0.5856770000000  0.4920540000000  0.5503050000000 1.0
C      1  0.5933770000000  0.4565080000000  0.4995970000000 1.0
C      1  0.5404960000000  0.5131460000000  0.5511650000000 1.0
C      1  0.4298950000000  0.4653150000000  0.4629660000000 1.0
C      1  0.4670410000000  0.4307620000000  0.5153960000000 1.0
C      1  0.4600700000000  0.4676630000000  0.4260950000000 1.0
C      1  0.4394360000000  0.4516660000000  0.4363390000000 1.0
C      1  0.5875790000000  0.4752860000000  0.4522260000000 1.0
C      1  0.4948100000000  0.4838270000000  0.4371370000000 1.0
C      1  0.4473960000000  0.4876440000000  0.5144560000000 1.0
C      1  0.5008750000000  0.3970470000000  0.5066820000000 1.0
C      1  0.5640900000000  0.6025840000000  0.4461550000000 1.0
C      1  0.5095030000000  0.5412210000000  0.5001040000000 1.0
C      1  0.5076100000000  0.4413270000000  0.4245830000000 1.0
C      1  0.4085930000000  0.4786950000000  0.5306410000000 1.0
C      1  0.5173030000000  0.5331450000000  0.4617190000000 1.0
C      1  0.6043560000000  0.5230570000000  0.5200610000000 1.0
C      1  0.4958540000000  0.4152420000000  0.4357340000000 1.0
C      1  0.4948680000000  0.4111670000000  0.6255540000000 1.0
C      1  0.4834100000000  0.4813630000000  0.4984690000000 1.0
C      1  0.5709390000000  0.5381560000000  0.5044530000000 1.0
C      1  0.5480550000000  0.5305180000000  0.5256950000000 1.0
C      1  0.4627980000000  0.4893440000000  0.5425950000000 1.0
C      1  0.4857160000000  0.5143690000000  0.5447930000000 1.0
C      1  0.5110650000000  0.4575490000000  0.5425400000000 1.0
C      1  0.4954770000000  0.5423550000000  0.6017950000000 1.0
C      1  0.5181220000000  0.3951250000000  0.5350590000000 1.0
C      1  0.5626030000000  0.5558670000000  0.4809070000000 1.0
C      1  0.5253020000000  0.4021160000000  0.4856250000000 1.0
C      1  0.5576210000000  0.5167980000000  0.4290390000000 1.0
C      1  0.4564370000000  0.5815970000000  0.5482610000000 1.0
C      1  0.5679430000000  0.5044500000000  0.5627970000000 1.0
C      1  0.5134100000000  0.5244510000000  0.5621050000000 1.0
C      1  0.4652550000000  0.4927260000000  0.4488920000000 1.0
C      1  0.5297820000000  0.4186040000000  0.4344000000000 1.0
C      1  0.5449050000000  0.5527390000000  0.5475850000000 1.0
C      1  0.5133990000000  0.5941230000000  0.5230380000000 1.0
C      1  0.4826570000000  0.5139870000000  0.4038440000000 1.0
C      1  0.4635850000000  0.4903630000000  0.5825910000000 1.0
C      1  0.5135550000000  0.5684280000000  0.4801190000000 1.0
C      1  0.4066970000000  0.5258930000000  0.5144450000000 1.0
C      1  0.4897150000000  0.4600480000000  0.4177060000000 1.0
C      1  0.4662860000000  0.5096710000000  0.4967980000000 1.0
C      1  0.4725510000000  0.6056730000000  0.4674750000000 1.0
C      1  0.5830670000000  0.4306630000000  0.4999810000000 1.0
C      1  0.5593800000000  0.4210670000000  0.4929710000000 1.0
C      1  0.4622470000000  0.5354030000000  0.5320180000000 1.0
C      1  0.5143020000000  0.5564990000000  0.5576010000000 1.0
C      1  0.5996200000000  0.4662810000000  0.4740660000000 1.0
C      1  0.5661500000000  0.5172930000000  0.4790400000000 1.0
C      1  0.4918480000000  0.5488980000000  0.5255960000000 1.0
C      1  0.4612540000000  0.5530350000000  0.4568520000000 1.0
C      1  0.4612930000000  0.4709610000000  0.4747580000000 1.0
C      1  0.4964200000000  0.5155700000000  0.4820210000000 1.0
C      1  0.4586100000000  0.4503070000000  0.5490410000000 1.0
C      1  0.5436740000000  0.4210830000000  0.4641980000000 1.0
C      1  0.4173150000000  0.4949100000000  0.4740170000000 1.0
END
