TITL C-3371499-8025-84 -0.000640623354195927 125000 -639.48861394977 0 0 116 (C1) n - 1
REM
REM in /nfs/bkarasulu/CARBON/AIRSS/Generating-Clusters/AIREBO/with-SteepDescent/Only-C1/SD-CG-opt/Try1-1.4A-POS3A/HFTN-CG
REM
REM
REM
REM
REM
REM ./C.cell (11c1c37f851c82e70ff6c80c92926a4b)
REM
REM compiler GCC version 9.2.1 20190827 (Red Hat 9.2.1-1)
REM options -cpp -mtune=generic -march=x86-64 -g -O0 -fpre-include=/usr/include/finclude/math-vector-fortran.h
REM seed 1974461492 -1347314080 -332717306 -865802587 -1163402209 -486753266 -1202336821 2036951849 -975124740 -1142969825 -281396858 -1392476025 217582254 116630601 -1767808417 586194084 262779091 269833723 -549050135 -424166944 -774843633 -571535471 -1018719906 -581176190 488852182 1397481037 1013099359 1606643674 623014398 617041076 -1291109231 1724448950 555202888
REM
CELL 1.54180   50.00000   50.00000   50.00000   90.00000   90.00000   90.00000
LATT -1
SFAC C  
C      1  0.4622490000000  0.5527080000000  0.5982830000000 1.0
C      1  0.5837460000000  0.5229160000000  0.5392850000000 1.0
C      1  0.5944020000000  0.4749770000000  0.4879280000000 1.0
C      1  0.4735600000000  0.4778170000000  0.4071470000000 1.0
C      1  0.4121700000000  0.5219510000000  0.4783380000000 1.0
C      1  0.5308290000000  0.5668730000000  0.4440740000000 1.0
C      1  0.5787490000000  0.5691830000000  0.4827490000000 1.0
C      1  0.5281290000000  0.5543560000000  0.4895400000000 1.0
C      1  0.5187570000000  0.5095390000000  0.5035690000000 1.0
C      1  0.5779770000000  0.4628200000000  0.4147560000000 1.0
C      1  0.5116470000000  0.5398380000000  0.5491650000000 1.0
C      1  0.4571320000000  0.5162920000000  0.4997860000000 1.0
C      1  0.4910790000000  0.4903400000000  0.4407440000000 1.0
C      1  0.5541200000000  0.5141940000000  0.5282800000000 1.0
C      1  0.4227820000000  0.5256390000000  0.4320860000000 1.0
C      1  0.4752130000000  0.5505210000000  0.5117610000000 1.0
C      1  0.4408400000000  0.4436750000000  0.4416740000000 1.0
C      1  0.4730250000000  0.4599310000000  0.4871470000000 1.0
C      1  0.4239490000000  0.4626310000000  0.4898990000000 1.0
C      1  0.4574740000000  0.5920960000000  0.5161230000000 1.0
C      1  0.4313110000000  0.4463490000000  0.5510190000000 1.0
C      1  0.4629620000000  0.4873970000000  0.5576830000000 1.0
C      1  0.4986070000000  0.5502100000000  0.4870770000000 1.0
C      1  0.4148390000000  0.4710300000000  0.5371650000000 1.0
C      1  0.4363970000000  0.5534340000000  0.5527630000000 1.0
C      1  0.5529460000000  0.5598020000000  0.4669190000000 1.0
C      1  0.4239670000000  0.5373000000000  0.4584670000000 1.0
C      1  0.4597350000000  0.5718250000000  0.4902330000000 1.0
C      1  0.4321190000000  0.4570060000000  0.4202160000000 1.0
C      1  0.5081580000000  0.4855490000000  0.5375540000000 1.0
C      1  0.4352160000000  0.4494270000000  0.5173740000000 1.0
C      1  0.4488390000000  0.5576210000000  0.4612760000000 1.0
C      1  0.4661610000000  0.4669630000000  0.5759370000000 1.0
C      1  0.5545800000000  0.4023720000000  0.5406960000000 1.0
C      1  0.5255890000000  0.4339390000000  0.4292020000000 1.0
C      1  0.3965710000000  0.4512590000000  0.4823420000000 1.0
C      1  0.4897370000000  0.5296670000000  0.4451850000000 1.0
C      1  0.4653830000000  0.5496090000000  0.4323000000000 1.0
C      1  0.5604980000000  0.5915690000000  0.4900070000000 1.0
C      1  0.4992030000000  0.4200940000000  0.5089900000000 1.0
C      1  0.4479250000000  0.5359650000000  0.5259460000000 1.0
C      1  0.4744310000000  0.5446470000000  0.5613940000000 1.0
C      1  0.5562870000000  0.4816390000000  0.5237140000000 1.0
C      1  0.5437440000000  0.5280300000000  0.5000740000000 1.0
C      1  0.5529560000000  0.4488300000000  0.5587150000000 1.0
C      1  0.6058470000000  0.5045440000000  0.5252250000000 1.0
C      1  0.5747230000000  0.4686700000000  0.4412760000000 1.0
C      1  0.4827920000000  0.5592920000000  0.4603680000000 1.0
C      1  0.5631460000000  0.5385250000000  0.6032340000000 1.0
C      1  0.4870670000000  0.4729160000000  0.5931360000000 1.0
C      1  0.4643940000000  0.5066220000000  0.4455390000000 1.0
C      1  0.4905250000000  0.4185370000000  0.4604860000000 1.0
C      1  0.5671430000000  0.5092660000000  0.5636720000000 1.0
C      1  0.5588160000000  0.4772350000000  0.5557570000000 1.0
C      1  0.5171660000000  0.4689810000000  0.5954730000000 1.0
C      1  0.4404550000000  0.5537690000000  0.5801970000000 1.0
C      1  0.4841890000000  0.5032840000000  0.3992000000000 1.0
C      1  0.5204780000000  0.5300570000000  0.5801530000000 1.0
C      1  0.5439470000000  0.4685000000000  0.4815660000000 1.0
C      1  0.5482590000000  0.4789370000000  0.4516420000000 1.0
C      1  0.4776950000000  0.4892810000000  0.4790330000000 1.0
C      1  0.5000990000000  0.5043400000000  0.5891280000000 1.0
C      1  0.4481150000000  0.5028680000000  0.4717390000000 1.0
C      1  0.5463810000000  0.5100610000000  0.4509950000000 1.0
C      1  0.4021760000000  0.4915930000000  0.5262530000000 1.0
C      1  0.4387210000000  0.4171580000000  0.5136590000000 1.0
C      1  0.5329390000000  0.4986570000000  0.5511610000000 1.0
C      1  0.4887080000000  0.5633030000000  0.5402370000000 1.0
C      1  0.5135500000000  0.5516960000000  0.4349760000000 1.0
C      1  0.4750040000000  0.5907740000000  0.5343240000000 1.0
C      1  0.5197140000000  0.4630620000000  0.4457370000000 1.0
C      1  0.5308130000000  0.4915250000000  0.5821540000000 1.0
C      1  0.5928000000000  0.5491840000000  0.4960480000000 1.0
C      1  0.5090250000000  0.4943150000000  0.4783160000000 1.0
C      1  0.4685190000000  0.4561790000000  0.5187740000000 1.0
C      1  0.4814620000000  0.5265140000000  0.4123490000000 1.0
C      1  0.4414420000000  0.5054560000000  0.4255150000000 1.0
C      1  0.5687610000000  0.5442320000000  0.4201640000000 1.0
C      1  0.4570580000000  0.4431500000000  0.5631790000000 1.0
C      1  0.5585340000000  0.5381610000000  0.4433510000000 1.0
C      1  0.4723490000000  0.4391190000000  0.4485170000000 1.0
C      1  0.4952230000000  0.5108890000000  0.5561170000000 1.0
C      1  0.3909620000000  0.5116050000000  0.5019870000000 1.0
C      1  0.4871060000000  0.4079470000000  0.4866520000000 1.0
C      1  0.4595890000000  0.4082960000000  0.5257090000000 1.0
C      1  0.5891590000000  0.5228960000000  0.4846600000000 1.0
C      1  0.5260340000000  0.4769420000000  0.5099560000000 1.0
C      1  0.5001160000000  0.5288710000000  0.5207750000000 1.0
C      1  0.4830080000000  0.5954000000000  0.4856260000000 1.0
C      1  0.4888980000000  0.4601330000000  0.4316310000000 1.0
C      1  0.5621070000000  0.5190480000000  0.4778030000000 1.0
C      1  0.5415430000000  0.4275340000000  0.5369990000000 1.0
C      1  0.4250310000000  0.4937110000000  0.4923800000000 1.0
C      1  0.5480740000000  0.4393030000000  0.5078940000000 1.0
C      1  0.5157530000000  0.5087580000000  0.4517180000000 1.0
C      1  0.5506560000000  0.5263140000000  0.5832870000000 1.0
C      1  0.4817630000000  0.5233120000000  0.4777020000000 1.0
C      1  0.5331840000000  0.5853600000000  0.4917530000000 1.0
C      1  0.5307600000000  0.4380570000000  0.4790150000000 1.0
C      1  0.5102190000000  0.4238030000000  0.5387300000000 1.0
C      1  0.5953530000000  0.4684580000000  0.4605090000000 1.0
C      1  0.4453380000000  0.4805550000000  0.4119690000000 1.0
C      1  0.5942950000000  0.5490800000000  0.5246140000000 1.0
C      1  0.5064510000000  0.4491830000000  0.5084810000000 1.0
C      1  0.4627000000000  0.5177100000000  0.5503610000000 1.0
C      1  0.6019260000000  0.5005220000000  0.4972800000000 1.0
C      1  0.4774070000000  0.4813430000000  0.5320030000000 1.0
C      1  0.4898050000000  0.5428370000000  0.5875130000000 1.0
C      1  0.5091010000000  0.5995130000000  0.4922430000000 1.0
C      1  0.5704190000000  0.4637830000000  0.5011010000000 1.0
C      1  0.4211250000000  0.5172190000000  0.5166460000000 1.0
C      1  0.4772060000000  0.4311880000000  0.5403030000000 1.0
C      1  0.5172360000000  0.4243110000000  0.4552960000000 1.0
C      1  0.4807240000000  0.5057540000000  0.5153130000000 1.0
C      1  0.4476310000000  0.4502900000000  0.4724270000000 1.0
C      1  0.5052960000000  0.4604840000000  0.4764310000000 1.0
END
