TITL C-3371511-147-77 -0.00218478443937502 125000 -439.365016111639 0 0 88 (C1) n - 1
REM
REM in /nfs/bkarasulu/CARBON/AIRSS/Generating-Clusters/AIREBO/with-SteepDescent/Only-C1/SD-CG-opt/Try1-1.4A-POS3A/HFTN-CG
REM
REM
REM
REM
REM
REM ./C.cell (11c1c37f851c82e70ff6c80c92926a4b)
REM
REM compiler GCC version 9.2.1 20190827 (Red Hat 9.2.1-1)
REM options -cpp -mtune=generic -march=x86-64 -g -O0 -fpre-include=/usr/include/finclude/math-vector-fortran.h
REM seed 1566010900 289650188 -2138790772 -680529309 -2128440635 -1538397868 881267190 1216299039 -1026082373 1456347109 663590725 2004466452 -1119691251 -1902162352 -133059291 -967366450 -1660718398 1818843756 801771726 -51336362 -1403651169 -1139524433 463471487 -252743347 -23163747 -889762210 1520302371 362640687 69782160 -1726164009 -253203525 896505127 823960970
REM
CELL 1.54180   50.00000   50.00000   50.00000   90.00000   90.00000   90.00000
LATT -1
SFAC C  
C      1  0.4970360000000  0.4778550000000  0.4810160000000 1.0
C      1  0.4707340000000  0.5743280000000  0.5184370000000 1.0
C      1  0.4841700000000  0.4448200000000  0.5618250000000 1.0
C      1  0.5760240000000  0.4993010000000  0.5519490000000 1.0
C      1  0.5538050000000  0.4383120000000  0.4911810000000 1.0
C      1  0.5598800000000  0.4489810000000  0.4508860000000 1.0
C      1  0.5114700000000  0.5398080000000  0.4807560000000 1.0
C      1  0.5547170000000  0.4800150000000  0.5430380000000 1.0
C      1  0.4997080000000  0.5705460000000  0.4184120000000 1.0
C      1  0.5002000000000  0.5569190000000  0.4426380000000 1.0
C      1  0.4254530000000  0.4722620000000  0.4751390000000 1.0
C      1  0.4593720000000  0.4911810000000  0.4299130000000 1.0
C      1  0.4683890000000  0.4701440000000  0.4542200000000 1.0
C      1  0.4570380000000  0.5462600000000  0.5104040000000 1.0
C      1  0.5103560000000  0.4161390000000  0.5138390000000 1.0
C      1  0.4224090000000  0.5277030000000  0.5044810000000 1.0
C      1  0.4599040000000  0.4993720000000  0.5131950000000 1.0
C      1  0.4791680000000  0.5637430000000  0.4662440000000 1.0
C      1  0.4986780000000  0.4462610000000  0.4905100000000 1.0
C      1  0.5748620000000  0.5057900000000  0.4156250000000 1.0
C      1  0.5891990000000  0.5159060000000  0.4692770000000 1.0
C      1  0.5011860000000  0.5091110000000  0.4681960000000 1.0
C      1  0.5882100000000  0.5410220000000  0.4647320000000 1.0
C      1  0.4851850000000  0.5286630000000  0.4454100000000 1.0
C      1  0.5310590000000  0.5524130000000  0.4559890000000 1.0
C      1  0.4402720000000  0.5025210000000  0.5556860000000 1.0
C      1  0.4919860000000  0.4385760000000  0.4603260000000 1.0
C      1  0.5321270000000  0.5227520000000  0.5648900000000 1.0
C      1  0.5119750000000  0.5732510000000  0.4869990000000 1.0
C      1  0.4859960000000  0.4619320000000  0.5244330000000 1.0
C      1  0.5973300000000  0.5468370000000  0.5338850000000 1.0
C      1  0.5607450000000  0.5058740000000  0.4366250000000 1.0
C      1  0.5364760000000  0.4296560000000  0.5116280000000 1.0
C      1  0.4345970000000  0.5057530000000  0.4815330000000 1.0
C      1  0.4970510000000  0.4737630000000  0.5691950000000 1.0
C      1  0.4604300000000  0.5282390000000  0.5582030000000 1.0
C      1  0.5333700000000  0.4547960000000  0.4451200000000 1.0
C      1  0.5720170000000  0.5435680000000  0.5239960000000 1.0
C      1  0.5308260000000  0.5664170000000  0.5102510000000 1.0
C      1  0.4244060000000  0.4608870000000  0.5276400000000 1.0
C      1  0.4411280000000  0.4305700000000  0.5828310000000 1.0
C      1  0.4779120000000  0.5367250000000  0.4853100000000 1.0
C      1  0.4820190000000  0.3831660000000  0.4836100000000 1.0
C      1  0.4653630000000  0.4320470000000  0.4741810000000 1.0
C      1  0.4347680000000  0.5245060000000  0.4531730000000 1.0
C      1  0.5052470000000  0.5440830000000  0.5312160000000 1.0
C      1  0.5237630000000  0.5941870000000  0.4713750000000 1.0
C      1  0.5218950000000  0.4791970000000  0.5493800000000 1.0
C      1  0.5212790000000  0.5484550000000  0.5592400000000 1.0
C      1  0.4875240000000  0.5696470000000  0.5403930000000 1.0
C      1  0.4558510000000  0.4464620000000  0.5662340000000 1.0
C      1  0.4481450000000  0.5625140000000  0.4801200000000 1.0
C      1  0.5122400000000  0.5026430000000  0.5794720000000 1.0
C      1  0.4796460000000  0.5251970000000  0.5233990000000 1.0
C      1  0.4088280000000  0.4646450000000  0.4998620000000 1.0
C      1  0.4717630000000  0.4845950000000  0.5389180000000 1.0
C      1  0.4296900000000  0.4891630000000  0.5108120000000 1.0
C      1  0.5095530000000  0.5013830000000  0.5021340000000 1.0
C      1  0.5436180000000  0.5275980000000  0.4854450000000 1.0
C      1  0.5265990000000  0.4780540000000  0.4648100000000 1.0
C      1  0.5521510000000  0.5194920000000  0.5376040000000 1.0
C      1  0.4949390000000  0.4877910000000  0.4423960000000 1.0
C      1  0.5038630000000  0.4549710000000  0.4417630000000 1.0
C      1  0.5595560000000  0.5592740000000  0.5038700000000 1.0
C      1  0.5589080000000  0.5006130000000  0.4714410000000 1.0
C      1  0.4438830000000  0.4523380000000  0.4661980000000 1.0
C      1  0.4679090000000  0.5083870000000  0.4751840000000 1.0
C      1  0.4587290000000  0.5190200000000  0.4377520000000 1.0
C      1  0.5308750000000  0.5341370000000  0.5154840000000 1.0
C      1  0.4434960000000  0.4691760000000  0.5498460000000 1.0
C      1  0.5033210000000  0.4986510000000  0.4160700000000 1.0
C      1  0.4798900000000  0.5530960000000  0.5637000000000 1.0
C      1  0.5312580000000  0.5059090000000  0.4523550000000 1.0
C      1  0.4646790000000  0.4792100000000  0.4867890000000 1.0
C      1  0.5156430000000  0.4634790000000  0.5132980000000 1.0
C      1  0.4841800000000  0.4092610000000  0.4920460000000 1.0
C      1  0.4756770000000  0.4342970000000  0.5125370000000 1.0
C      1  0.4386870000000  0.5274610000000  0.5320160000000 1.0
C      1  0.5653090000000  0.4675910000000  0.4780360000000 1.0
C      1  0.4926630000000  0.4265580000000  0.5409590000000 1.0
C      1  0.4923410000000  0.5212490000000  0.5613200000000 1.0
C      1  0.5010300000000  0.5014670000000  0.5350550000000 1.0
C      1  0.5393890000000  0.4953260000000  0.5173660000000 1.0
C      1  0.5371720000000  0.4519660000000  0.5355720000000 1.0
C      1  0.5379040000000  0.4748310000000  0.4936540000000 1.0
C      1  0.5610710000000  0.5534650000000  0.4719380000000 1.0
C      1  0.4681420000000  0.4915520000000  0.5720050000000 1.0
C      1  0.4826850000000  0.5829160000000  0.4941100000000 1.0
END
