TITL C-3371501-9953-33 0.000162893859070822 125000 -324.42799006961 0 0 57 (C1) n - 1
REM
REM in /nfs/bkarasulu/CARBON/AIRSS/Generating-Clusters/AIREBO/with-SteepDescent/Only-C1/SD-CG-opt/Try1-1.4A-POS3A/HFTN-CG
REM
REM
REM
REM
REM
REM ./C.cell (11c1c37f851c82e70ff6c80c92926a4b)
REM
REM compiler GCC version 9.2.1 20190827 (Red Hat 9.2.1-1)
REM options -cpp -mtune=generic -march=x86-64 -g -O0 -fpre-include=/usr/include/finclude/math-vector-fortran.h
REM seed 11223736 670961704 318538485 264617942 -2014830155 -1106771920 -666929539 1535595185 143560843 -1550930418 -228923957 -886448703 -1601828013 17877892 -554055799 1595889834 -385524290 -1200385830 -897134457 -1003781194 -1425142922 1842639246 732741559 -487793685 -2079352007 -1165898089 -334651100 293718361 1379487135 -1124602363 114873981 1983645567 1529365223
REM
CELL 1.54180   50.00000   50.00000   50.00000   90.00000   90.00000   90.00000
LATT -1
SFAC C  
C      1  0.4310080000000  0.4544870000000  0.5142470000000 1.0
C      1  0.5474530000000  0.4456460000000  0.4981610000000 1.0
C      1  0.5235750000000  0.4916010000000  0.5766690000000 1.0
C      1  0.4928460000000  0.4901580000000  0.5676160000000 1.0
C      1  0.5736920000000  0.5131380000000  0.4751170000000 1.0
C      1  0.4672040000000  0.5302520000000  0.4525250000000 1.0
C      1  0.4537090000000  0.4825070000000  0.4540640000000 1.0
C      1  0.5103840000000  0.4509290000000  0.4263180000000 1.0
C      1  0.5177450000000  0.5656550000000  0.5359360000000 1.0
C      1  0.5473390000000  0.4832250000000  0.5279370000000 1.0
C      1  0.5066860000000  0.4361960000000  0.4718110000000 1.0
C      1  0.5063830000000  0.5040370000000  0.5428310000000 1.0
C      1  0.5009810000000  0.4351970000000  0.5001950000000 1.0
C      1  0.4732380000000  0.5242030000000  0.5334690000000 1.0
C      1  0.4619610000000  0.4936390000000  0.5235370000000 1.0
C      1  0.4665590000000  0.5097100000000  0.5699680000000 1.0
C      1  0.4426630000000  0.5123540000000  0.5562870000000 1.0
C      1  0.5205400000000  0.5707630000000  0.4874090000000 1.0
C      1  0.4597200000000  0.5636680000000  0.5209150000000 1.0
C      1  0.5070940000000  0.5593560000000  0.4617010000000 1.0
C      1  0.4837450000000  0.4611750000000  0.5630660000000 1.0
C      1  0.4482030000000  0.5127710000000  0.5008190000000 1.0
C      1  0.5355090000000  0.5229810000000  0.5206200000000 1.0
C      1  0.4885750000000  0.5341220000000  0.5621510000000 1.0
C      1  0.4592130000000  0.4573720000000  0.4646190000000 1.0
C      1  0.5262970000000  0.4326710000000  0.5133110000000 1.0
C      1  0.4422070000000  0.5444470000000  0.5105370000000 1.0
C      1  0.4878100000000  0.4832750000000  0.4747820000000 1.0
C      1  0.4907560000000  0.4729510000000  0.4424150000000 1.0
C      1  0.4856230000000  0.4440350000000  0.4567580000000 1.0
C      1  0.4632150000000  0.5070420000000  0.4758220000000 1.0
C      1  0.5611030000000  0.4696140000000  0.5067740000000 1.0
C      1  0.5326220000000  0.5420410000000  0.4744330000000 1.0
C      1  0.4712430000000  0.4508960000000  0.5442200000000 1.0
C      1  0.5187910000000  0.4868540000000  0.5181960000000 1.0
C      1  0.5155490000000  0.4924290000000  0.4848120000000 1.0
C      1  0.5398070000000  0.5178710000000  0.5684990000000 1.0
C      1  0.5487270000000  0.4885990000000  0.5554300000000 1.0
C      1  0.4336310000000  0.5207640000000  0.5305460000000 1.0
C      1  0.4792240000000  0.5810430000000  0.5101470000000 1.0
C      1  0.5195710000000  0.5349230000000  0.5481790000000 1.0
C      1  0.4912510000000  0.5057400000000  0.5133550000000 1.0
C      1  0.5369490000000  0.4487050000000  0.4675330000000 1.0
C      1  0.4600540000000  0.4638350000000  0.5181980000000 1.0
C      1  0.5528860000000  0.5255600000000  0.4590290000000 1.0
C      1  0.4770480000000  0.4570570000000  0.4935810000000 1.0
C      1  0.5210960000000  0.5059590000000  0.4242190000000 1.0
C      1  0.5250180000000  0.5213640000000  0.4954510000000 1.0
C      1  0.5384830000000  0.4805070000000  0.4671920000000 1.0
C      1  0.4827970000000  0.5526780000000  0.4515440000000 1.0
C      1  0.4674110000000  0.5048220000000  0.4363710000000 1.0
C      1  0.4943620000000  0.4983920000000  0.4256560000000 1.0
C      1  0.5071420000000  0.5752080000000  0.5112760000000 1.0
C      1  0.4677240000000  0.5547840000000  0.5475760000000 1.0
C      1  0.5299850000000  0.4398510000000  0.4378060000000 1.0
C      1  0.5400840000000  0.5040600000000  0.4447330000000 1.0
C      1  0.5655110000000  0.4868830000000  0.4836300000000 1.0
END
