TITL C-3371501-9953-69 0.000122488528448256 125000 -553.914340759938 0 0 100 (C1) n - 1
REM
REM in /nfs/bkarasulu/CARBON/AIRSS/Generating-Clusters/AIREBO/with-SteepDescent/Only-C1/SD-CG-opt/Try1-1.4A-POS3A/HFTN-CG
REM
REM
REM
REM
REM
REM ./C.cell (11c1c37f851c82e70ff6c80c92926a4b)
REM
REM compiler GCC version 9.2.1 20190827 (Red Hat 9.2.1-1)
REM options -cpp -mtune=generic -march=x86-64 -g -O0 -fpre-include=/usr/include/finclude/math-vector-fortran.h
REM seed -143115452 67620342 761899453 -310301413 983781924 683618883 1784559400 317667147 1066986421 -1421112300 -759785075 -296303590 -1474612171 545423641 1603074345 -1532376913 2079310440 1019137709 884158741 -984571055 1599653874 1713598661 -611400721 1112936174 -1625560961 339877079 905039714 160189851 1903279402 -1979611552 1855324013 757769885 -755925311
REM
CELL 1.54180   50.00000   50.00000   50.00000   90.00000   90.00000   90.00000
LATT -1
SFAC C  
C      1  0.5319640000000  0.5616890000000  0.4450340000000 1.0
C      1  0.4249020000000  0.4755540000000  0.5046570000000 1.0
C      1  0.4601200000000  0.4425100000000  0.5231350000000 1.0
C      1  0.4531480000000  0.5616960000000  0.5399140000000 1.0
C      1  0.4215110000000  0.5260580000000  0.5464190000000 1.0
C      1  0.4435230000000  0.4481030000000  0.5809010000000 1.0
C      1  0.5170680000000  0.5510950000000  0.5523850000000 1.0
C      1  0.4912190000000  0.4888580000000  0.5019370000000 1.0
C      1  0.4609880000000  0.5849820000000  0.5166550000000 1.0
C      1  0.4888710000000  0.5508690000000  0.4476530000000 1.0
C      1  0.4148840000000  0.4958830000000  0.4542510000000 1.0
C      1  0.5484030000000  0.4262540000000  0.5168470000000 1.0
C      1  0.5733690000000  0.4995070000000  0.5047260000000 1.0
C      1  0.4651240000000  0.5667090000000  0.4612030000000 1.0
C      1  0.5196910000000  0.4083290000000  0.4812830000000 1.0
C      1  0.5124230000000  0.5505990000000  0.4257370000000 1.0
C      1  0.5411680000000  0.4944040000000  0.4963580000000 1.0
C      1  0.4704230000000  0.5185640000000  0.5858950000000 1.0
C      1  0.5361800000000  0.4627920000000  0.5066920000000 1.0
C      1  0.4652200000000  0.5396430000000  0.5597280000000 1.0
C      1  0.5123560000000  0.4266480000000  0.4559680000000 1.0
C      1  0.5088450000000  0.4482700000000  0.5093510000000 1.0
C      1  0.5030100000000  0.5839920000000  0.4907810000000 1.0
C      1  0.4625050000000  0.4601500000000  0.5654630000000 1.0
C      1  0.5720610000000  0.5050350000000  0.4652860000000 1.0
C      1  0.4828520000000  0.4673820000000  0.4332510000000 1.0
C      1  0.4739660000000  0.5757980000000  0.4916590000000 1.0
C      1  0.5528800000000  0.5541740000000  0.4708170000000 1.0
C      1  0.5351070000000  0.5232440000000  0.5578610000000 1.0
C      1  0.4701700000000  0.5140810000000  0.4699950000000 1.0
C      1  0.4292820000000  0.5133210000000  0.4934410000000 1.0
C      1  0.5460640000000  0.4059910000000  0.4908490000000 1.0
C      1  0.4595220000000  0.5229230000000  0.5174850000000 1.0
C      1  0.4913800000000  0.5354620000000  0.5420820000000 1.0
C      1  0.4588700000000  0.4382880000000  0.4744180000000 1.0
C      1  0.4289570000000  0.5435470000000  0.4858260000000 1.0
C      1  0.5064390000000  0.5762530000000  0.5386260000000 1.0
C      1  0.5532210000000  0.5277730000000  0.4504060000000 1.0
C      1  0.4890040000000  0.4516900000000  0.5604520000000 1.0
C      1  0.4852520000000  0.4471730000000  0.4569000000000 1.0
C      1  0.4583550000000  0.4959560000000  0.4967980000000 1.0
C      1  0.4374790000000  0.4555580000000  0.4793280000000 1.0
C      1  0.5693760000000  0.5015150000000  0.5581870000000 1.0
C      1  0.4877380000000  0.5381480000000  0.5119660000000 1.0
C      1  0.4988270000000  0.4338170000000  0.5386190000000 1.0
C      1  0.4981500000000  0.5196330000000  0.4249850000000 1.0
C      1  0.4684380000000  0.5225980000000  0.4256410000000 1.0
C      1  0.5035540000000  0.4869120000000  0.4324940000000 1.0
C      1  0.4387890000000  0.5498820000000  0.4598880000000 1.0
C      1  0.5338800000000  0.4344910000000  0.4323490000000 1.0
C      1  0.5369350000000  0.4672390000000  0.5667050000000 1.0
C      1  0.5423910000000  0.4600250000000  0.4322320000000 1.0
C      1  0.5256510000000  0.4797030000000  0.4543470000000 1.0
C      1  0.5507450000000  0.5512460000000  0.5498160000000 1.0
C      1  0.4540300000000  0.4720220000000  0.5205830000000 1.0
C      1  0.5274380000000  0.4229850000000  0.5419080000000 1.0
C      1  0.5570440000000  0.4886990000000  0.4431480000000 1.0
C      1  0.4056330000000  0.4935660000000  0.4831950000000 1.0
C      1  0.5037100000000  0.4156480000000  0.5036990000000 1.0
C      1  0.4465240000000  0.5123190000000  0.5624550000000 1.0
C      1  0.4386760000000  0.5339180000000  0.4367100000000 1.0
C      1  0.5089980000000  0.5445080000000  0.4889070000000 1.0
C      1  0.5513370000000  0.4780500000000  0.5312910000000 1.0
C      1  0.5383210000000  0.5556060000000  0.5015140000000 1.0
C      1  0.4930310000000  0.4611930000000  0.4851050000000 1.0
C      1  0.4442570000000  0.4981810000000  0.4135960000000 1.0
C      1  0.4419140000000  0.4839900000000  0.4695400000000 1.0
C      1  0.5506280000000  0.4906990000000  0.5751770000000 1.0
C      1  0.5883690000000  0.4830570000000  0.4808730000000 1.0
C      1  0.5077520000000  0.4750080000000  0.5611490000000 1.0
C      1  0.5186170000000  0.5802670000000  0.5141540000000 1.0
C      1  0.4797560000000  0.5830710000000  0.5423730000000 1.0
C      1  0.5132190000000  0.4960430000000  0.4795250000000 1.0
C      1  0.5833790000000  0.4558880000000  0.4811400000000 1.0
C      1  0.5038150000000  0.4904670000000  0.5309480000000 1.0
C      1  0.5825580000000  0.4842640000000  0.5324160000000 1.0
C      1  0.5916550000000  0.5155620000000  0.5366570000000 1.0
C      1  0.5803650000000  0.5321700000000  0.5114860000000 1.0
C      1  0.5628060000000  0.5547180000000  0.5229950000000 1.0
C      1  0.5329160000000  0.5029900000000  0.5344610000000 1.0
C      1  0.5782670000000  0.5340760000000  0.4795020000000 1.0
C      1  0.4980720000000  0.5003870000000  0.5816700000000 1.0
C      1  0.5020860000000  0.5244310000000  0.4644750000000 1.0
C      1  0.5285780000000  0.5094880000000  0.5849040000000 1.0
C      1  0.4695420000000  0.5425480000000  0.4842520000000 1.0
C      1  0.4841310000000  0.5053300000000  0.5510500000000 1.0
C      1  0.4570670000000  0.4852050000000  0.5486550000000 1.0
C      1  0.5558050000000  0.4445690000000  0.4891640000000 1.0
C      1  0.4774240000000  0.4131130000000  0.5251260000000 1.0
C      1  0.4307360000000  0.5037340000000  0.5244130000000 1.0
C      1  0.4666770000000  0.4267620000000  0.4970020000000 1.0
C      1  0.5272140000000  0.5178160000000  0.4425370000000 1.0
C      1  0.4201140000000  0.5111110000000  0.4321710000000 1.0
C      1  0.4335630000000  0.5432130000000  0.5196450000000 1.0
C      1  0.5315390000000  0.4497130000000  0.4692530000000 1.0
C      1  0.5494390000000  0.4472500000000  0.5439830000000 1.0
C      1  0.5166130000000  0.5706750000000  0.4685640000000 1.0
C      1  0.5369100000000  0.5232770000000  0.5101690000000 1.0
C      1  0.4557150000000  0.4989680000000  0.4455990000000 1.0
C      1  0.4615050000000  0.4714280000000  0.4171790000000 1.0
END
