TITL C-3371507-1587-3 0.00210016315076401 125000 -1016.17469502842 0 0 187 (C1) n - 1
REM
REM in /nfs/bkarasulu/CARBON/AIRSS/Generating-Clusters/AIREBO/with-SteepDescent/Only-C1/SD-CG-opt/Try1-1.4A-POS3A/HFTN-CG
REM
REM
REM
REM
REM
REM ./C.cell (11c1c37f851c82e70ff6c80c92926a4b)
REM
REM compiler GCC version 9.2.1 20190827 (Red Hat 9.2.1-1)
REM options -cpp -mtune=generic -march=x86-64 -g -O0 -fpre-include=/usr/include/finclude/math-vector-fortran.h
REM seed 1364498794 169280883 1156057927 1359921988 991815211 598478937 1608771140 -1043854762 1873533008 784207365 1184110091 -1199687381 1352784903 -102780969 -509031395 -1496393723 -755153829 -778255622 1626211264 972899624 926926520 -1915852676 570528700 -622198351 -109594476 -1020915318 1597651342 -392536316 751783168 -790868103 425085546 -1585436091 1794312473
REM
CELL 1.54180   50.00000   50.00000   50.00000   90.00000   90.00000   90.00000
LATT -1
SFAC C  
C      1  0.5162540000000  0.4497050000000  0.4005430000000 1.0
C      1  0.5100080000000  0.4927830000000  0.5835850000000 1.0
C      1  0.5607510000000  0.4381900000000  0.5148560000000 1.0
C      1  0.4659020000000  0.4920700000000  0.5087210000000 1.0
C      1  0.4022540000000  0.5343800000000  0.5118870000000 1.0
C      1  0.5253730000000  0.4280330000000  0.5704690000000 1.0
C      1  0.4827190000000  0.4308870000000  0.6025740000000 1.0
C      1  0.4046500000000  0.4395320000000  0.4639380000000 1.0
C      1  0.4513680000000  0.5899780000000  0.5136250000000 1.0
C      1  0.4128240000000  0.4598140000000  0.4417000000000 1.0
C      1  0.4760210000000  0.4907370000000  0.3750540000000 1.0
C      1  0.4967480000000  0.4421890000000  0.5283550000000 1.0
C      1  0.4789610000000  0.5287910000000  0.5945820000000 1.0
C      1  0.5441150000000  0.6172120000000  0.4951000000000 1.0
C      1  0.4747120000000  0.4669990000000  0.5640720000000 1.0
C      1  0.5436590000000  0.4730180000000  0.4732550000000 1.0
C      1  0.4638790000000  0.4716580000000  0.4432990000000 1.0
C      1  0.4018220000000  0.5011950000000  0.5214890000000 1.0
C      1  0.3881230000000  0.4853470000000  0.4735820000000 1.0
C      1  0.4944790000000  0.3856840000000  0.4978000000000 1.0
C      1  0.4286910000000  0.5789760000000  0.5575660000000 1.0
C      1  0.4828760000000  0.3956500000000  0.5523150000000 1.0
C      1  0.5407280000000  0.4502120000000  0.5903650000000 1.0
C      1  0.4469420000000  0.5341220000000  0.5390510000000 1.0
C      1  0.5400780000000  0.4968510000000  0.5211260000000 1.0
C      1  0.5192480000000  0.5425270000000  0.5700750000000 1.0
C      1  0.6067020000000  0.5201940000000  0.4998710000000 1.0
C      1  0.5518770000000  0.5473650000000  0.6159390000000 1.0
C      1  0.4360740000000  0.5010950000000  0.4034980000000 1.0
C      1  0.5629170000000  0.4486130000000  0.4311340000000 1.0
C      1  0.4347080000000  0.4294560000000  0.4762350000000 1.0
C      1  0.4718590000000  0.5594530000000  0.5859260000000 1.0
C      1  0.4858360000000  0.5517670000000  0.4758940000000 1.0
C      1  0.5044990000000  0.4468300000000  0.6066270000000 1.0
C      1  0.5446400000000  0.5593270000000  0.5549340000000 1.0
C      1  0.5112720000000  0.6204780000000  0.4906930000000 1.0
C      1  0.4554910000000  0.4625530000000  0.5220430000000 1.0
C      1  0.4779880000000  0.3909550000000  0.5214430000000 1.0
C      1  0.5649250000000  0.4771760000000  0.4172910000000 1.0
C      1  0.4568580000000  0.4422340000000  0.4986950000000 1.0
C      1  0.5651710000000  0.5330010000000  0.4008670000000 1.0
C      1  0.5385080000000  0.5230290000000  0.4181800000000 1.0
C      1  0.6029940000000  0.4717800000000  0.4556770000000 1.0
C      1  0.5995880000000  0.5510500000000  0.4989820000000 1.0
C      1  0.4207690000000  0.4428130000000  0.5151230000000 1.0
C      1  0.4951270000000  0.4418420000000  0.5623300000000 1.0
C      1  0.5370390000000  0.5320370000000  0.4620950000000 1.0
C      1  0.5289350000000  0.4465200000000  0.5234870000000 1.0
C      1  0.5684440000000  0.5599980000000  0.5100730000000 1.0
C      1  0.4854360000000  0.4427590000000  0.4080910000000 1.0
C      1  0.4990130000000  0.4036780000000  0.4505490000000 1.0
C      1  0.5769240000000  0.5278110000000  0.4278350000000 1.0
C      1  0.4019970000000  0.5218190000000  0.4574220000000 1.0
C      1  0.5030810000000  0.5603560000000  0.5916130000000 1.0
C      1  0.4325760000000  0.4119000000000  0.5052900000000 1.0
C      1  0.5838390000000  0.4994190000000  0.4331010000000 1.0
C      1  0.4561050000000  0.5220050000000  0.4794610000000 1.0
C      1  0.4742280000000  0.6067390000000  0.4965590000000 1.0
C      1  0.4575430000000  0.4457330000000  0.5944100000000 1.0
C      1  0.4614830000000  0.5164430000000  0.4047840000000 1.0
C      1  0.5771690000000  0.4772960000000  0.4771040000000 1.0
C      1  0.4923470000000  0.4707100000000  0.5103060000000 1.0
C      1  0.5741390000000  0.4484150000000  0.5400800000000 1.0
C      1  0.4576620000000  0.5477050000000  0.4944920000000 1.0
C      1  0.5371300000000  0.4463510000000  0.4531870000000 1.0
C      1  0.5245620000000  0.5548690000000  0.4839840000000 1.0
C      1  0.4598230000000  0.4602210000000  0.4718330000000 1.0
C      1  0.5602150000000  0.5875720000000  0.4993710000000 1.0
C      1  0.5891170000000  0.4440290000000  0.4449190000000 1.0
C      1  0.4627730000000  0.4773740000000  0.5935810000000 1.0
C      1  0.4760550000000  0.5841830000000  0.4727210000000 1.0
C      1  0.5363200000000  0.4367980000000  0.4143560000000 1.0
C      1  0.5344830000000  0.5342600000000  0.5341440000000 1.0
C      1  0.5125140000000  0.4645820000000  0.5800610000000 1.0
C      1  0.4108590000000  0.5597850000000  0.4905150000000 1.0
C      1  0.4603200000000  0.5445890000000  0.4065440000000 1.0
C      1  0.4812640000000  0.5047150000000  0.4203690000000 1.0
C      1  0.5069630000000  0.4115630000000  0.5390540000000 1.0
C      1  0.4288140000000  0.5519340000000  0.5616530000000 1.0
C      1  0.5523190000000  0.4767520000000  0.3882880000000 1.0
C      1  0.4494080000000  0.4977790000000  0.4559780000000 1.0
C      1  0.3924620000000  0.4711200000000  0.5229120000000 1.0
C      1  0.5090000000000  0.5634870000000  0.5129840000000 1.0
C      1  0.4332710000000  0.5585680000000  0.4450470000000 1.0
C      1  0.5291140000000  0.5908380000000  0.5106980000000 1.0
C      1  0.4298180000000  0.4751950000000  0.5099920000000 1.0
C      1  0.5705370000000  0.5826540000000  0.4707940000000 1.0
C      1  0.5738870000000  0.5324360000000  0.5585690000000 1.0
C      1  0.4605240000000  0.4040000000000  0.4883620000000 1.0
C      1  0.4875210000000  0.5903750000000  0.5414580000000 1.0
C      1  0.5360960000000  0.5872500000000  0.5589090000000 1.0
C      1  0.5928900000000  0.5089730000000  0.5242760000000 1.0
C      1  0.5912760000000  0.5139960000000  0.5814560000000 1.0
C      1  0.5802970000000  0.4928330000000  0.5584720000000 1.0
C      1  0.4533640000000  0.5143250000000  0.5822150000000 1.0
C      1  0.4398450000000  0.4530970000000  0.4291440000000 1.0
C      1  0.5250560000000  0.4188500000000  0.4934260000000 1.0
C      1  0.6131110000000  0.4637790000000  0.4871420000000 1.0
C      1  0.5332370000000  0.5281440000000  0.5975490000000 1.0
C      1  0.4160990000000  0.4909730000000  0.4549260000000 1.0
C      1  0.4693340000000  0.4229670000000  0.5223710000000 1.0
C      1  0.4554900000000  0.5880630000000  0.5440010000000 1.0
C      1  0.4429650000000  0.4299210000000  0.5680630000000 1.0
C      1  0.5182810000000  0.5117840000000  0.5001900000000 1.0
C      1  0.5048060000000  0.4984430000000  0.3846380000000 1.0
C      1  0.4963870000000  0.5336330000000  0.5026930000000 1.0
C      1  0.4756450000000  0.5692700000000  0.5098200000000 1.0
C      1  0.4902280000000  0.4669580000000  0.4294860000000 1.0
C      1  0.5252070000000  0.4719010000000  0.3857800000000 1.0
C      1  0.3871250000000  0.5430000000000  0.4761600000000 1.0
C      1  0.5656960000000  0.5041670000000  0.4614730000000 1.0
C      1  0.5363450000000  0.4067190000000  0.5528240000000 1.0
C      1  0.4137520000000  0.4914520000000  0.5676830000000 1.0
C      1  0.5189850000000  0.5979740000000  0.5396170000000 1.0
C      1  0.4619490000000  0.5521250000000  0.4364300000000 1.0
C      1  0.5060570000000  0.4363560000000  0.4572140000000 1.0
C      1  0.3982820000000  0.4658820000000  0.5522210000000 1.0
C      1  0.4000650000000  0.4550740000000  0.4938590000000 1.0
C      1  0.5845430000000  0.5562880000000  0.4688880000000 1.0
C      1  0.5397770000000  0.4702650000000  0.5394650000000 1.0
C      1  0.5501810000000  0.4930410000000  0.5594230000000 1.0
C      1  0.5490860000000  0.5892560000000  0.4538550000000 1.0
C      1  0.4915780000000  0.5618980000000  0.4438420000000 1.0
C      1  0.4258580000000  0.4547970000000  0.5587420000000 1.0
C      1  0.4436760000000  0.5436980000000  0.5847330000000 1.0
C      1  0.4679230000000  0.5574840000000  0.5521600000000 1.0
C      1  0.4855960000000  0.4995280000000  0.6058350000000 1.0
C      1  0.5301250000000  0.5668780000000  0.4526480000000 1.0
C      1  0.5095140000000  0.4917780000000  0.4164710000000 1.0
C      1  0.5236010000000  0.4697290000000  0.4344400000000 1.0
C      1  0.5013140000000  0.5583670000000  0.5457340000000 1.0
C      1  0.5665220000000  0.5322580000000  0.5917010000000 1.0
C      1  0.5512660000000  0.5099540000000  0.4918130000000 1.0
C      1  0.4969470000000  0.6133410000000  0.5182200000000 1.0
C      1  0.5559950000000  0.4523230000000  0.5633760000000 1.0
C      1  0.4063020000000  0.5096750000000  0.4888690000000 1.0
C      1  0.4991850000000  0.3837980000000  0.4682980000000 1.0
C      1  0.5237180000000  0.5094630000000  0.5634860000000 1.0
C      1  0.5459530000000  0.5403370000000  0.5036200000000 1.0
C      1  0.5125470000000  0.5275880000000  0.4003560000000 1.0
C      1  0.4187480000000  0.5069690000000  0.4245610000000 1.0
C      1  0.5646250000000  0.5419740000000  0.4488870000000 1.0
C      1  0.5724200000000  0.4261830000000  0.4877580000000 1.0
C      1  0.4653850000000  0.5038080000000  0.5571120000000 1.0
C      1  0.6121420000000  0.4966510000000  0.4764000000000 1.0
C      1  0.4934190000000  0.5020540000000  0.4520480000000 1.0
C      1  0.5924300000000  0.4809470000000  0.5073150000000 1.0
C      1  0.4911560000000  0.4517050000000  0.4821070000000 1.0
C      1  0.4379410000000  0.5029410000000  0.4945120000000 1.0
C      1  0.4393730000000  0.4250860000000  0.5358910000000 1.0
C      1  0.4687730000000  0.5253510000000  0.4514080000000 1.0
C      1  0.4939190000000  0.5953370000000  0.4495700000000 1.0
C      1  0.5191630000000  0.5013910000000  0.6133320000000 1.0
C      1  0.4814960000000  0.4272030000000  0.4362710000000 1.0
C      1  0.5495960000000  0.4198910000000  0.4706030000000 1.0
C      1  0.6036170000000  0.5646730000000  0.5273160000000 1.0
C      1  0.5005710000000  0.4905050000000  0.4838930000000 1.0
C      1  0.4324880000000  0.4923600000000  0.5896830000000 1.0
C      1  0.5320890000000  0.4052560000000  0.5197450000000 1.0
C      1  0.5637460000000  0.5172350000000  0.5308980000000 1.0
C      1  0.5169010000000  0.5475830000000  0.4279590000000 1.0
C      1  0.5255940000000  0.5000190000000  0.4629230000000 1.0
C      1  0.4561420000000  0.4556010000000  0.4022580000000 1.0
C      1  0.4912950000000  0.4184780000000  0.4894030000000 1.0
C      1  0.4745880000000  0.5202890000000  0.5239450000000 1.0
C      1  0.5765090000000  0.5598500000000  0.5431050000000 1.0
C      1  0.4273840000000  0.5737270000000  0.4691110000000 1.0
C      1  0.4536830000000  0.4803370000000  0.3895450000000 1.0
C      1  0.5381590000000  0.6137200000000  0.4623090000000 1.0
C      1  0.5084410000000  0.6167530000000  0.4596580000000 1.0
C      1  0.4166290000000  0.5378840000000  0.4351180000000 1.0
C      1  0.4742240000000  0.4175500000000  0.5721920000000 1.0
C      1  0.4894740000000  0.4868440000000  0.5401330000000 1.0
C      1  0.5919210000000  0.5235310000000  0.4711420000000 1.0
C      1  0.5441570000000  0.4968020000000  0.4357190000000 1.0
C      1  0.6082870000000  0.5110660000000  0.5521210000000 1.0
C      1  0.5055330000000  0.5167230000000  0.5376160000000 1.0
C      1  0.5376100000000  0.4504480000000  0.4929260000000 1.0
C      1  0.4328000000000  0.5464440000000  0.5128040000000 1.0
C      1  0.4461720000000  0.4770850000000  0.5485660000000 1.0
C      1  0.4454400000000  0.5949520000000  0.4806780000000 1.0
C      1  0.4520030000000  0.4293710000000  0.4469230000000 1.0
C      1  0.4287200000000  0.5053870000000  0.5413740000000 1.0
C      1  0.5934900000000  0.4386760000000  0.4752330000000 1.0
C      1  0.5284190000000  0.4687580000000  0.6162850000000 1.0
C      1  0.5891430000000  0.4714140000000  0.5370410000000 1.0
C      1  0.4270880000000  0.4686170000000  0.4780930000000 1.0
END
