TITL C-3371504-3437-5 -0.000215442658576183 125000 -424.147976924097 0 0 82 (C1) n - 1
REM
REM in /nfs/bkarasulu/CARBON/AIRSS/Generating-Clusters/AIREBO/with-SteepDescent/Only-C1/SD-CG-opt/Try1-1.4A-POS3A/HFTN-CG
REM
REM
REM
REM
REM
REM ./C.cell (11c1c37f851c82e70ff6c80c92926a4b)
REM
REM compiler GCC version 9.2.1 20190827 (Red Hat 9.2.1-1)
REM options -cpp -mtune=generic -march=x86-64 -g -O0 -fpre-include=/usr/include/finclude/math-vector-fortran.h
REM seed 1640935484 1536780336 -2143182244 -686185568 1300192909 -39177835 101684382 1966308473 575604796 -1793197678 -21265591 -1988268550 1356926073 -352407184 1729252197 1646911354 -1486153080 1956562062 1489152144 577756874 -1579913029 -413100201 1054687541 -1492828590 -1864516179 -1823420455 832489360 -1402948826 920815794 1446157404 -173975545 -1226828320 500042866
REM
CELL 1.54180   50.00000   50.00000   50.00000   90.00000   90.00000   90.00000
LATT -1
SFAC C  
C      1  0.4881940000000  0.4738600000000  0.5388940000000 1.0
C      1  0.5217060000000  0.4378590000000  0.4718970000000 1.0
C      1  0.5020310000000  0.4428090000000  0.5408950000000 1.0
C      1  0.5045320000000  0.4386050000000  0.5012310000000 1.0
C      1  0.5490160000000  0.4234540000000  0.5041790000000 1.0
C      1  0.4522080000000  0.4912310000000  0.4064190000000 1.0
C      1  0.4504120000000  0.5279270000000  0.5358200000000 1.0
C      1  0.4989600000000  0.5427360000000  0.5621460000000 1.0
C      1  0.5649830000000  0.4923370000000  0.4747210000000 1.0
C      1  0.5354860000000  0.4446640000000  0.5466750000000 1.0
C      1  0.5254800000000  0.4828390000000  0.5486360000000 1.0
C      1  0.4526380000000  0.5028940000000  0.5132720000000 1.0
C      1  0.4953380000000  0.5236290000000  0.5229820000000 1.0
C      1  0.4647520000000  0.5170080000000  0.4868890000000 1.0
C      1  0.5464750000000  0.4633830000000  0.5208340000000 1.0
C      1  0.5684570000000  0.5463680000000  0.5529120000000 1.0
C      1  0.4710590000000  0.5300230000000  0.5539690000000 1.0
C      1  0.4552260000000  0.5020540000000  0.4578750000000 1.0
C      1  0.5210880000000  0.5176210000000  0.5669830000000 1.0
C      1  0.4897480000000  0.5516890000000  0.5095180000000 1.0
C      1  0.5094120000000  0.4628180000000  0.4523350000000 1.0
C      1  0.5798570000000  0.4945550000000  0.5199030000000 1.0
C      1  0.4660920000000  0.5762490000000  0.4685050000000 1.0
C      1  0.4178560000000  0.5153340000000  0.4935490000000 1.0
C      1  0.5379460000000  0.5435450000000  0.5536680000000 1.0
C      1  0.4381360000000  0.5395050000000  0.5063000000000 1.0
C      1  0.5136120000000  0.5860180000000  0.5084630000000 1.0
C      1  0.5015240000000  0.4847910000000  0.4744330000000 1.0
C      1  0.4335870000000  0.5367670000000  0.4723430000000 1.0
C      1  0.4862470000000  0.4204680000000  0.4835630000000 1.0
C      1  0.5326350000000  0.5375720000000  0.4276730000000 1.0
C      1  0.4709590000000  0.4779570000000  0.4737540000000 1.0
C      1  0.4930940000000  0.5054080000000  0.5506290000000 1.0
C      1  0.4345250000000  0.4906960000000  0.5389500000000 1.0
C      1  0.5127830000000  0.5260210000000  0.4686750000000 1.0
C      1  0.5206210000000  0.4823390000000  0.5170950000000 1.0
C      1  0.5190440000000  0.5039470000000  0.4442540000000 1.0
C      1  0.5553000000000  0.5420730000000  0.5012560000000 1.0
C      1  0.5253900000000  0.4263580000000  0.5214150000000 1.0
C      1  0.4605720000000  0.4316060000000  0.4802960000000 1.0
C      1  0.5670000000000  0.5258020000000  0.4733100000000 1.0
C      1  0.5399620000000  0.5671510000000  0.5187610000000 1.0
C      1  0.4475670000000  0.4689910000000  0.5517960000000 1.0
C      1  0.4946010000000  0.5799040000000  0.4608820000000 1.0
C      1  0.4889560000000  0.5463030000000  0.4553480000000 1.0
C      1  0.4895100000000  0.5036100000000  0.4981880000000 1.0
C      1  0.5451600000000  0.4954700000000  0.5731750000000 1.0
C      1  0.4245790000000  0.4739600000000  0.4934310000000 1.0
C      1  0.5047880000000  0.4098120000000  0.4620990000000 1.0
C      1  0.5616330000000  0.5238380000000  0.5282040000000 1.0
C      1  0.5339870000000  0.4629950000000  0.5749040000000 1.0
C      1  0.5137160000000  0.5614750000000  0.5398060000000 1.0
C      1  0.4706810000000  0.5468380000000  0.4840200000000 1.0
C      1  0.4815190000000  0.4614190000000  0.4390110000000 1.0
C      1  0.5519420000000  0.4464900000000  0.4849100000000 1.0
C      1  0.5594580000000  0.4817940000000  0.4428720000000 1.0
C      1  0.4876860000000  0.5798870000000  0.5286840000000 1.0
C      1  0.5629270000000  0.4953070000000  0.5466730000000 1.0
C      1  0.5339070000000  0.4910160000000  0.4719650000000 1.0
C      1  0.5189210000000  0.5565370000000  0.4936200000000 1.0
C      1  0.5082530000000  0.5447840000000  0.4273960000000 1.0
C      1  0.4991880000000  0.4958130000000  0.4271770000000 1.0
C      1  0.4631910000000  0.4741390000000  0.5036520000000 1.0
C      1  0.4679650000000  0.4890430000000  0.4291200000000 1.0
C      1  0.5693000000000  0.4722110000000  0.4988330000000 1.0
C      1  0.4148850000000  0.4905330000000  0.5162750000000 1.0
C      1  0.4625250000000  0.4506320000000  0.4598500000000 1.0
C      1  0.4591270000000  0.5630120000000  0.5190610000000 1.0
C      1  0.4949780000000  0.4654570000000  0.5087610000000 1.0
C      1  0.5104550000000  0.5940480000000  0.4774250000000 1.0
C      1  0.5430760000000  0.4568200000000  0.4534180000000 1.0
C      1  0.4577370000000  0.5346390000000  0.4484850000000 1.0
C      1  0.5276320000000  0.5237260000000  0.5280390000000 1.0
C      1  0.5013200000000  0.4707170000000  0.5694780000000 1.0
C      1  0.5225440000000  0.5099280000000  0.4973050000000 1.0
C      1  0.5511980000000  0.5149760000000  0.4450310000000 1.0
C      1  0.4438130000000  0.4479750000000  0.5039630000000 1.0
C      1  0.4515520000000  0.4461500000000  0.5352350000000 1.0
C      1  0.4729240000000  0.4305840000000  0.5420770000000 1.0
C      1  0.4263440000000  0.4928940000000  0.4692450000000 1.0
C      1  0.4675120000000  0.4723680000000  0.5727620000000 1.0
C      1  0.5389990000000  0.5439350000000  0.4719460000000 1.0
END
