TITL C-3371513-6555-50 -0.00087756132570269 125000 -1034.9908377648 0 0 194 (C1) n - 1
REM
REM in /nfs/bkarasulu/CARBON/AIRSS/Generating-Clusters/AIREBO/with-SteepDescent/Only-C1/SD-CG-opt/Try1-1.4A-POS3A/HFTN-CG
REM
REM
REM
REM
REM
REM ./C.cell (11c1c37f851c82e70ff6c80c92926a4b)
REM
REM compiler GCC version 9.2.1 20190827 (Red Hat 9.2.1-1)
REM options -cpp -mtune=generic -march=x86-64 -g -O0 -fpre-include=/usr/include/finclude/math-vector-fortran.h
REM seed 1108523528 -1339360088 1415886551 -357825832 484375535 -959458618 213808468 646081837 -1535035826 -134259921 1634354047 -320115439 -1245483742 378953885 -1449980787 -1667188760 -478270811 -977188485 -150192453 2144068950 1318589676 -1513078673 -818988728 -1764924886 365151199 950886845 -1253127067 -1006114253 667085365 -1176823329 -970913874 -1830366057 -1227745165
REM
CELL 1.54180   50.00000   50.00000   50.00000   90.00000   90.00000   90.00000
LATT -1
SFAC C  
C      1  0.3946000000000  0.5261580000000  0.5326400000000 1.0
C      1  0.4323350000000  0.5036180000000  0.5496200000000 1.0
C      1  0.5192230000000  0.5535400000000  0.5309790000000 1.0
C      1  0.5278200000000  0.4943490000000  0.3884500000000 1.0
C      1  0.4083140000000  0.5321930000000  0.4678480000000 1.0
C      1  0.5142120000000  0.5641320000000  0.5823100000000 1.0
C      1  0.5014170000000  0.4836890000000  0.4472230000000 1.0
C      1  0.4214640000000  0.5006990000000  0.4226050000000 1.0
C      1  0.4318890000000  0.4086190000000  0.4941610000000 1.0
C      1  0.4417880000000  0.5775670000000  0.4565650000000 1.0
C      1  0.4869460000000  0.3997170000000  0.5116210000000 1.0
C      1  0.4001330000000  0.4962310000000  0.5478340000000 1.0
C      1  0.5394830000000  0.4548410000000  0.5600090000000 1.0
C      1  0.5808860000000  0.4453960000000  0.5515190000000 1.0
C      1  0.4852340000000  0.5669410000000  0.5010570000000 1.0
C      1  0.4631690000000  0.5539320000000  0.5234440000000 1.0
C      1  0.4345690000000  0.4128010000000  0.5266920000000 1.0
C      1  0.5399620000000  0.5571400000000  0.4705750000000 1.0
C      1  0.4926400000000  0.5171870000000  0.4034720000000 1.0
C      1  0.5000560000000  0.5744630000000  0.4443750000000 1.0
C      1  0.4205110000000  0.5824490000000  0.4756720000000 1.0
C      1  0.5311070000000  0.4053130000000  0.4941640000000 1.0
C      1  0.4637510000000  0.5720260000000  0.4778820000000 1.0
C      1  0.4891930000000  0.4637690000000  0.6089380000000 1.0
C      1  0.4587570000000  0.5278910000000  0.4942700000000 1.0
C      1  0.4484050000000  0.4681760000000  0.4906690000000 1.0
C      1  0.4151150000000  0.5482460000000  0.5334080000000 1.0
C      1  0.5530440000000  0.5586180000000  0.4239580000000 1.0
C      1  0.5071240000000  0.5107020000000  0.5607630000000 1.0
C      1  0.4253660000000  0.4826320000000  0.5932680000000 1.0
C      1  0.5601080000000  0.4263460000000  0.5414100000000 1.0
C      1  0.4726180000000  0.6026680000000  0.4896670000000 1.0
C      1  0.5533370000000  0.4700050000000  0.4533370000000 1.0
C      1  0.5652460000000  0.5665880000000  0.4505450000000 1.0
C      1  0.4852100000000  0.5018680000000  0.4709540000000 1.0
C      1  0.5345060000000  0.4948240000000  0.4278720000000 1.0
C      1  0.4973720000000  0.4505990000000  0.5019100000000 1.0
C      1  0.4570570000000  0.4028430000000  0.4827270000000 1.0
C      1  0.4391150000000  0.5447150000000  0.4195420000000 1.0
C      1  0.4822600000000  0.4668490000000  0.5756480000000 1.0
C      1  0.5094270000000  0.5956020000000  0.5400460000000 1.0
C      1  0.4793270000000  0.5512130000000  0.4307190000000 1.0
C      1  0.4911530000000  0.4436150000000  0.4309790000000 1.0
C      1  0.4020120000000  0.4801930000000  0.5765300000000 1.0
C      1  0.4895750000000  0.5336690000000  0.4649310000000 1.0
C      1  0.4718850000000  0.4669370000000  0.4453980000000 1.0
C      1  0.5133220000000  0.4274740000000  0.4849700000000 1.0
C      1  0.4518880000000  0.5256480000000  0.5335940000000 1.0
C      1  0.4730800000000  0.4307370000000  0.5148070000000 1.0
C      1  0.5363190000000  0.5207130000000  0.3926630000000 1.0
C      1  0.4503810000000  0.4755620000000  0.5531320000000 1.0
C      1  0.4801700000000  0.5008530000000  0.5267430000000 1.0
C      1  0.4264890000000  0.4631570000000  0.5329480000000 1.0
C      1  0.5098210000000  0.4153160000000  0.5443380000000 1.0
C      1  0.5868360000000  0.4521030000000  0.4164790000000 1.0
C      1  0.6057190000000  0.4842410000000  0.5145050000000 1.0
C      1  0.5619460000000  0.4388160000000  0.4596820000000 1.0
C      1  0.4670440000000  0.4244060000000  0.4642710000000 1.0
C      1  0.5479070000000  0.4546700000000  0.5270380000000 1.0
C      1  0.4413820000000  0.4428090000000  0.5122020000000 1.0
C      1  0.4520120000000  0.5714480000000  0.4299500000000 1.0
C      1  0.5593200000000  0.4871470000000  0.5727580000000 1.0
C      1  0.4400400000000  0.5069910000000  0.5977160000000 1.0
C      1  0.5089070000000  0.5360950000000  0.4379930000000 1.0
C      1  0.5986880000000  0.5006950000000  0.4855830000000 1.0
C      1  0.4927040000000  0.5443900000000  0.5916570000000 1.0
C      1  0.5878870000000  0.5484050000000  0.4675320000000 1.0
C      1  0.5051300000000  0.4869130000000  0.4126780000000 1.0
C      1  0.5288670000000  0.6016480000000  0.5055950000000 1.0
C      1  0.4991410000000  0.4238670000000  0.4542740000000 1.0
C      1  0.6004210000000  0.5230910000000  0.4600430000000 1.0
C      1  0.4432510000000  0.4632650000000  0.5826070000000 1.0
C      1  0.4659350000000  0.4448100000000  0.5938850000000 1.0
C      1  0.4655880000000  0.5234530000000  0.4166870000000 1.0
C      1  0.5587760000000  0.5788680000000  0.4877990000000 1.0
C      1  0.5026230000000  0.3912770000000  0.4603180000000 1.0
C      1  0.4945890000000  0.5406820000000  0.5506100000000 1.0
C      1  0.5952520000000  0.4968440000000  0.5402720000000 1.0
C      1  0.5392030000000  0.4705290000000  0.4981940000000 1.0
C      1  0.5820380000000  0.5965160000000  0.5038240000000 1.0
C      1  0.5211680000000  0.4459460000000  0.4164740000000 1.0
C      1  0.4518190000000  0.5893320000000  0.5374210000000 1.0
C      1  0.5183180000000  0.4788380000000  0.5649640000000 1.0
C      1  0.4161310000000  0.4773720000000  0.4372670000000 1.0
C      1  0.4059740000000  0.5083210000000  0.4819850000000 1.0
C      1  0.5142670000000  0.4865160000000  0.6123790000000 1.0
C      1  0.4090690000000  0.5564560000000  0.4867290000000 1.0
C      1  0.4269350000000  0.4873440000000  0.4743850000000 1.0
C      1  0.4201600000000  0.5286310000000  0.4386950000000 1.0
C      1  0.5047590000000  0.4809380000000  0.5154000000000 1.0
C      1  0.5133190000000  0.5015870000000  0.4897680000000 1.0
C      1  0.5395960000000  0.5278530000000  0.4257510000000 1.0
C      1  0.4412810000000  0.5115600000000  0.4586140000000 1.0
C      1  0.4839070000000  0.3863290000000  0.4817120000000 1.0
C      1  0.5175520000000  0.4595080000000  0.5929240000000 1.0
C      1  0.5676950000000  0.5677940000000  0.5186940000000 1.0
C      1  0.5201050000000  0.5620310000000  0.4190720000000 1.0
C      1  0.4205390000000  0.4568080000000  0.4643630000000 1.0
C      1  0.4219680000000  0.4877230000000  0.5144350000000 1.0
C      1  0.3865000000000  0.4746690000000  0.5252000000000 1.0
C      1  0.3936680000000  0.4515740000000  0.5106970000000 1.0
C      1  0.5238140000000  0.5070000000000  0.4577650000000 1.0
C      1  0.5735120000000  0.4902580000000  0.4652300000000 1.0
C      1  0.3842310000000  0.5607810000000  0.4995120000000 1.0
C      1  0.5527710000000  0.4089830000000  0.4461790000000 1.0
C      1  0.5671990000000  0.5324500000000  0.5400240000000 1.0
C      1  0.5626570000000  0.5079680000000  0.5202770000000 1.0
C      1  0.4995060000000  0.5851610000000  0.5656800000000 1.0
C      1  0.4779420000000  0.5904850000000  0.4235670000000 1.0
C      1  0.5751340000000  0.4444150000000  0.5094130000000 1.0
C      1  0.5852490000000  0.5090370000000  0.5704370000000 1.0
C      1  0.5193390000000  0.3947410000000  0.5206800000000 1.0
C      1  0.5240040000000  0.4687010000000  0.4677630000000 1.0
C      1  0.4910630000000  0.5236030000000  0.5039390000000 1.0
C      1  0.6012410000000  0.5302800000000  0.5406310000000 1.0
C      1  0.5408310000000  0.5735040000000  0.5633410000000 1.0
C      1  0.5904730000000  0.5227310000000  0.5092760000000 1.0
C      1  0.4432870000000  0.5014020000000  0.4035520000000 1.0
C      1  0.5580010000000  0.4548850000000  0.5834450000000 1.0
C      1  0.4993900000000  0.4345290000000  0.3929850000000 1.0
C      1  0.5387460000000  0.5813810000000  0.5303220000000 1.0
C      1  0.4566350000000  0.5411070000000  0.4655980000000 1.0
C      1  0.5371540000000  0.5312300000000  0.5446090000000 1.0
C      1  0.4405640000000  0.5247230000000  0.5718380000000 1.0
C      1  0.5128790000000  0.4137410000000  0.4166440000000 1.0
C      1  0.5580580000000  0.4798140000000  0.4150460000000 1.0
C      1  0.4947780000000  0.6029830000000  0.4670010000000 1.0
C      1  0.5217370000000  0.5912510000000  0.4807200000000 1.0
C      1  0.5237320000000  0.3975720000000  0.4369200000000 1.0
C      1  0.5847000000000  0.5592520000000  0.5460050000000 1.0
C      1  0.4845480000000  0.4647500000000  0.3979530000000 1.0
C      1  0.5914230000000  0.5078440000000  0.4343620000000 1.0
C      1  0.5471650000000  0.4030900000000  0.5383670000000 1.0
C      1  0.5163730000000  0.5424470000000  0.5016070000000 1.0
C      1  0.4048400000000  0.4576740000000  0.5564080000000 1.0
C      1  0.3939740000000  0.5034320000000  0.5094390000000 1.0
C      1  0.5527430000000  0.5270220000000  0.4764490000000 1.0
C      1  0.4166710000000  0.4387130000000  0.4891880000000 1.0
C      1  0.4513500000000  0.4521250000000  0.4083360000000 1.0
C      1  0.4661910000000  0.4125630000000  0.4340580000000 1.0
C      1  0.4576590000000  0.4212030000000  0.5504080000000 1.0
C      1  0.5860290000000  0.5347830000000  0.5789360000000 1.0
C      1  0.4474500000000  0.5765440000000  0.5691000000000 1.0
C      1  0.5862100000000  0.5502400000000  0.4961920000000 1.0
C      1  0.4761940000000  0.4965580000000  0.5602630000000 1.0
C      1  0.4273430000000  0.5505780000000  0.5646020000000 1.0
C      1  0.4443510000000  0.5038560000000  0.5097850000000 1.0
C      1  0.4258650000000  0.6023190000000  0.4958170000000 1.0
C      1  0.4711980000000  0.4900100000000  0.4957880000000 1.0
C      1  0.5688650000000  0.4279800000000  0.4226140000000 1.0
C      1  0.5717350000000  0.5644980000000  0.5747730000000 1.0
C      1  0.5479740000000  0.5945260000000  0.4593370000000 1.0
C      1  0.4967950000000  0.4660400000000  0.5449090000000 1.0
C      1  0.4667260000000  0.5413830000000  0.5700940000000 1.0
C      1  0.5522700000000  0.4860290000000  0.5395000000000 1.0
C      1  0.5065190000000  0.5613560000000  0.4751070000000 1.0
C      1  0.5906400000000  0.4421440000000  0.4727030000000 1.0
C      1  0.5563110000000  0.6076420000000  0.5409120000000 1.0
C      1  0.4341550000000  0.5481910000000  0.5066220000000 1.0
C      1  0.5992390000000  0.4579900000000  0.5132280000000 1.0
C      1  0.4686610000000  0.4508570000000  0.5416880000000 1.0
C      1  0.5625060000000  0.5179540000000  0.4488450000000 1.0
C      1  0.5123920000000  0.5380450000000  0.3982960000000 1.0
C      1  0.5484610000000  0.5425940000000  0.5063710000000 1.0
C      1  0.4551660000000  0.4788210000000  0.3926770000000 1.0
C      1  0.4493300000000  0.6050260000000  0.5110930000000 1.0
C      1  0.5477860000000  0.4522260000000  0.4248820000000 1.0
C      1  0.5456100000000  0.5034380000000  0.4967690000000 1.0
C      1  0.5317500000000  0.5288500000000  0.5761440000000 1.0
C      1  0.5014550000000  0.4168140000000  0.5711220000000 1.0
C      1  0.4616990000000  0.4988260000000  0.4393480000000 1.0
C      1  0.4738380000000  0.4206820000000  0.5762070000000 1.0
C      1  0.5181000000000  0.4383350000000  0.5259180000000 1.0
C      1  0.4408580000000  0.4562240000000  0.4371060000000 1.0
C      1  0.4211670000000  0.5786910000000  0.5475870000000 1.0
C      1  0.5992910000000  0.4685330000000  0.4745390000000 1.0
C      1  0.4709070000000  0.5081310000000  0.5917950000000 1.0
C      1  0.5354870000000  0.5022190000000  0.5919940000000 1.0
C      1  0.4789330000000  0.5705070000000  0.5457830000000 1.0
C      1  0.4911680000000  0.5959470000000  0.5174580000000 1.0
C      1  0.5445570000000  0.5541740000000  0.5914190000000 1.0
C      1  0.5867740000000  0.4836930000000  0.4204120000000 1.0
C      1  0.4670890000000  0.5669570000000  0.5925000000000 1.0
C      1  0.5248740000000  0.5018440000000  0.5331410000000 1.0
C      1  0.5199710000000  0.4291810000000  0.5888170000000 1.0
C      1  0.5192010000000  0.6025550000000  0.4430960000000 1.0
C      1  0.5856410000000  0.4710750000000  0.5584220000000 1.0
C      1  0.4744530000000  0.4548220000000  0.4770660000000 1.0
C      1  0.5767100000000  0.4202010000000  0.4916440000000 1.0
C      1  0.5296680000000  0.4387380000000  0.4595740000000 1.0
C      1  0.4630480000000  0.3955840000000  0.5310410000000 1.0
C      1  0.5031530000000  0.5148780000000  0.6002780000000 1.0
C      1  0.4710210000000  0.4289300000000  0.4093320000000 1.0
C      1  0.5557190000000  0.4050180000000  0.4798940000000 1.0
END
