TITL C-3371505-1292-70 -0.00152624940085619 125000 -846.41231845578 0 0 163 (C1) n - 1
REM
REM in /nfs/bkarasulu/CARBON/AIRSS/Generating-Clusters/AIREBO/with-SteepDescent/Only-C1/SD-CG-opt/Try1-1.4A-POS3A/HFTN-CG
REM
REM
REM
REM
REM
REM ./C.cell (11c1c37f851c82e70ff6c80c92926a4b)
REM
REM compiler GCC version 9.2.1 20190827 (Red Hat 9.2.1-1)
REM options -cpp -mtune=generic -march=x86-64 -g -O0 -fpre-include=/usr/include/finclude/math-vector-fortran.h
REM seed 852167332 -434016794 602601424 1090611963 -254867961 -228144151 -798142378 -1722196281 1199042636 1606135466 1294805201 -1787070644 1387384868 249219170 131961277 -1686766619 -2002134301 416199145 339708711 807905937 -706157444 1393598367 -1909989825 1826392755 579629605 -1076654525 267272359 -1111386254 1724382607 -699670558 1591201131 1754639486 -1078711721
REM
CELL 1.54180   50.00000   50.00000   50.00000   90.00000   90.00000   90.00000
LATT -1
SFAC C  
C      1  0.5062950000000  0.5844300000000  0.5568980000000 1.0
C      1  0.4810730000000  0.5328430000000  0.4026180000000 1.0
C      1  0.4843580000000  0.5482220000000  0.4322790000000 1.0
C      1  0.5037840000000  0.5205450000000  0.5279470000000 1.0
C      1  0.5702140000000  0.4907830000000  0.5358910000000 1.0
C      1  0.5072890000000  0.5636490000000  0.5911090000000 1.0
C      1  0.5452060000000  0.5058320000000  0.5001680000000 1.0
C      1  0.4391760000000  0.4778890000000  0.4863890000000 1.0
C      1  0.5168910000000  0.4773180000000  0.5690340000000 1.0
C      1  0.4708410000000  0.4878230000000  0.5173740000000 1.0
C      1  0.5031510000000  0.4285840000000  0.5622690000000 1.0
C      1  0.5369980000000  0.4373130000000  0.4798110000000 1.0
C      1  0.4553590000000  0.5751910000000  0.4310780000000 1.0
C      1  0.4351770000000  0.5960690000000  0.4737240000000 1.0
C      1  0.5703900000000  0.4752650000000  0.5056270000000 1.0
C      1  0.5088540000000  0.4822860000000  0.4175330000000 1.0
C      1  0.4292870000000  0.5697810000000  0.5186510000000 1.0
C      1  0.4466300000000  0.4742170000000  0.4189670000000 1.0
C      1  0.5431740000000  0.4677890000000  0.4889130000000 1.0
C      1  0.5377990000000  0.4390480000000  0.4167940000000 1.0
C      1  0.4745630000000  0.5888400000000  0.4495110000000 1.0
C      1  0.3934970000000  0.5294900000000  0.4794450000000 1.0
C      1  0.5886340000000  0.5080020000000  0.4498670000000 1.0
C      1  0.5494050000000  0.5085540000000  0.4424960000000 1.0
C      1  0.4092530000000  0.4436190000000  0.5014470000000 1.0
C      1  0.5709430000000  0.4231430000000  0.4997510000000 1.0
C      1  0.4706260000000  0.4287760000000  0.5717460000000 1.0
C      1  0.4794460000000  0.4157190000000  0.4457110000000 1.0
C      1  0.4196510000000  0.4465160000000  0.5334940000000 1.0
C      1  0.4983970000000  0.4944950000000  0.6074220000000 1.0
C      1  0.4553450000000  0.4268530000000  0.4634420000000 1.0
C      1  0.4514770000000  0.4976700000000  0.4619330000000 1.0
C      1  0.4424510000000  0.4750900000000  0.5762580000000 1.0
C      1  0.5058500000000  0.5829550000000  0.4517750000000 1.0
C      1  0.5161240000000  0.5222170000000  0.5003330000000 1.0
C      1  0.5501340000000  0.4633600000000  0.5373930000000 1.0
C      1  0.4784760000000  0.5365210000000  0.5298380000000 1.0
C      1  0.4086720000000  0.4827720000000  0.4553300000000 1.0
C      1  0.5243420000000  0.5167750000000  0.4043560000000 1.0
C      1  0.4649100000000  0.4286410000000  0.5181940000000 1.0
C      1  0.4614480000000  0.5610580000000  0.5749570000000 1.0
C      1  0.4798350000000  0.4385520000000  0.4280680000000 1.0
C      1  0.5232130000000  0.4377710000000  0.5874670000000 1.0
C      1  0.4686350000000  0.5625400000000  0.4057150000000 1.0
C      1  0.3998100000000  0.4723440000000  0.4868990000000 1.0
C      1  0.5754350000000  0.5167880000000  0.4236300000000 1.0
C      1  0.5380480000000  0.4660910000000  0.4110830000000 1.0
C      1  0.5300320000000  0.5045150000000  0.5534090000000 1.0
C      1  0.4932380000000  0.4647910000000  0.4759860000000 1.0
C      1  0.4611080000000  0.5160780000000  0.4360150000000 1.0
C      1  0.5182260000000  0.4677880000000  0.6003540000000 1.0
C      1  0.4622660000000  0.5988660000000  0.4725710000000 1.0
C      1  0.5299690000000  0.4061420000000  0.4691560000000 1.0
C      1  0.4833980000000  0.4017170000000  0.5276560000000 1.0
C      1  0.5193540000000  0.5692980000000  0.5206310000000 1.0
C      1  0.5329770000000  0.4373800000000  0.5374980000000 1.0
C      1  0.4258470000000  0.5708380000000  0.4868060000000 1.0
C      1  0.5605060000000  0.5312910000000  0.5304650000000 1.0
C      1  0.5652710000000  0.5808240000000  0.4624480000000 1.0
C      1  0.4084550000000  0.4991110000000  0.5639210000000 1.0
C      1  0.4082320000000  0.4288200000000  0.4707410000000 1.0
C      1  0.5298580000000  0.4872150000000  0.5241270000000 1.0
C      1  0.4905880000000  0.5644820000000  0.5349900000000 1.0
C      1  0.6040710000000  0.4877240000000  0.5249710000000 1.0
C      1  0.5785850000000  0.5352650000000  0.5019360000000 1.0
C      1  0.5593320000000  0.5038810000000  0.5805620000000 1.0
C      1  0.5660460000000  0.4185240000000  0.5496870000000 1.0
C      1  0.5137750000000  0.5311670000000  0.4324480000000 1.0
C      1  0.5577980000000  0.5368860000000  0.4593300000000 1.0
C      1  0.5897910000000  0.5659850000000  0.5112750000000 1.0
C      1  0.4542370000000  0.5133040000000  0.5988290000000 1.0
C      1  0.5897800000000  0.4575840000000  0.5268370000000 1.0
C      1  0.4830210000000  0.5514000000000  0.5910470000000 1.0
C      1  0.4159210000000  0.4948050000000  0.5046380000000 1.0
C      1  0.4852500000000  0.5224090000000  0.5931040000000 1.0
C      1  0.5130970000000  0.5519830000000  0.4593380000000 1.0
C      1  0.5259730000000  0.5574590000000  0.5633800000000 1.0
C      1  0.5258830000000  0.4859950000000  0.4467400000000 1.0
C      1  0.4694310000000  0.5510540000000  0.4627220000000 1.0
C      1  0.5097650000000  0.5907840000000  0.4953190000000 1.0
C      1  0.5114230000000  0.4754510000000  0.4984680000000 1.0
C      1  0.4206340000000  0.5285810000000  0.4207660000000 1.0
C      1  0.4268300000000  0.4376570000000  0.4511520000000 1.0
C      1  0.4635110000000  0.4965710000000  0.4107430000000 1.0
C      1  0.5445600000000  0.4335440000000  0.4468520000000 1.0
C      1  0.5836020000000  0.4801940000000  0.4781510000000 1.0
C      1  0.4217630000000  0.4621070000000  0.4373550000000 1.0
C      1  0.5508090000000  0.4748090000000  0.5694190000000 1.0
C      1  0.5000430000000  0.4073950000000  0.4681650000000 1.0
C      1  0.5583990000000  0.5667270000000  0.5598280000000 1.0
C      1  0.4618950000000  0.4597610000000  0.4687010000000 1.0
C      1  0.4922950000000  0.5286670000000  0.4689110000000 1.0
C      1  0.5167250000000  0.3990920000000  0.5061660000000 1.0
C      1  0.4715360000000  0.4854260000000  0.5886350000000 1.0
C      1  0.5271420000000  0.5265410000000  0.5776160000000 1.0
C      1  0.4568060000000  0.4593950000000  0.5081320000000 1.0
C      1  0.4760660000000  0.5942750000000  0.5010970000000 1.0
C      1  0.4410210000000  0.5080320000000  0.5679450000000 1.0
C      1  0.5793690000000  0.5785240000000  0.5369960000000 1.0
C      1  0.5767880000000  0.4561840000000  0.5572750000000 1.0
C      1  0.4696660000000  0.5032140000000  0.4896860000000 1.0
C      1  0.5518330000000  0.5166480000000  0.4034090000000 1.0
C      1  0.5793050000000  0.4464030000000  0.4795790000000 1.0
C      1  0.5757740000000  0.4360900000000  0.4541410000000 1.0
C      1  0.4924190000000  0.5050520000000  0.4367250000000 1.0
C      1  0.4845600000000  0.3961710000000  0.4949820000000 1.0
C      1  0.5226270000000  0.4308030000000  0.5065160000000 1.0
C      1  0.4938790000000  0.4960220000000  0.4684530000000 1.0
C      1  0.5575960000000  0.5330500000000  0.5639690000000 1.0
C      1  0.4077550000000  0.5208010000000  0.5203070000000 1.0
C      1  0.4573680000000  0.5246170000000  0.5094290000000 1.0
C      1  0.5706930000000  0.5119000000000  0.4784940000000 1.0
C      1  0.4896560000000  0.4338320000000  0.4826440000000 1.0
C      1  0.4722130000000  0.5829790000000  0.5555210000000 1.0
C      1  0.4963590000000  0.4516200000000  0.4098160000000 1.0
C      1  0.4583740000000  0.5858140000000  0.5251380000000 1.0
C      1  0.4520570000000  0.5541080000000  0.5367440000000 1.0
C      1  0.4334350000000  0.4766650000000  0.5258780000000 1.0
C      1  0.4950550000000  0.4430820000000  0.5147090000000 1.0
C      1  0.5336890000000  0.5769250000000  0.4332020000000 1.0
C      1  0.4105260000000  0.5246880000000  0.5485030000000 1.0
C      1  0.4474000000000  0.4457620000000  0.5850210000000 1.0
C      1  0.5254980000000  0.5037970000000  0.4741090000000 1.0
C      1  0.4611040000000  0.4566700000000  0.4376440000000 1.0
C      1  0.5290290000000  0.5397870000000  0.5344880000000 1.0
C      1  0.4437260000000  0.5448550000000  0.4411520000000 1.0
C      1  0.4220710000000  0.5369720000000  0.4661560000000 1.0
C      1  0.5307830000000  0.5000270000000  0.5986690000000 1.0
C      1  0.5463150000000  0.5828200000000  0.5320650000000 1.0
C      1  0.4869190000000  0.5679310000000  0.4847420000000 1.0
C      1  0.4101460000000  0.5460600000000  0.5031150000000 1.0
C      1  0.4662690000000  0.4644040000000  0.5550870000000 1.0
C      1  0.5428350000000  0.4278330000000  0.5668990000000 1.0
C      1  0.3872500000000  0.5012690000000  0.4741740000000 1.0
C      1  0.5609420000000  0.6049080000000  0.4840430000000 1.0
C      1  0.4496370000000  0.4366550000000  0.5461630000000 1.0
C      1  0.5847650000000  0.5570750000000  0.4635240000000 1.0
C      1  0.4866250000000  0.4575280000000  0.5814590000000 1.0
C      1  0.5331560000000  0.5906220000000  0.4706270000000 1.0
C      1  0.5132080000000  0.4089990000000  0.5385060000000 1.0
C      1  0.6056930000000  0.5415830000000  0.4823780000000 1.0
C      1  0.5908530000000  0.5172780000000  0.5353600000000 1.0
C      1  0.4958070000000  0.4554650000000  0.5427850000000 1.0
C      1  0.4228550000000  0.4132870000000  0.4942940000000 1.0
C      1  0.4466180000000  0.5439090000000  0.4869040000000 1.0
C      1  0.4979210000000  0.4886710000000  0.5357840000000 1.0
C      1  0.4540110000000  0.4115250000000  0.4911730000000 1.0
C      1  0.4934930000000  0.5041860000000  0.3965240000000 1.0
C      1  0.6084950000000  0.4869260000000  0.4559870000000 1.0
C      1  0.4500570000000  0.5045260000000  0.5360520000000 1.0
C      1  0.4234690000000  0.5105690000000  0.4475600000000 1.0
C      1  0.6055160000000  0.5146470000000  0.5041810000000 1.0
C      1  0.5492200000000  0.4659130000000  0.4555020000000 1.0
C      1  0.5464090000000  0.5547320000000  0.4857420000000 1.0
C      1  0.5492700000000  0.4030890000000  0.4957620000000 1.0
C      1  0.4369910000000  0.5415190000000  0.5616450000000 1.0
C      1  0.5791580000000  0.4283360000000  0.5264970000000 1.0
C      1  0.5594640000000  0.4804020000000  0.4262970000000 1.0
C      1  0.5157630000000  0.5514150000000  0.4919350000000 1.0
C      1  0.4086180000000  0.4751340000000  0.5490870000000 1.0
C      1  0.5602440000000  0.5770190000000  0.5019050000000 1.0
C      1  0.5420690000000  0.5500390000000  0.4322020000000 1.0
C      1  0.4926220000000  0.5010460000000  0.5670090000000 1.0
END
