TITL C-3371499-8025-53 -0.000281314661729678 125000 -523.973849965133 0 0 95 (C1) n - 1
REM
REM in /nfs/bkarasulu/CARBON/AIRSS/Generating-Clusters/AIREBO/with-SteepDescent/Only-C1/SD-CG-opt/Try1-1.4A-POS3A/HFTN-CG
REM
REM
REM
REM
REM
REM ./C.cell (11c1c37f851c82e70ff6c80c92926a4b)
REM
REM compiler GCC version 9.2.1 20190827 (Red Hat 9.2.1-1)
REM options -cpp -mtune=generic -march=x86-64 -g -O0 -fpre-include=/usr/include/finclude/math-vector-fortran.h
REM seed -1654172118 1827141095 1139128108 -608137512 -47529269 262219830 1003363399 -1465386013 -2075070203 -376422685 1146459829 745601360 -831464306 -2079880526 1607283799 -511550481 -424572544 -2002153012 1031770190 -173494464 -1936423896 -1521184315 -2057638874 647550717 -231645239 -142356481 -9091923 1212827189 675496935 -324980573 1757982701 710464998 1310884825
REM
CELL 1.54180   50.00000   50.00000   50.00000   90.00000   90.00000   90.00000
LATT -1
SFAC C  
C      1  0.5111810000000  0.4771270000000  0.5049380000000 1.0
C      1  0.4085880000000  0.5486360000000  0.4724670000000 1.0
C      1  0.5426210000000  0.4965770000000  0.4458830000000 1.0
C      1  0.5146290000000  0.5753170000000  0.5194520000000 1.0
C      1  0.5424720000000  0.4490040000000  0.5777330000000 1.0
C      1  0.4494490000000  0.4878020000000  0.5482630000000 1.0
C      1  0.5344710000000  0.5748600000000  0.4453870000000 1.0
C      1  0.4947580000000  0.5135620000000  0.5862610000000 1.0
C      1  0.5920170000000  0.4838770000000  0.5093710000000 1.0
C      1  0.5539140000000  0.4315950000000  0.5070130000000 1.0
C      1  0.4322390000000  0.4528740000000  0.5118390000000 1.0
C      1  0.4423320000000  0.4586220000000  0.5385470000000 1.0
C      1  0.4784240000000  0.4448490000000  0.4460970000000 1.0
C      1  0.5070840000000  0.4066370000000  0.4600320000000 1.0
C      1  0.5436230000000  0.4591810000000  0.4899820000000 1.0
C      1  0.5135980000000  0.4527190000000  0.5281590000000 1.0
C      1  0.4717930000000  0.4221960000000  0.5599350000000 1.0
C      1  0.5196790000000  0.5607580000000  0.5646340000000 1.0
C      1  0.4308420000000  0.4835910000000  0.4464870000000 1.0
C      1  0.5459960000000  0.4620780000000  0.5238030000000 1.0
C      1  0.5607830000000  0.5545570000000  0.4888960000000 1.0
C      1  0.4036980000000  0.4943560000000  0.4980270000000 1.0
C      1  0.5257320000000  0.5141380000000  0.5796840000000 1.0
C      1  0.4192140000000  0.5311030000000  0.4525140000000 1.0
C      1  0.4708100000000  0.4940760000000  0.5720130000000 1.0
C      1  0.5632260000000  0.4362740000000  0.4742360000000 1.0
C      1  0.4983590000000  0.5456530000000  0.4982540000000 1.0
C      1  0.4629570000000  0.5515300000000  0.4064110000000 1.0
C      1  0.4657640000000  0.5705870000000  0.3886430000000 1.0
C      1  0.5262920000000  0.5244600000000  0.4739900000000 1.0
C      1  0.4901330000000  0.5212740000000  0.5197090000000 1.0
C      1  0.5205590000000  0.5788220000000  0.4697210000000 1.0
C      1  0.5426840000000  0.5592370000000  0.5173010000000 1.0
C      1  0.5017690000000  0.5665260000000  0.5432620000000 1.0
C      1  0.5230040000000  0.5124990000000  0.5207030000000 1.0
C      1  0.4693210000000  0.4428240000000  0.5411580000000 1.0
C      1  0.4927670000000  0.4695190000000  0.5811630000000 1.0
C      1  0.4527070000000  0.4599210000000  0.4573390000000 1.0
C      1  0.5244170000000  0.4651410000000  0.5924490000000 1.0
C      1  0.5563360000000  0.4522630000000  0.5554170000000 1.0
C      1  0.5213720000000  0.5226450000000  0.4408320000000 1.0
C      1  0.5322960000000  0.4287710000000  0.4666820000000 1.0
C      1  0.4975030000000  0.4975290000000  0.4142520000000 1.0
C      1  0.4709350000000  0.4330340000000  0.5107230000000 1.0
C      1  0.4402070000000  0.5277460000000  0.4861820000000 1.0
C      1  0.4768660000000  0.5268750000000  0.5645670000000 1.0
C      1  0.5024130000000  0.4614450000000  0.4448840000000 1.0
C      1  0.5158000000000  0.4557810000000  0.4717490000000 1.0
C      1  0.4539430000000  0.4859610000000  0.5087080000000 1.0
C      1  0.4681360000000  0.4191860000000  0.4852760000000 1.0
C      1  0.5342760000000  0.5375840000000  0.5625300000000 1.0
C      1  0.5710870000000  0.5317140000000  0.4762150000000 1.0
C      1  0.5810250000000  0.5002960000000  0.5440870000000 1.0
C      1  0.5748980000000  0.5083250000000  0.4955410000000 1.0
C      1  0.5034150000000  0.5850970000000  0.4949880000000 1.0
C      1  0.4139250000000  0.5042360000000  0.4452820000000 1.0
C      1  0.4524280000000  0.6067780000000  0.4974130000000 1.0
C      1  0.4527790000000  0.5553140000000  0.5327340000000 1.0
C      1  0.5323450000000  0.4107930000000  0.5127230000000 1.0
C      1  0.4814530000000  0.4196170000000  0.4598400000000 1.0
C      1  0.4288080000000  0.5046850000000  0.5044180000000 1.0
C      1  0.4585260000000  0.4576210000000  0.4907750000000 1.0
C      1  0.4722560000000  0.5066060000000  0.4238710000000 1.0
C      1  0.4329650000000  0.5105880000000  0.5351090000000 1.0
C      1  0.5427520000000  0.5485160000000  0.4390570000000 1.0
C      1  0.4739940000000  0.5779590000000  0.4906870000000 1.0
C      1  0.4498500000000  0.5379110000000  0.4525360000000 1.0
C      1  0.5794530000000  0.4635870000000  0.4710450000000 1.0
C      1  0.4329360000000  0.5369420000000  0.5417400000000 1.0
C      1  0.5207010000000  0.4081900000000  0.4881610000000 1.0
C      1  0.4958740000000  0.5247560000000  0.4626230000000 1.0
C      1  0.4480170000000  0.5691420000000  0.5086810000000 1.0
C      1  0.5263690000000  0.5531240000000  0.4881000000000 1.0
C      1  0.4772140000000  0.4929230000000  0.5293180000000 1.0
C      1  0.5344310000000  0.4900070000000  0.5998760000000 1.0
C      1  0.4629290000000  0.4900570000000  0.4465680000000 1.0
C      1  0.4289020000000  0.5560040000000  0.4931230000000 1.0
C      1  0.4798050000000  0.4970230000000  0.4709710000000 1.0
C      1  0.5145160000000  0.4832390000000  0.4321130000000 1.0
C      1  0.4624090000000  0.5324030000000  0.4259810000000 1.0
C      1  0.5560490000000  0.4877310000000  0.4761120000000 1.0
C      1  0.5701440000000  0.5181800000000  0.5262070000000 1.0
C      1  0.4799770000000  0.5451900000000  0.5407190000000 1.0
C      1  0.4889310000000  0.4714150000000  0.4843260000000 1.0
C      1  0.5153730000000  0.4217760000000  0.5317170000000 1.0
C      1  0.5436300000000  0.5328560000000  0.5330850000000 1.0
C      1  0.5136110000000  0.4882720000000  0.5619220000000 1.0
C      1  0.4701380000000  0.5183650000000  0.4923580000000 1.0
C      1  0.4731560000000  0.5476330000000  0.4753180000000 1.0
C      1  0.6001710000000  0.4675610000000  0.4887100000000 1.0
C      1  0.5770750000000  0.4700030000000  0.5351130000000 1.0
C      1  0.5594590000000  0.5259470000000  0.4515060000000 1.0
C      1  0.5302560000000  0.5010760000000  0.4925950000000 1.0
C      1  0.4913750000000  0.4683250000000  0.5456480000000 1.0
C      1  0.5306040000000  0.4890330000000  0.5375320000000 1.0
END
