TITL C-3371514-4997-7 0.00203084338480062 125000 -106.25507166504 0 0 20 (C1) n - 1
REM
REM in /nfs/bkarasulu/CARBON/AIRSS/Generating-Clusters/AIREBO/with-SteepDescent/Only-C1/SD-CG-opt/Try1-1.4A-POS3A/HFTN-CG
REM
REM
REM
REM
REM
REM ./C.cell (11c1c37f851c82e70ff6c80c92926a4b)
REM
REM compiler GCC version 9.2.1 20190827 (Red Hat 9.2.1-1)
REM options -cpp -mtune=generic -march=x86-64 -g -O0 -fpre-include=/usr/include/finclude/math-vector-fortran.h
REM seed -1328711649 -1506002215 358213364 1289243149 -1845967200 387176977 842604985 -1781858330 57116740 904899395 1712274895 790849947 -505822446 -19868763 165786848 -1700691139 678976611 159000634 -919379445 1003437777 1792420101 2116963967 -886948009 1120532056 -1231582997 -1094820633 -1405304276 -1926939313 1162193395 2105993972 1649269027 1420889841 -1020218152
REM
CELL 1.54180   50.00000   50.00000   50.00000   90.00000   90.00000   90.00000
LATT -1
SFAC C  
C      1  0.4664290000000  0.4634220000000  0.5084940000000 1.0
C      1  0.4898610000000  0.4980250000000  0.5457500000000 1.0
C      1  0.4802680000000  0.5240390000000  0.5590450000000 1.0
C      1  0.5105590000000  0.5253870000000  0.5107530000000 1.0
C      1  0.4826150000000  0.4455880000000  0.4692330000000 1.0
C      1  0.5304340000000  0.5447990000000  0.4698640000000 1.0
C      1  0.4821740000000  0.4675280000000  0.5586730000000 1.0
C      1  0.4662380000000  0.4410250000000  0.4914930000000 1.0
C      1  0.5126620000000  0.5107730000000  0.4400100000000 1.0
C      1  0.5213120000000  0.4894130000000  0.4610000000000 1.0
C      1  0.4849320000000  0.4837310000000  0.4993290000000 1.0
C      1  0.5381270000000  0.4996050000000  0.4811790000000 1.0
C      1  0.5224380000000  0.5368270000000  0.4443320000000 1.0
C      1  0.4937450000000  0.4752390000000  0.4701380000000 1.0
C      1  0.5301770000000  0.5252510000000  0.4906500000000 1.0
C      1  0.4959100000000  0.5017500000000  0.5165400000000 1.0
C      1  0.5036630000000  0.5483150000000  0.5257720000000 1.0
C      1  0.5101220000000  0.4775450000000  0.5641140000000 1.0
C      1  0.4918690000000  0.5475350000000  0.5507160000000 1.0
C      1  0.4864660000000  0.4942030000000  0.4429150000000 1.0
END
