TITL C-3371502-3785-66 -0.000830487474217159 125000 -929.725103520738 0 0 178 (C1) n - 1
REM
REM in /nfs/bkarasulu/CARBON/AIRSS/Generating-Clusters/AIREBO/with-SteepDescent/Only-C1/SD-CG-opt/Try1-1.4A-POS3A/HFTN-CG
REM
REM
REM
REM
REM
REM ./C.cell (11c1c37f851c82e70ff6c80c92926a4b)
REM
REM compiler GCC version 9.2.1 20190827 (Red Hat 9.2.1-1)
REM options -cpp -mtune=generic -march=x86-64 -g -O0 -fpre-include=/usr/include/finclude/math-vector-fortran.h
REM seed -1661941542 1655195647 -83471375 -1566646161 -1740747126 -50939132 -794848144 -413500073 -1964656216 -84924075 1765934967 634116778 2075396641 1325037948 962252836 1707698469 2086434033 2064320606 -984416023 -209508204 -560885045 -472931915 -819063250 -184077157 952614442 639067560 -1364322328 566769104 362504191 -1213363466 2098969797 183875407 1604734397
REM
CELL 1.54180   50.00000   50.00000   50.00000   90.00000   90.00000   90.00000
LATT -1
SFAC C  
C      1  0.5278770000000  0.5106890000000  0.5857600000000 1.0
C      1  0.4439960000000  0.4295310000000  0.5184190000000 1.0
C      1  0.4223530000000  0.4828690000000  0.5372300000000 1.0
C      1  0.4491800000000  0.5134630000000  0.5453730000000 1.0
C      1  0.4305040000000  0.4630390000000  0.4550770000000 1.0
C      1  0.5463480000000  0.4254980000000  0.4368050000000 1.0
C      1  0.5213440000000  0.5615200000000  0.5788130000000 1.0
C      1  0.5535670000000  0.5557010000000  0.5391380000000 1.0
C      1  0.5674280000000  0.5024540000000  0.5625770000000 1.0
C      1  0.4403980000000  0.4300840000000  0.5574660000000 1.0
C      1  0.5182390000000  0.4177480000000  0.5492780000000 1.0
C      1  0.5433080000000  0.5688160000000  0.4722560000000 1.0
C      1  0.4988190000000  0.6055280000000  0.4613840000000 1.0
C      1  0.4464930000000  0.5015280000000  0.4083530000000 1.0
C      1  0.4891570000000  0.5667440000000  0.5246030000000 1.0
C      1  0.4762960000000  0.4850110000000  0.4377730000000 1.0
C      1  0.4000870000000  0.5762940000000  0.4611160000000 1.0
C      1  0.4410360000000  0.4625460000000  0.5262010000000 1.0
C      1  0.5931680000000  0.5202430000000  0.5517230000000 1.0
C      1  0.3902670000000  0.5185990000000  0.5028960000000 1.0
C      1  0.4996720000000  0.5621270000000  0.6014320000000 1.0
C      1  0.5158030000000  0.5043040000000  0.4051570000000 1.0
C      1  0.4480280000000  0.5403080000000  0.4292860000000 1.0
C      1  0.4932380000000  0.4613510000000  0.4105610000000 1.0
C      1  0.4825170000000  0.4533350000000  0.4478280000000 1.0
C      1  0.4980410000000  0.5935010000000  0.5055680000000 1.0
C      1  0.4223330000000  0.5526750000000  0.4713380000000 1.0
C      1  0.5670160000000  0.4020010000000  0.5406970000000 1.0
C      1  0.5806900000000  0.4665100000000  0.5733690000000 1.0
C      1  0.5242220000000  0.5863580000000  0.5617820000000 1.0
C      1  0.5178110000000  0.4642820000000  0.4339380000000 1.0
C      1  0.4577970000000  0.4440520000000  0.4829370000000 1.0
C      1  0.4573970000000  0.4239250000000  0.4551680000000 1.0
C      1  0.4159410000000  0.5086170000000  0.4212290000000 1.0
C      1  0.3945820000000  0.5437760000000  0.5240610000000 1.0
C      1  0.6074600000000  0.5001550000000  0.5282500000000 1.0
C      1  0.4964720000000  0.4427120000000  0.4725410000000 1.0
C      1  0.5010890000000  0.5899910000000  0.5463900000000 1.0
C      1  0.4435000000000  0.5121040000000  0.4818260000000 1.0
C      1  0.4991230000000  0.5531560000000  0.4677820000000 1.0
C      1  0.5274330000000  0.4248740000000  0.4104310000000 1.0
C      1  0.4919560000000  0.4371070000000  0.5421700000000 1.0
C      1  0.4413450000000  0.5164660000000  0.4506370000000 1.0
C      1  0.5120590000000  0.4776780000000  0.5018520000000 1.0
C      1  0.4304820000000  0.5743900000000  0.4962260000000 1.0
C      1  0.5335760000000  0.5897590000000  0.5232960000000 1.0
C      1  0.5392960000000  0.4627210000000  0.5361510000000 1.0
C      1  0.4591820000000  0.3931370000000  0.4806000000000 1.0
C      1  0.4721310000000  0.6080400000000  0.4572650000000 1.0
C      1  0.5715910000000  0.5783980000000  0.5255550000000 1.0
C      1  0.4687170000000  0.4539610000000  0.6044460000000 1.0
C      1  0.5508960000000  0.4916070000000  0.5841580000000 1.0
C      1  0.5481320000000  0.3842090000000  0.5309840000000 1.0
C      1  0.5820840000000  0.5090330000000  0.4563760000000 1.0
C      1  0.4047380000000  0.4532240000000  0.5131910000000 1.0
C      1  0.4325980000000  0.4599070000000  0.4948630000000 1.0
C      1  0.5263830000000  0.3954820000000  0.4702660000000 1.0
C      1  0.4978630000000  0.4948730000000  0.5880340000000 1.0
C      1  0.5171270000000  0.5458520000000  0.4156740000000 1.0
C      1  0.5635960000000  0.5441390000000  0.4996010000000 1.0
C      1  0.6041910000000  0.4921090000000  0.4765720000000 1.0
C      1  0.6052910000000  0.4363930000000  0.5189290000000 1.0
C      1  0.5133740000000  0.5159640000000  0.5578410000000 1.0
C      1  0.5419210000000  0.5389440000000  0.5822860000000 1.0
C      1  0.4816270000000  0.5683790000000  0.4247280000000 1.0
C      1  0.4761250000000  0.5023110000000  0.5629140000000 1.0
C      1  0.4672230000000  0.4662110000000  0.5421330000000 1.0
C      1  0.4732040000000  0.5605350000000  0.5540350000000 1.0
C      1  0.4612160000000  0.5538760000000  0.4558920000000 1.0
C      1  0.4200140000000  0.5311330000000  0.4961090000000 1.0
C      1  0.5545540000000  0.4940910000000  0.4459750000000 1.0
C      1  0.5084770000000  0.5187250000000  0.3761710000000 1.0
C      1  0.5221540000000  0.5585890000000  0.5264280000000 1.0
C      1  0.5439360000000  0.5566570000000  0.4335930000000 1.0
C      1  0.5513850000000  0.5942700000000  0.5481150000000 1.0
C      1  0.5329470000000  0.4925970000000  0.5243280000000 1.0
C      1  0.5038580000000  0.3949070000000  0.5030690000000 1.0
C      1  0.4958830000000  0.5377290000000  0.3961670000000 1.0
C      1  0.4548700000000  0.4806510000000  0.5780900000000 1.0
C      1  0.4261450000000  0.5112380000000  0.5205320000000 1.0
C      1  0.5455290000000  0.3971180000000  0.4494330000000 1.0
C      1  0.3918400000000  0.4961660000000  0.5353990000000 1.0
C      1  0.5071230000000  0.4677640000000  0.5437250000000 1.0
C      1  0.5568950000000  0.4928170000000  0.4873440000000 1.0
C      1  0.5806620000000  0.4464260000000  0.4654710000000 1.0
C      1  0.4900780000000  0.5171640000000  0.6124740000000 1.0
C      1  0.4440650000000  0.5122440000000  0.5845920000000 1.0
C      1  0.4837220000000  0.4127620000000  0.4493540000000 1.0
C      1  0.4614340000000  0.5634810000000  0.5051500000000 1.0
C      1  0.5168810000000  0.4695520000000  0.5756500000000 1.0
C      1  0.5388900000000  0.4639840000000  0.4886300000000 1.0
C      1  0.4826030000000  0.5410140000000  0.6015330000000 1.0
C      1  0.4956330000000  0.5435150000000  0.5002730000000 1.0
C      1  0.5357930000000  0.5376710000000  0.4607320000000 1.0
C      1  0.5151140000000  0.3877300000000  0.5343390000000 1.0
C      1  0.5773130000000  0.5199250000000  0.4848590000000 1.0
C      1  0.4597700000000  0.5854000000000  0.4432340000000 1.0
C      1  0.4410690000000  0.4153090000000  0.4900140000000 1.0
C      1  0.4254220000000  0.4305980000000  0.4639140000000 1.0
C      1  0.3953340000000  0.5235070000000  0.5453680000000 1.0
C      1  0.5178730000000  0.4226970000000  0.5156340000000 1.0
C      1  0.4950770000000  0.4983360000000  0.5348650000000 1.0
C      1  0.4211480000000  0.4868230000000  0.4775130000000 1.0
C      1  0.5458100000000  0.4414200000000  0.5115890000000 1.0
C      1  0.5487500000000  0.4601060000000  0.5832140000000 1.0
C      1  0.4636430000000  0.4755140000000  0.4010870000000 1.0
C      1  0.5652720000000  0.4699370000000  0.4266920000000 1.0
C      1  0.5692560000000  0.4462290000000  0.4404030000000 1.0
C      1  0.4046230000000  0.5008360000000  0.4523350000000 1.0
C      1  0.4450910000000  0.4876260000000  0.4388110000000 1.0
C      1  0.4155530000000  0.4339420000000  0.5365240000000 1.0
C      1  0.5452020000000  0.6018950000000  0.4799730000000 1.0
C      1  0.4358610000000  0.4378860000000  0.4323810000000 1.0
C      1  0.5684930000000  0.4797020000000  0.5373290000000 1.0
C      1  0.4852530000000  0.4575090000000  0.4962280000000 1.0
C      1  0.4651840000000  0.4900040000000  0.4876950000000 1.0
C      1  0.4672330000000  0.5268080000000  0.4070050000000 1.0
C      1  0.5291290000000  0.5115820000000  0.4815120000000 1.0
C      1  0.5827660000000  0.4595200000000  0.5139800000000 1.0
C      1  0.5613720000000  0.5051190000000  0.5182620000000 1.0
C      1  0.5281090000000  0.5203710000000  0.4324800000000 1.0
C      1  0.4652640000000  0.4490650000000  0.5709770000000 1.0
C      1  0.5952690000000  0.5582700000000  0.5192590000000 1.0
C      1  0.4682520000000  0.6002900000000  0.5186340000000 1.0
C      1  0.6037450000000  0.5385990000000  0.4934740000000 1.0
C      1  0.4313420000000  0.5799380000000  0.4528140000000 1.0
C      1  0.4901950000000  0.5104920000000  0.4248730000000 1.0
C      1  0.5038100000000  0.5105820000000  0.5042760000000 1.0
C      1  0.4903250000000  0.5162480000000  0.4735770000000 1.0
C      1  0.5543960000000  0.5078710000000  0.4148750000000 1.0
C      1  0.5367400000000  0.4795110000000  0.4131360000000 1.0
C      1  0.5059160000000  0.4324110000000  0.4349590000000 1.0
C      1  0.5337570000000  0.4478630000000  0.4591130000000 1.0
C      1  0.5797300000000  0.4218310000000  0.4793550000000 1.0
C      1  0.5432740000000  0.4310320000000  0.5926730000000 1.0
C      1  0.5229160000000  0.4883640000000  0.4574330000000 1.0
C      1  0.4863540000000  0.5375670000000  0.4403670000000 1.0
C      1  0.5356000000000  0.5370470000000  0.5022880000000 1.0
C      1  0.5662060000000  0.5309340000000  0.4356730000000 1.0
C      1  0.5632260000000  0.5357020000000  0.5594040000000 1.0
C      1  0.4488080000000  0.6015100000000  0.4984560000000 1.0
C      1  0.5707440000000  0.5738830000000  0.4917880000000 1.0
C      1  0.4116100000000  0.5661170000000  0.5220280000000 1.0
C      1  0.4375420000000  0.5650990000000  0.5368140000000 1.0
C      1  0.4679560000000  0.5346490000000  0.5755690000000 1.0
C      1  0.5121100000000  0.5674360000000  0.4397760000000 1.0
C      1  0.4837370000000  0.5288370000000  0.5344140000000 1.0
C      1  0.5799480000000  0.5287050000000  0.5237740000000 1.0
C      1  0.5206340000000  0.4205330000000  0.5807830000000 1.0
C      1  0.5117840000000  0.5807900000000  0.4771800000000 1.0
C      1  0.5280540000000  0.5255240000000  0.5318660000000 1.0
C      1  0.4588280000000  0.5867760000000  0.5413010000000 1.0
C      1  0.4925660000000  0.3958200000000  0.4746860000000 1.0
C      1  0.5572860000000  0.4154760000000  0.4928390000000 1.0
C      1  0.4252210000000  0.4871870000000  0.5688720000000 1.0
C      1  0.4539650000000  0.5643840000000  0.4095460000000 1.0
C      1  0.4746250000000  0.4812540000000  0.5154230000000 1.0
C      1  0.4663550000000  0.5371870000000  0.4841640000000 1.0
C      1  0.4199570000000  0.5194170000000  0.5617130000000 1.0
C      1  0.6118840000000  0.5080790000000  0.5010750000000 1.0
C      1  0.4546960000000  0.6181990000000  0.4767790000000 1.0
C      1  0.4122390000000  0.5332120000000  0.4453060000000 1.0
C      1  0.5989190000000  0.5695780000000  0.4813880000000 1.0
C      1  0.5017050000000  0.5454260000000  0.5580530000000 1.0
C      1  0.5381150000000  0.3911880000000  0.5018900000000 1.0
C      1  0.4000710000000  0.4859170000000  0.5041860000000 1.0
C      1  0.4814460000000  0.3918520000000  0.5370720000000 1.0
C      1  0.5734560000000  0.4288230000000  0.5268760000000 1.0
C      1  0.4632020000000  0.4506540000000  0.4224090000000 1.0
C      1  0.4904970000000  0.4879820000000  0.4650340000000 1.0
C      1  0.4549050000000  0.5387250000000  0.5261180000000 1.0
C      1  0.5825510000000  0.4707050000000  0.4842710000000 1.0
C      1  0.4685400000000  0.4180740000000  0.5365230000000 1.0
C      1  0.5288100000000  0.6073900000000  0.5014170000000 1.0
C      1  0.5205760000000  0.4263090000000  0.4819330000000 1.0
C      1  0.4845360000000  0.4728600000000  0.6102640000000 1.0
C      1  0.5992140000000  0.4768900000000  0.5516330000000 1.0
C      1  0.4985530000000  0.4426150000000  0.5735610000000 1.0
END
