TITL C-3371514-4997-52 0.00214737514737533 125000 -408.004929999405 0 0 71 (C1) n - 1
REM
REM in /nfs/bkarasulu/CARBON/AIRSS/Generating-Clusters/AIREBO/with-SteepDescent/Only-C1/SD-CG-opt/Try1-1.4A-POS3A/HFTN-CG
REM
REM
REM
REM
REM
REM ./C.cell (11c1c37f851c82e70ff6c80c92926a4b)
REM
REM compiler GCC version 9.2.1 20190827 (Red Hat 9.2.1-1)
REM options -cpp -mtune=generic -march=x86-64 -g -O0 -fpre-include=/usr/include/finclude/math-vector-fortran.h
REM seed -1528651904 -737604999 -1373470865 -1092842472 2128375865 1016359911 853048747 -1269642453 1060274624 384584922 1949592143 -593611739 1514137468 -639305496 1041388672 -1658756340 1749405650 375050472 146317259 -1426176607 -568731758 63616881 -861693797 -493057823 -1166518741 1997298483 1827103294 1170148949 403621089 42160865 -211588244 -61855986 976806177
REM
CELL 1.54180   50.00000   50.00000   50.00000   90.00000   90.00000   90.00000
LATT -1
SFAC C  
C      1  0.4705720000000  0.5501550000000  0.4089520000000 1.0
C      1  0.5627280000000  0.4795980000000  0.5112940000000 1.0
C      1  0.4980970000000  0.5122820000000  0.3970440000000 1.0
C      1  0.5247300000000  0.5383890000000  0.4568520000000 1.0
C      1  0.4770750000000  0.4540020000000  0.5821540000000 1.0
C      1  0.4978160000000  0.5240600000000  0.5753330000000 1.0
C      1  0.4590010000000  0.5608190000000  0.5187170000000 1.0
C      1  0.5190320000000  0.4816020000000  0.5770600000000 1.0
C      1  0.4406570000000  0.5050680000000  0.4496160000000 1.0
C      1  0.4964610000000  0.4106580000000  0.5596460000000 1.0
C      1  0.5084900000000  0.4661070000000  0.4221360000000 1.0
C      1  0.4631550000000  0.5027730000000  0.4906090000000 1.0
C      1  0.4345470000000  0.5035040000000  0.4979490000000 1.0
C      1  0.5471090000000  0.5664050000000  0.5035140000000 1.0
C      1  0.4717410000000  0.5075310000000  0.4359030000000 1.0
C      1  0.4611360000000  0.4600710000000  0.4198670000000 1.0
C      1  0.5327720000000  0.5365480000000  0.5124690000000 1.0
C      1  0.4702950000000  0.5038760000000  0.5755360000000 1.0
C      1  0.5087340000000  0.4255470000000  0.5405800000000 1.0
C      1  0.5252270000000  0.5094180000000  0.5748220000000 1.0
C      1  0.5672230000000  0.5245600000000  0.4809890000000 1.0
C      1  0.5116760000000  0.5618720000000  0.5208190000000 1.0
C      1  0.4758970000000  0.5791940000000  0.4950920000000 1.0
C      1  0.4721910000000  0.4444480000000  0.5092970000000 1.0
C      1  0.4577880000000  0.5542500000000  0.4859280000000 1.0
C      1  0.4304760000000  0.4883480000000  0.4726610000000 1.0
C      1  0.4687270000000  0.4540190000000  0.4794180000000 1.0
C      1  0.5239070000000  0.5700360000000  0.4749360000000 1.0
C      1  0.4936730000000  0.4953760000000  0.5445730000000 1.0
C      1  0.4841590000000  0.4388740000000  0.4568130000000 1.0
C      1  0.5344820000000  0.4625830000000  0.5605800000000 1.0
C      1  0.4508190000000  0.4837890000000  0.4262760000000 1.0
C      1  0.5679490000000  0.5042590000000  0.4615470000000 1.0
C      1  0.4840480000000  0.5242650000000  0.5442400000000 1.0
C      1  0.5342110000000  0.4377380000000  0.5469580000000 1.0
C      1  0.4553690000000  0.4570220000000  0.5284710000000 1.0
C      1  0.4990680000000  0.4173310000000  0.4665360000000 1.0
C      1  0.5640980000000  0.5033120000000  0.5356780000000 1.0
C      1  0.5479120000000  0.4864260000000  0.4560870000000 1.0
C      1  0.4543550000000  0.5329130000000  0.5357230000000 1.0
C      1  0.4914060000000  0.5554690000000  0.5677020000000 1.0
C      1  0.4952590000000  0.4290820000000  0.5151450000000 1.0
C      1  0.4883970000000  0.4773210000000  0.5729100000000 1.0
C      1  0.4468100000000  0.5341370000000  0.4610790000000 1.0
C      1  0.5508980000000  0.5493600000000  0.4746370000000 1.0
C      1  0.4940530000000  0.4984190000000  0.4569450000000 1.0
C      1  0.5464290000000  0.5204050000000  0.5591780000000 1.0
C      1  0.5144510000000  0.4907100000000  0.5248940000000 1.0
C      1  0.4296190000000  0.5163770000000  0.5221840000000 1.0
C      1  0.4751670000000  0.5285650000000  0.4790560000000 1.0
C      1  0.5484940000000  0.5486740000000  0.5554980000000 1.0
C      1  0.4446760000000  0.4781730000000  0.5429300000000 1.0
C      1  0.4381910000000  0.4619230000000  0.4726450000000 1.0
C      1  0.5186630000000  0.5125200000000  0.4995120000000 1.0
C      1  0.4858510000000  0.4513930000000  0.4309880000000 1.0
C      1  0.5056250000000  0.4146900000000  0.4930560000000 1.0
C      1  0.4792270000000  0.5244790000000  0.4124280000000 1.0
C      1  0.4869980000000  0.5565150000000  0.5371190000000 1.0
C      1  0.5599710000000  0.5193960000000  0.5084160000000 1.0
C      1  0.5405000000000  0.5668220000000  0.5368640000000 1.0
C      1  0.5389790000000  0.4848460000000  0.5426330000000 1.0
C      1  0.5361750000000  0.4834270000000  0.5008300000000 1.0
C      1  0.5706460000000  0.4531160000000  0.5164510000000 1.0
C      1  0.5051770000000  0.5223560000000  0.4743890000000 1.0
C      1  0.5575310000000  0.4337300000000  0.5312120000000 1.0
C      1  0.5314840000000  0.5226040000000  0.4334130000000 1.0
C      1  0.4508900000000  0.5042370000000  0.5537080000000 1.0
C      1  0.4781920000000  0.4827030000000  0.4778300000000 1.0
C      1  0.5193250000000  0.4976810000000  0.4136990000000 1.0
C      1  0.5195680000000  0.4861900000000  0.4445870000000 1.0
C      1  0.5039470000000  0.5756550000000  0.4953870000000 1.0
END
