TITL C-3371513-6555-56 0.000134448087037985 125000 -1001.02841846092 0 0 186 (C1) n - 1
REM
REM in /nfs/bkarasulu/CARBON/AIRSS/Generating-Clusters/AIREBO/with-SteepDescent/Only-C1/SD-CG-opt/Try1-1.4A-POS3A/HFTN-CG
REM
REM
REM
REM
REM
REM ./C.cell (11c1c37f851c82e70ff6c80c92926a4b)
REM
REM compiler GCC version 9.2.1 20190827 (Red Hat 9.2.1-1)
REM options -cpp -mtune=generic -march=x86-64 -g -O0 -fpre-include=/usr/include/finclude/math-vector-fortran.h
REM seed 1067626621 1458739602 -1504859454 65435103 1299651367 -981485068 740791964 -703801773 -2109214778 2134677740 1158384984 -1925863349 1446052659 983004482 624721485 -699252097 719522089 1867961693 19740079 187656244 -1993823083 -747939928 -836346834 -1191011929 1681814711 100151175 -1193312970 130512570 -325392563 280471125 1317202385 -198056340 195712873
REM
CELL 1.54180   50.00000   50.00000   50.00000   90.00000   90.00000   90.00000
LATT -1
SFAC C  
C      1  0.5362290000000  0.4129990000000  0.4446040000000 1.0
C      1  0.3982630000000  0.4823400000000  0.4916780000000 1.0
C      1  0.5934050000000  0.4429400000000  0.5178850000000 1.0
C      1  0.5521610000000  0.5351260000000  0.5550510000000 1.0
C      1  0.4242280000000  0.4569870000000  0.4572890000000 1.0
C      1  0.4333050000000  0.5698590000000  0.5104090000000 1.0
C      1  0.5729450000000  0.5672150000000  0.4656320000000 1.0
C      1  0.4810800000000  0.5915100000000  0.5808390000000 1.0
C      1  0.5083920000000  0.4310000000000  0.5439320000000 1.0
C      1  0.5875970000000  0.5223760000000  0.4466720000000 1.0
C      1  0.5453570000000  0.5445700000000  0.5250030000000 1.0
C      1  0.5343280000000  0.5218810000000  0.4633010000000 1.0
C      1  0.5046370000000  0.5806880000000  0.4264970000000 1.0
C      1  0.6093100000000  0.5262070000000  0.4725780000000 1.0
C      1  0.4908060000000  0.4475530000000  0.4150320000000 1.0
C      1  0.4948480000000  0.4413330000000  0.5144830000000 1.0
C      1  0.4734430000000  0.4810000000000  0.4687260000000 1.0
C      1  0.5333530000000  0.5526380000000  0.6042710000000 1.0
C      1  0.5431960000000  0.5774510000000  0.4624510000000 1.0
C      1  0.4744920000000  0.5402600000000  0.3878030000000 1.0
C      1  0.4124460000000  0.5248420000000  0.4952870000000 1.0
C      1  0.4581670000000  0.5537110000000  0.4623810000000 1.0
C      1  0.4689240000000  0.5139400000000  0.4701410000000 1.0
C      1  0.4999810000000  0.5615460000000  0.5472660000000 1.0
C      1  0.5436910000000  0.4795240000000  0.4028260000000 1.0
C      1  0.4744460000000  0.5593970000000  0.5908510000000 1.0
C      1  0.4569630000000  0.4498580000000  0.4126460000000 1.0
C      1  0.5841450000000  0.4496360000000  0.5491450000000 1.0
C      1  0.4984990000000  0.6124550000000  0.5017090000000 1.0
C      1  0.5696820000000  0.4639460000000  0.5149610000000 1.0
C      1  0.5091180000000  0.5499770000000  0.4762530000000 1.0
C      1  0.5342650000000  0.5497720000000  0.4448370000000 1.0
C      1  0.5070280000000  0.4332190000000  0.4667860000000 1.0
C      1  0.5164730000000  0.4034590000000  0.4953940000000 1.0
C      1  0.3999850000000  0.4573960000000  0.4784800000000 1.0
C      1  0.5246830000000  0.4852800000000  0.4304270000000 1.0
C      1  0.4256910000000  0.5084070000000  0.5867380000000 1.0
C      1  0.5191090000000  0.4293640000000  0.4200730000000 1.0
C      1  0.5330800000000  0.5169860000000  0.5639850000000 1.0
C      1  0.4505920000000  0.5934860000000  0.5027240000000 1.0
C      1  0.4382100000000  0.5874900000000  0.5548470000000 1.0
C      1  0.5671360000000  0.4036270000000  0.4851410000000 1.0
C      1  0.4286930000000  0.4882180000000  0.5648190000000 1.0
C      1  0.6097580000000  0.4728900000000  0.4506610000000 1.0
C      1  0.5849940000000  0.4909330000000  0.4425440000000 1.0
C      1  0.5266120000000  0.5822270000000  0.4919210000000 1.0
C      1  0.5399920000000  0.4858360000000  0.6047520000000 1.0
C      1  0.4715600000000  0.5208370000000  0.5534530000000 1.0
C      1  0.4703680000000  0.5517810000000  0.5459040000000 1.0
C      1  0.6111330000000  0.5215600000000  0.5090700000000 1.0
C      1  0.5139940000000  0.4907710000000  0.4848410000000 1.0
C      1  0.6059610000000  0.4332870000000  0.4877990000000 1.0
C      1  0.5945300000000  0.4966370000000  0.5705750000000 1.0
C      1  0.5215580000000  0.5198400000000  0.3897450000000 1.0
C      1  0.5010520000000  0.5181200000000  0.4674580000000 1.0
C      1  0.4755390000000  0.4185640000000  0.5249970000000 1.0
C      1  0.5451910000000  0.5042160000000  0.4863000000000 1.0
C      1  0.5173670000000  0.4907760000000  0.3915430000000 1.0
C      1  0.5236930000000  0.4555240000000  0.5116160000000 1.0
C      1  0.4321030000000  0.4309740000000  0.5042660000000 1.0
C      1  0.4591850000000  0.5084740000000  0.5808890000000 1.0
C      1  0.5257040000000  0.4871010000000  0.5515330000000 1.0
C      1  0.4483940000000  0.3809750000000  0.5031810000000 1.0
C      1  0.4303870000000  0.4270040000000  0.4722200000000 1.0
C      1  0.4802560000000  0.5006430000000  0.6064080000000 1.0
C      1  0.4880990000000  0.6032090000000  0.5327520000000 1.0
C      1  0.5046600000000  0.5470880000000  0.4279830000000 1.0
C      1  0.4941810000000  0.5366530000000  0.5048400000000 1.0
C      1  0.5616190000000  0.4274140000000  0.5362800000000 1.0
C      1  0.4394980000000  0.5238130000000  0.5425310000000 1.0
C      1  0.5540950000000  0.4842890000000  0.5330050000000 1.0
C      1  0.4705130000000  0.4960940000000  0.4044130000000 1.0
C      1  0.5351600000000  0.4239550000000  0.5151930000000 1.0
C      1  0.5039580000000  0.5568620000000  0.5779750000000 1.0
C      1  0.4756020000000  0.6124340000000  0.4489840000000 1.0
C      1  0.5137440000000  0.5401120000000  0.5294420000000 1.0
C      1  0.4490310000000  0.5314070000000  0.4863650000000 1.0
C      1  0.4713860000000  0.5268520000000  0.4189010000000 1.0
C      1  0.5779590000000  0.5055530000000  0.5421920000000 1.0
C      1  0.5645830000000  0.4627070000000  0.4849480000000 1.0
C      1  0.5022230000000  0.5390960000000  0.3964570000000 1.0
C      1  0.4161200000000  0.5106170000000  0.4167290000000 1.0
C      1  0.5614320000000  0.4328830000000  0.4483500000000 1.0
C      1  0.5612750000000  0.5741060000000  0.5306540000000 1.0
C      1  0.4135070000000  0.5638080000000  0.4870980000000 1.0
C      1  0.5821990000000  0.5182880000000  0.4915100000000 1.0
C      1  0.5042910000000  0.5770280000000  0.5176370000000 1.0
C      1  0.3998700000000  0.5126340000000  0.4469620000000 1.0
C      1  0.4421590000000  0.4858960000000  0.4556110000000 1.0
C      1  0.4467740000000  0.4290810000000  0.5507040000000 1.0
C      1  0.4287580000000  0.5598010000000  0.4166390000000 1.0
C      1  0.4726630000000  0.5154840000000  0.5141710000000 1.0
C      1  0.4540060000000  0.4574820000000  0.4837470000000 1.0
C      1  0.4849660000000  0.4020560000000  0.4481830000000 1.0
C      1  0.5183740000000  0.5275500000000  0.5877640000000 1.0
C      1  0.4084430000000  0.5283960000000  0.5476280000000 1.0
C      1  0.5303010000000  0.6066330000000  0.5122890000000 1.0
C      1  0.3946170000000  0.5470250000000  0.5050790000000 1.0
C      1  0.5174570000000  0.4879130000000  0.5185520000000 1.0
C      1  0.5512070000000  0.4581830000000  0.4425300000000 1.0
C      1  0.5715080000000  0.5505610000000  0.4910650000000 1.0
C      1  0.5688990000000  0.5494270000000  0.5717580000000 1.0
C      1  0.4125070000000  0.4816120000000  0.5172450000000 1.0
C      1  0.4710270000000  0.4253690000000  0.5821430000000 1.0
C      1  0.4572380000000  0.4905670000000  0.5058720000000 1.0
C      1  0.5382310000000  0.5119620000000  0.4327220000000 1.0
C      1  0.4898630000000  0.4506640000000  0.4485550000000 1.0
C      1  0.5133350000000  0.3909030000000  0.4406340000000 1.0
C      1  0.5914750000000  0.5560350000000  0.4480900000000 1.0
C      1  0.4936850000000  0.4819660000000  0.4419420000000 1.0
C      1  0.4671510000000  0.4699860000000  0.5997420000000 1.0
C      1  0.4378150000000  0.4963500000000  0.4063860000000 1.0
C      1  0.6022230000000  0.4749840000000  0.5501240000000 1.0
C      1  0.5035080000000  0.5791620000000  0.4596660000000 1.0
C      1  0.5872900000000  0.4129210000000  0.5076380000000 1.0
C      1  0.5400230000000  0.4690610000000  0.5765460000000 1.0
C      1  0.4440320000000  0.4736880000000  0.4240670000000 1.0
C      1  0.5111310000000  0.6263980000000  0.5986800000000 1.0
C      1  0.4254020000000  0.5544230000000  0.4641290000000 1.0
C      1  0.5634580000000  0.4768630000000  0.4256650000000 1.0
C      1  0.5076940000000  0.4738750000000  0.5859400000000 1.0
C      1  0.5417710000000  0.4136330000000  0.4772250000000 1.0
C      1  0.5489370000000  0.5995640000000  0.5307770000000 1.0
C      1  0.5620650000000  0.5347690000000  0.4317570000000 1.0
C      1  0.6072960000000  0.4992130000000  0.5288610000000 1.0
C      1  0.4342610000000  0.5007970000000  0.4851450000000 1.0
C      1  0.5722440000000  0.4912760000000  0.4730600000000 1.0
C      1  0.4778220000000  0.5591130000000  0.4859060000000 1.0
C      1  0.5271870000000  0.4712920000000  0.4602810000000 1.0
C      1  0.4539150000000  0.5657410000000  0.5671910000000 1.0
C      1  0.4526850000000  0.5427980000000  0.5175970000000 1.0
C      1  0.5116350000000  0.5022110000000  0.6032480000000 1.0
C      1  0.4725030000000  0.5890580000000  0.4265340000000 1.0
C      1  0.4539600000000  0.4117640000000  0.4537950000000 1.0
C      1  0.3965770000000  0.5063700000000  0.4740820000000 1.0
C      1  0.5839050000000  0.5622550000000  0.5159440000000 1.0
C      1  0.4921010000000  0.3930840000000  0.5368080000000 1.0
C      1  0.3998040000000  0.5532570000000  0.5331560000000 1.0
C      1  0.5536650000000  0.4458450000000  0.5637300000000 1.0
C      1  0.5466160000000  0.5263770000000  0.4030620000000 1.0
C      1  0.4864710000000  0.4107380000000  0.4810320000000 1.0
C      1  0.4188620000000  0.5764900000000  0.5367820000000 1.0
C      1  0.4121470000000  0.4951020000000  0.5417160000000 1.0
C      1  0.4072070000000  0.5274640000000  0.5794530000000 1.0
C      1  0.4730160000000  0.5564400000000  0.4362160000000 1.0
C      1  0.4610340000000  0.4775530000000  0.5668590000000 1.0
C      1  0.4492430000000  0.5164760000000  0.4425250000000 1.0
C      1  0.5865940000000  0.5611980000000  0.5871260000000 1.0
C      1  0.4799400000000  0.4765120000000  0.5263160000000 1.0
C      1  0.4382070000000  0.4356630000000  0.4347760000000 1.0
C      1  0.4586280000000  0.4100170000000  0.5006070000000 1.0
C      1  0.5586110000000  0.5146600000000  0.5157430000000 1.0
C      1  0.5451270000000  0.3929800000000  0.5251810000000 1.0
C      1  0.4931310000000  0.4772650000000  0.5555910000000 1.0
C      1  0.4777470000000  0.4164670000000  0.4195080000000 1.0
C      1  0.5390680000000  0.5514970000000  0.4923150000000 1.0
C      1  0.4929930000000  0.4785190000000  0.4009390000000 1.0
C      1  0.5340450000000  0.4217240000000  0.5644130000000 1.0
C      1  0.5327810000000  0.5928100000000  0.4362630000000 1.0
C      1  0.4984030000000  0.5145130000000  0.4354500000000 1.0
C      1  0.4537600000000  0.4416450000000  0.6018350000000 1.0
C      1  0.4470870000000  0.5758520000000  0.4127600000000 1.0
C      1  0.4483950000000  0.4554560000000  0.5442970000000 1.0
C      1  0.4984220000000  0.5109380000000  0.5348020000000 1.0
C      1  0.4005780000000  0.4356210000000  0.4967370000000 1.0
C      1  0.5219300000000  0.3998930000000  0.5442510000000 1.0
C      1  0.5755480000000  0.3967280000000  0.5317340000000 1.0
C      1  0.5223770000000  0.5784300000000  0.5950670000000 1.0
C      1  0.5790130000000  0.4386670000000  0.4702820000000 1.0
C      1  0.4690980000000  0.4058800000000  0.5562340000000 1.0
C      1  0.6082480000000  0.5502980000000  0.5206750000000 1.0
C      1  0.4399460000000  0.4625160000000  0.5142940000000 1.0
C      1  0.3803280000000  0.4221020000000  0.5088870000000 1.0
C      1  0.4939950000000  0.6053570000000  0.4687600000000 1.0
C      1  0.5052290000000  0.6010390000000  0.5924820000000 1.0
C      1  0.4898380000000  0.4697610000000  0.4963190000000 1.0
C      1  0.4678980000000  0.5326200000000  0.6032050000000 1.0
C      1  0.4772650000000  0.5860250000000  0.4990650000000 1.0
C      1  0.5058680000000  0.3814250000000  0.5126370000000 1.0
C      1  0.4698040000000  0.6001020000000  0.5550370000000 1.0
C      1  0.4919010000000  0.4443950000000  0.5642030000000 1.0
C      1  0.6152530000000  0.4575560000000  0.4692710000000 1.0
C      1  0.4622450000000  0.4446040000000  0.4567970000000 1.0
C      1  0.5348340000000  0.4467120000000  0.4809830000000 1.0
C      1  0.4222240000000  0.5365880000000  0.4378210000000 1.0
C      1  0.4927750000000  0.4476750000000  0.5983580000000 1.0
END
