TITL C-3371502-3785-6 -0.00122870684758827 125000 -505.000992851041 0 0 94 (C1) n - 1
REM
REM in /nfs/bkarasulu/CARBON/AIRSS/Generating-Clusters/AIREBO/with-SteepDescent/Only-C1/SD-CG-opt/Try1-1.4A-POS3A/HFTN-CG
REM
REM
REM
REM
REM
REM ./C.cell (11c1c37f851c82e70ff6c80c92926a4b)
REM
REM compiler GCC version 9.2.1 20190827 (Red Hat 9.2.1-1)
REM options -cpp -mtune=generic -march=x86-64 -g -O0 -fpre-include=/usr/include/finclude/math-vector-fortran.h
REM seed 1881270216 2075373294 -2095336465 -941210739 -2004683666 156544427 290045856 -600579702 1048957333 -1954306977 -464728104 -1327231205 1453243671 -1538536014 -1555206248 -866517804 739726263 -1809247733 -639808808 863652185 553810252 901701180 902203033 -920521871 -2137904904 1967567610 -192908904 -592332098 701962109 -373972150 -357252462 1590025528 -429292990
REM
CELL 1.54180   50.00000   50.00000   50.00000   90.00000   90.00000   90.00000
LATT -1
SFAC C  
C      1  0.4198690000000  0.4813520000000  0.4933850000000 1.0
C      1  0.4418280000000  0.5341580000000  0.5141750000000 1.0
C      1  0.5581170000000  0.4819160000000  0.4302080000000 1.0
C      1  0.4935730000000  0.4708780000000  0.5832270000000 1.0
C      1  0.5458640000000  0.5696670000000  0.4683350000000 1.0
C      1  0.4271610000000  0.4540140000000  0.4943140000000 1.0
C      1  0.4290790000000  0.4796400000000  0.4432300000000 1.0
C      1  0.4573020000000  0.5523240000000  0.5361650000000 1.0
C      1  0.5681980000000  0.5453290000000  0.5013930000000 1.0
C      1  0.5216530000000  0.4636250000000  0.5818480000000 1.0
C      1  0.4801840000000  0.4880600000000  0.4692110000000 1.0
C      1  0.4694650000000  0.4934740000000  0.5919660000000 1.0
C      1  0.4686460000000  0.5545460000000  0.4819570000000 1.0
C      1  0.4949640000000  0.5151320000000  0.5073740000000 1.0
C      1  0.4517500000000  0.5021150000000  0.4321360000000 1.0
C      1  0.5144380000000  0.5818720000000  0.5305620000000 1.0
C      1  0.5565620000000  0.4265690000000  0.4743370000000 1.0
C      1  0.5263220000000  0.5293700000000  0.4302930000000 1.0
C      1  0.5864300000000  0.4670140000000  0.5386140000000 1.0
C      1  0.4931830000000  0.5975150000000  0.4825140000000 1.0
C      1  0.5261840000000  0.4383080000000  0.4649930000000 1.0
C      1  0.5850370000000  0.5179400000000  0.4962880000000 1.0
C      1  0.4674920000000  0.5806530000000  0.5228160000000 1.0
C      1  0.5342090000000  0.5328600000000  0.5188030000000 1.0
C      1  0.5282070000000  0.5120790000000  0.5521420000000 1.0
C      1  0.5198590000000  0.4663850000000  0.4500070000000 1.0
C      1  0.5546430000000  0.5038630000000  0.5371950000000 1.0
C      1  0.4683340000000  0.4760510000000  0.4421430000000 1.0
C      1  0.5067320000000  0.4871070000000  0.4106680000000 1.0
C      1  0.5305140000000  0.5545520000000  0.4218600000000 1.0
C      1  0.4522850000000  0.4465380000000  0.4784160000000 1.0
C      1  0.4605320000000  0.4636770000000  0.5867740000000 1.0
C      1  0.5080780000000  0.5225530000000  0.4564420000000 1.0
C      1  0.5327080000000  0.4993020000000  0.4207150000000 1.0
C      1  0.4809740000000  0.5130940000000  0.4456400000000 1.0
C      1  0.4899100000000  0.5488830000000  0.5309320000000 1.0
C      1  0.4964210000000  0.5173420000000  0.5412790000000 1.0
C      1  0.5079250000000  0.5330480000000  0.4838350000000 1.0
C      1  0.4469860000000  0.5336290000000  0.4411250000000 1.0
C      1  0.4575060000000  0.5336020000000  0.5646630000000 1.0
C      1  0.5131170000000  0.5569850000000  0.5074200000000 1.0
C      1  0.5053400000000  0.5434950000000  0.5611680000000 1.0
C      1  0.5004220000000  0.4226570000000  0.4683190000000 1.0
C      1  0.4777950000000  0.4591980000000  0.4970200000000 1.0
C      1  0.5445690000000  0.4545500000000  0.5223480000000 1.0
C      1  0.5731950000000  0.5247250000000  0.5245650000000 1.0
C      1  0.4155040000000  0.5376140000000  0.4986910000000 1.0
C      1  0.5518560000000  0.4695030000000  0.5704690000000 1.0
C      1  0.4615750000000  0.4890910000000  0.4972590000000 1.0
C      1  0.4420300000000  0.5158500000000  0.5406130000000 1.0
C      1  0.5473310000000  0.5716430000000  0.4368550000000 1.0
C      1  0.4897780000000  0.4158250000000  0.5232510000000 1.0
C      1  0.4919880000000  0.4603970000000  0.5279130000000 1.0
C      1  0.4438070000000  0.5196140000000  0.4671360000000 1.0
C      1  0.4751460000000  0.4481560000000  0.4266470000000 1.0
C      1  0.4649110000000  0.5227130000000  0.4933710000000 1.0
C      1  0.4520320000000  0.4795630000000  0.5284770000000 1.0
C      1  0.4204040000000  0.4974180000000  0.4679510000000 1.0
C      1  0.4759360000000  0.4263270000000  0.4658520000000 1.0
C      1  0.5107560000000  0.4024130000000  0.5417300000000 1.0
C      1  0.5514760000000  0.5670330000000  0.5303210000000 1.0
C      1  0.4499610000000  0.5642950000000  0.4660840000000 1.0
C      1  0.5528290000000  0.5081090000000  0.4747230000000 1.0
C      1  0.5442890000000  0.5662170000000  0.4974020000000 1.0
C      1  0.5085430000000  0.5752590000000  0.5544240000000 1.0
C      1  0.5310390000000  0.4982350000000  0.4546870000000 1.0
C      1  0.5314750000000  0.5331530000000  0.5786230000000 1.0
C      1  0.5851810000000  0.4986620000000  0.4692610000000 1.0
C      1  0.4863100000000  0.5053090000000  0.4135170000000 1.0
C      1  0.5747160000000  0.5297330000000  0.4602490000000 1.0
C      1  0.4815310000000  0.4719940000000  0.5539280000000 1.0
C      1  0.4711550000000  0.5002760000000  0.5474890000000 1.0
C      1  0.4437780000000  0.4519780000000  0.5682270000000 1.0
C      1  0.4736020000000  0.4265670000000  0.5056460000000 1.0
C      1  0.5672220000000  0.4762470000000  0.4555730000000 1.0
C      1  0.4480500000000  0.4516210000000  0.4472170000000 1.0
C      1  0.5695570000000  0.5548130000000  0.4530540000000 1.0
C      1  0.5053050000000  0.4860700000000  0.5148980000000 1.0
C      1  0.4248800000000  0.4420170000000  0.5201990000000 1.0
C      1  0.4060870000000  0.5246180000000  0.4792930000000 1.0
C      1  0.4858870000000  0.5746320000000  0.4972410000000 1.0
C      1  0.4273870000000  0.4969380000000  0.5163890000000 1.0
C      1  0.5718250000000  0.4504790000000  0.5216020000000 1.0
C      1  0.5450010000000  0.5047570000000  0.5045730000000 1.0
C      1  0.5317540000000  0.4739240000000  0.4990730000000 1.0
C      1  0.5316400000000  0.4517430000000  0.5522040000000 1.0
C      1  0.5049490000000  0.4692870000000  0.4786620000000 1.0
C      1  0.5022770000000  0.4634030000000  0.4251780000000 1.0
C      1  0.5507930000000  0.4600770000000  0.4745250000000 1.0
C      1  0.4391940000000  0.4550880000000  0.5409240000000 1.0
C      1  0.5117680000000  0.4361180000000  0.5358190000000 1.0
C      1  0.5455460000000  0.5411100000000  0.5485790000000 1.0
C      1  0.5691290000000  0.4835150000000  0.5539370000000 1.0
C      1  0.4592470000000  0.5189560000000  0.5874430000000 1.0
END
