TITL C-3371511-147-57 0.00153626801681564 125000 -986.539991879314 0 0 176 (C1) n - 1
REM
REM in /nfs/bkarasulu/CARBON/AIRSS/Generating-Clusters/AIREBO/with-SteepDescent/Only-C1/SD-CG-opt/Try1-1.4A-POS3A/HFTN-CG
REM
REM
REM
REM
REM
REM ./C.cell (11c1c37f851c82e70ff6c80c92926a4b)
REM
REM compiler GCC version 9.2.1 20190827 (Red Hat 9.2.1-1)
REM options -cpp -mtune=generic -march=x86-64 -g -O0 -fpre-include=/usr/include/finclude/math-vector-fortran.h
REM seed 329611692 -405247430 -640172685 -1842128398 529111943 -1901068578 1940867719 -658384083 -230208779 1684626103 -1090813840 -2022713652 770831736 112953850 -1619500064 83807828 -1097463748 158263290 1217104438 -355431683 1985706229 -1788542843 -2127255045 372708558 -1577623544 -61332511 66994590 497365577 1348158755 -377252678 1653742802 -190020112 -548513911
REM
CELL 1.54180   50.00000   50.00000   50.00000   90.00000   90.00000   90.00000
LATT -1
SFAC C  
C      1  0.4829340000000  0.5191150000000  0.5897240000000 1.0
C      1  0.5567640000000  0.4393470000000  0.4491770000000 1.0
C      1  0.3944140000000  0.4900590000000  0.4895040000000 1.0
C      1  0.4863590000000  0.4728810000000  0.4487640000000 1.0
C      1  0.5647210000000  0.4603020000000  0.5430570000000 1.0
C      1  0.4998300000000  0.5810250000000  0.4557810000000 1.0
C      1  0.5579170000000  0.4917890000000  0.4699140000000 1.0
C      1  0.5629650000000  0.5229510000000  0.5867640000000 1.0
C      1  0.5480000000000  0.4208960000000  0.5495750000000 1.0
C      1  0.5066340000000  0.4019270000000  0.5288260000000 1.0
C      1  0.6101750000000  0.4803740000000  0.4861990000000 1.0
C      1  0.4735370000000  0.4560650000000  0.3999280000000 1.0
C      1  0.4782470000000  0.4691530000000  0.5567750000000 1.0
C      1  0.4528730000000  0.4770170000000  0.5780070000000 1.0
C      1  0.4938420000000  0.6194340000000  0.5253010000000 1.0
C      1  0.4684110000000  0.4990410000000  0.5433850000000 1.0
C      1  0.5751080000000  0.4077680000000  0.4966630000000 1.0
C      1  0.4859240000000  0.4316560000000  0.4789290000000 1.0
C      1  0.5901600000000  0.4680660000000  0.5595060000000 1.0
C      1  0.3956790000000  0.4592910000000  0.5311570000000 1.0
C      1  0.4973110000000  0.5739620000000  0.5738620000000 1.0
C      1  0.5363500000000  0.4673100000000  0.4796960000000 1.0
C      1  0.4745640000000  0.4644500000000  0.5248230000000 1.0
C      1  0.4910930000000  0.4017030000000  0.5527900000000 1.0
C      1  0.4277120000000  0.5771910000000  0.4859300000000 1.0
C      1  0.4008050000000  0.5735330000000  0.4938170000000 1.0
C      1  0.4446400000000  0.5083680000000  0.5214470000000 1.0
C      1  0.5607510000000  0.4208970000000  0.4736510000000 1.0
C      1  0.4773230000000  0.4337140000000  0.5285870000000 1.0
C      1  0.5163800000000  0.4436730000000  0.4881070000000 1.0
C      1  0.5754560000000  0.5120830000000  0.5324960000000 1.0
C      1  0.5510290000000  0.4741790000000  0.4124150000000 1.0
C      1  0.5736460000000  0.6003110000000  0.4984620000000 1.0
C      1  0.3782450000000  0.5299370000000  0.5079020000000 1.0
C      1  0.5345450000000  0.5227470000000  0.4160900000000 1.0
C      1  0.4491500000000  0.5607040000000  0.4993000000000 1.0
C      1  0.4925160000000  0.6066420000000  0.4994030000000 1.0
C      1  0.4330280000000  0.5910230000000  0.5564580000000 1.0
C      1  0.5122170000000  0.4704870000000  0.5980900000000 1.0
C      1  0.5696920000000  0.4161840000000  0.5234640000000 1.0
C      1  0.6051930000000  0.4889810000000  0.5481710000000 1.0
C      1  0.4905030000000  0.4094540000000  0.4177810000000 1.0
C      1  0.4727680000000  0.4694910000000  0.6020660000000 1.0
C      1  0.5841500000000  0.5356700000000  0.5673210000000 1.0
C      1  0.5463250000000  0.4408480000000  0.5220880000000 1.0
C      1  0.4688790000000  0.4108210000000  0.4332690000000 1.0
C      1  0.3861670000000  0.5034450000000  0.5126370000000 1.0
C      1  0.5423960000000  0.4837970000000  0.5061380000000 1.0
C      1  0.4100690000000  0.4998510000000  0.5580160000000 1.0
C      1  0.4967220000000  0.4223870000000  0.5780560000000 1.0
C      1  0.4644150000000  0.5402570000000  0.4648250000000 1.0
C      1  0.4944790000000  0.5316370000000  0.5130600000000 1.0
C      1  0.4386870000000  0.4062370000000  0.4696080000000 1.0
C      1  0.5296150000000  0.5519700000000  0.4093100000000 1.0
C      1  0.5278840000000  0.5796870000000  0.5591050000000 1.0
C      1  0.5428560000000  0.4406490000000  0.4181450000000 1.0
C      1  0.4226090000000  0.4301180000000  0.4516120000000 1.0
C      1  0.5369290000000  0.4195970000000  0.4972320000000 1.0
C      1  0.4451550000000  0.4554850000000  0.4717910000000 1.0
C      1  0.4979260000000  0.4759490000000  0.5069920000000 1.0
C      1  0.4685160000000  0.4086220000000  0.4645250000000 1.0
C      1  0.4462380000000  0.4750090000000  0.5150230000000 1.0
C      1  0.4514660000000  0.5806300000000  0.4433210000000 1.0
C      1  0.4770720000000  0.5672640000000  0.4713240000000 1.0
C      1  0.5917220000000  0.4733710000000  0.4397210000000 1.0
C      1  0.4640940000000  0.3937050000000  0.5467860000000 1.0
C      1  0.4654090000000  0.5720670000000  0.4207210000000 1.0
C      1  0.4576980000000  0.4826600000000  0.4849430000000 1.0
C      1  0.4435090000000  0.5298550000000  0.4972610000000 1.0
C      1  0.4631480000000  0.6015660000000  0.4562100000000 1.0
C      1  0.6047050000000  0.5185680000000  0.5588900000000 1.0
C      1  0.6030930000000  0.4545360000000  0.4970890000000 1.0
C      1  0.5860950000000  0.5523150000000  0.4922220000000 1.0
C      1  0.4358500000000  0.5558980000000  0.4607020000000 1.0
C      1  0.5681160000000  0.5014590000000  0.6078310000000 1.0
C      1  0.4922850000000  0.6103020000000  0.4688900000000 1.0
C      1  0.5278800000000  0.5804690000000  0.4275600000000 1.0
C      1  0.4658370000000  0.5111920000000  0.4822830000000 1.0
C      1  0.4271630000000  0.5411700000000  0.4321420000000 1.0
C      1  0.5566020000000  0.5553350000000  0.4749650000000 1.0
C      1  0.5280150000000  0.5626340000000  0.5202570000000 1.0
C      1  0.5787880000000  0.5801590000000  0.4755600000000 1.0
C      1  0.4526680000000  0.5432130000000  0.5520260000000 1.0
C      1  0.5138870000000  0.5218320000000  0.4603370000000 1.0
C      1  0.5374980000000  0.4720540000000  0.5858230000000 1.0
C      1  0.5384370000000  0.5347010000000  0.5037800000000 1.0
C      1  0.3712500000000  0.4361220000000  0.5271310000000 1.0
C      1  0.4191970000000  0.4376340000000  0.4845990000000 1.0
C      1  0.5175750000000  0.5072400000000  0.5482450000000 1.0
C      1  0.5386300000000  0.4800830000000  0.5535200000000 1.0
C      1  0.4568780000000  0.5501350000000  0.4071960000000 1.0
C      1  0.4836230000000  0.4641550000000  0.4784190000000 1.0
C      1  0.5136280000000  0.5790160000000  0.3963110000000 1.0
C      1  0.4841130000000  0.4473570000000  0.4288310000000 1.0
C      1  0.4789080000000  0.5766780000000  0.5032220000000 1.0
C      1  0.5563530000000  0.5087940000000  0.5577470000000 1.0
C      1  0.4248170000000  0.4672520000000  0.5388060000000 1.0
C      1  0.4836360000000  0.5380390000000  0.5446850000000 1.0
C      1  0.4209770000000  0.4073250000000  0.5143650000000 1.0
C      1  0.5864300000000  0.4464950000000  0.4395840000000 1.0
C      1  0.4204690000000  0.4868690000000  0.5811640000000 1.0
C      1  0.5176360000000  0.3977170000000  0.4797600000000 1.0
C      1  0.4973660000000  0.4229750000000  0.5076750000000 1.0
C      1  0.4687950000000  0.4966760000000  0.4372710000000 1.0
C      1  0.5498030000000  0.5756110000000  0.5380130000000 1.0
C      1  0.5025450000000  0.4469760000000  0.5471350000000 1.0
C      1  0.4396470000000  0.4422210000000  0.5091100000000 1.0
C      1  0.4586870000000  0.5101560000000  0.5730920000000 1.0
C      1  0.4996570000000  0.4720580000000  0.3978190000000 1.0
C      1  0.5398380000000  0.5285440000000  0.5366230000000 1.0
C      1  0.4925280000000  0.4942190000000  0.6051760000000 1.0
C      1  0.5501520000000  0.5019630000000  0.4002800000000 1.0
C      1  0.4512620000000  0.5216950000000  0.4214360000000 1.0
C      1  0.5824810000000  0.5362030000000  0.4418780000000 1.0
C      1  0.4479420000000  0.4183600000000  0.5318910000000 1.0
C      1  0.5248530000000  0.5640020000000  0.4713190000000 1.0
C      1  0.5852300000000  0.5418270000000  0.5192240000000 1.0
C      1  0.3938520000000  0.5462200000000  0.4914710000000 1.0
C      1  0.4100930000000  0.5050810000000  0.4633400000000 1.0
C      1  0.4962150000000  0.5118480000000  0.4876170000000 1.0
C      1  0.5231460000000  0.4652190000000  0.5271300000000 1.0
C      1  0.4395040000000  0.4910330000000  0.4218450000000 1.0
C      1  0.4174340000000  0.5320600000000  0.4765050000000 1.0
C      1  0.4525050000000  0.6058830000000  0.5433000000000 1.0
C      1  0.4678000000000  0.6291410000000  0.5347450000000 1.0
C      1  0.5038630000000  0.5288460000000  0.5676100000000 1.0
C      1  0.4944130000000  0.5023000000000  0.5280810000000 1.0
C      1  0.4945300000000  0.5746540000000  0.4243550000000 1.0
C      1  0.5454290000000  0.5233180000000  0.4724790000000 1.0
C      1  0.4940750000000  0.3927590000000  0.4745560000000 1.0
C      1  0.5050210000000  0.5127360000000  0.4225030000000 1.0
C      1  0.5205250000000  0.4659710000000  0.4166800000000 1.0
C      1  0.4011560000000  0.4318000000000  0.5115980000000 1.0
C      1  0.4084810000000  0.4576120000000  0.4400470000000 1.0
C      1  0.5116370000000  0.4280390000000  0.4228820000000 1.0
C      1  0.5202370000000  0.5497150000000  0.4419150000000 1.0
C      1  0.5242780000000  0.5073650000000  0.5022450000000 1.0
C      1  0.4351790000000  0.4552800000000  0.5616540000000 1.0
C      1  0.4620690000000  0.4847150000000  0.3997230000000 1.0
C      1  0.5231860000000  0.4239480000000  0.5612800000000 1.0
C      1  0.4830690000000  0.5242010000000  0.4462250000000 1.0
C      1  0.4360280000000  0.4288140000000  0.5599330000000 1.0
C      1  0.6045680000000  0.4927650000000  0.5143730000000 1.0
C      1  0.4154080000000  0.4845850000000  0.4374940000000 1.0
C      1  0.5854810000000  0.4623500000000  0.5867590000000 1.0
C      1  0.5829720000000  0.5635400000000  0.4461680000000 1.0
C      1  0.5018140000000  0.5996030000000  0.5518980000000 1.0
C      1  0.5645530000000  0.4895270000000  0.4366360000000 1.0
C      1  0.4195630000000  0.4755800000000  0.4760890000000 1.0
C      1  0.5421730000000  0.5435210000000  0.5952410000000 1.0
C      1  0.6104180000000  0.5224350000000  0.5273710000000 1.0
C      1  0.5851720000000  0.4580610000000  0.5169030000000 1.0
C      1  0.4896340000000  0.5004780000000  0.3996600000000 1.0
C      1  0.5921010000000  0.4929830000000  0.4651330000000 1.0
C      1  0.4404660000000  0.5651050000000  0.5615590000000 1.0
C      1  0.5630030000000  0.4751990000000  0.5986900000000 1.0
C      1  0.4267310000000  0.3949060000000  0.4909080000000 1.0
C      1  0.6093140000000  0.5378860000000  0.4776660000000 1.0
C      1  0.5562220000000  0.5210790000000  0.4399630000000 1.0
C      1  0.5056360000000  0.6326670000000  0.4590660000000 1.0
C      1  0.4991210000000  0.5640760000000  0.5352920000000 1.0
C      1  0.5121930000000  0.4907980000000  0.4465320000000 1.0
C      1  0.6003370000000  0.5217680000000  0.4577620000000 1.0
C      1  0.4340500000000  0.5174040000000  0.5506780000000 1.0
C      1  0.5345540000000  0.4654970000000  0.4476680000000 1.0
C      1  0.4923310000000  0.4461090000000  0.5927070000000 1.0
C      1  0.5659390000000  0.5489430000000  0.5443480000000 1.0
C      1  0.3929730000000  0.4908550000000  0.5369610000000 1.0
C      1  0.4545870000000  0.4397760000000  0.4439360000000 1.0
C      1  0.5658070000000  0.5965570000000  0.5218760000000 1.0
C      1  0.4865060000000  0.5526950000000  0.5945620000000 1.0
C      1  0.5062170000000  0.5573970000000  0.4969870000000 1.0
C      1  0.5323070000000  0.3943580000000  0.5195470000000 1.0
C      1  0.4752690000000  0.5857310000000  0.5357940000000 1.0
C      1  0.5224320000000  0.5516870000000  0.5773180000000 1.0
C      1  0.5710500000000  0.4869560000000  0.5140670000000 1.0
END
