TITL C-3371504-3437-70 -0.00245995124016643 125000 -694.095182349226 0 0 130 (C1) n - 1
REM
REM in /nfs/bkarasulu/CARBON/AIRSS/Generating-Clusters/AIREBO/with-SteepDescent/Only-C1/SD-CG-opt/Try1-1.4A-POS3A/HFTN-CG
REM
REM
REM
REM
REM
REM ./C.cell (11c1c37f851c82e70ff6c80c92926a4b)
REM
REM compiler GCC version 9.2.1 20190827 (Red Hat 9.2.1-1)
REM options -cpp -mtune=generic -march=x86-64 -g -O0 -fpre-include=/usr/include/finclude/math-vector-fortran.h
REM seed -969464065 1657678393 -1371576449 348783422 1372371093 -101167705 -674224756 -1700546458 -1930656651 -2123141063 455833475 -73687055 -1943764560 554159969 -1036606168 -1969116107 -1317787623 510453239 407838832 -1258633346 1862744355 892778443 -962992686 628938624 773673948 1559773529 1706784367 -520455885 -1145630963 2065256058 -1115391350 -1110374681 -1460659222
REM
CELL 1.54180   50.00000   50.00000   50.00000   90.00000   90.00000   90.00000
LATT -1
SFAC C  
C      1  0.5052630000000  0.4149420000000  0.4269430000000 1.0
C      1  0.5514740000000  0.4406410000000  0.5716490000000 1.0
C      1  0.5499340000000  0.5589330000000  0.4415910000000 1.0
C      1  0.5804420000000  0.5168970000000  0.4539640000000 1.0
C      1  0.4689770000000  0.5237080000000  0.4899920000000 1.0
C      1  0.5051060000000  0.5580370000000  0.5229330000000 1.0
C      1  0.4562030000000  0.4171520000000  0.4401610000000 1.0
C      1  0.4793140000000  0.4059830000000  0.5401880000000 1.0
C      1  0.5418640000000  0.5868890000000  0.4373580000000 1.0
C      1  0.5479740000000  0.4824100000000  0.5442260000000 1.0
C      1  0.5628380000000  0.4661020000000  0.4811790000000 1.0
C      1  0.5141860000000  0.4274170000000  0.5027270000000 1.0
C      1  0.5396020000000  0.6040190000000  0.4633590000000 1.0
C      1  0.5281720000000  0.6085340000000  0.5729760000000 1.0
C      1  0.4411860000000  0.4967780000000  0.5200410000000 1.0
C      1  0.5262010000000  0.4329040000000  0.4309260000000 1.0
C      1  0.4366490000000  0.5056450000000  0.5760760000000 1.0
C      1  0.5144840000000  0.5021350000000  0.5212040000000 1.0
C      1  0.5828630000000  0.4807440000000  0.5487970000000 1.0
C      1  0.4273820000000  0.4245530000000  0.4922810000000 1.0
C      1  0.5246360000000  0.5355780000000  0.5831550000000 1.0
C      1  0.5530960000000  0.5384990000000  0.5069210000000 1.0
C      1  0.4133890000000  0.4495700000000  0.4484530000000 1.0
C      1  0.4824980000000  0.4935620000000  0.4488640000000 1.0
C      1  0.4662720000000  0.5621680000000  0.5143360000000 1.0
C      1  0.4498280000000  0.5829410000000  0.4541290000000 1.0
C      1  0.5434630000000  0.4182940000000  0.5484640000000 1.0
C      1  0.5031130000000  0.5899340000000  0.5209460000000 1.0
C      1  0.4965010000000  0.4555520000000  0.5552900000000 1.0
C      1  0.5025980000000  0.5592000000000  0.4890350000000 1.0
C      1  0.4837380000000  0.4684340000000  0.5908320000000 1.0
C      1  0.4830940000000  0.5209860000000  0.4287650000000 1.0
C      1  0.4112810000000  0.5393890000000  0.4857030000000 1.0
C      1  0.6015560000000  0.4720930000000  0.4886910000000 1.0
C      1  0.5468460000000  0.4526030000000  0.5285280000000 1.0
C      1  0.4740140000000  0.4672630000000  0.4473400000000 1.0
C      1  0.5905900000000  0.4735180000000  0.4573010000000 1.0
C      1  0.5261750000000  0.5428460000000  0.4570410000000 1.0
C      1  0.5572570000000  0.5191420000000  0.5658280000000 1.0
C      1  0.4930900000000  0.5050650000000  0.4749250000000 1.0
C      1  0.5365010000000  0.5129640000000  0.4175820000000 1.0
C      1  0.4497800000000  0.5764890000000  0.4848670000000 1.0
C      1  0.4477810000000  0.4634350000000  0.5510920000000 1.0
C      1  0.5035250000000  0.5130320000000  0.5706510000000 1.0
C      1  0.5473420000000  0.4760480000000  0.5039090000000 1.0
C      1  0.5703930000000  0.5461600000000  0.5689210000000 1.0
C      1  0.4447010000000  0.4922740000000  0.4059920000000 1.0
C      1  0.4438410000000  0.5451080000000  0.4953140000000 1.0
C      1  0.4608690000000  0.5270430000000  0.4511080000000 1.0
C      1  0.5605440000000  0.4894340000000  0.4565510000000 1.0
C      1  0.5081990000000  0.5031100000000  0.4033310000000 1.0
C      1  0.4646660000000  0.5191530000000  0.5842710000000 1.0
C      1  0.5325660000000  0.5469040000000  0.5324210000000 1.0
C      1  0.4813480000000  0.4673750000000  0.4978200000000 1.0
C      1  0.5563530000000  0.5655290000000  0.4880290000000 1.0
C      1  0.5707680000000  0.4212280000000  0.4976320000000 1.0
C      1  0.5132630000000  0.5351440000000  0.4067790000000 1.0
C      1  0.5956540000000  0.4912830000000  0.5191050000000 1.0
C      1  0.4516960000000  0.5027680000000  0.5464490000000 1.0
C      1  0.4096180000000  0.5067940000000  0.5423120000000 1.0
C      1  0.4146210000000  0.5123380000000  0.4392180000000 1.0
C      1  0.4924110000000  0.5109590000000  0.5423140000000 1.0
C      1  0.4978070000000  0.4030720000000  0.5179250000000 1.0
C      1  0.4782730000000  0.5748720000000  0.4450410000000 1.0
C      1  0.5219700000000  0.4598230000000  0.4336350000000 1.0
C      1  0.4638560000000  0.4468270000000  0.4685680000000 1.0
C      1  0.5759320000000  0.4515660000000  0.5420280000000 1.0
C      1  0.4793960000000  0.4119990000000  0.5679740000000 1.0
C      1  0.4188080000000  0.5453610000000  0.5183270000000 1.0
C      1  0.4658670000000  0.4269380000000  0.5202490000000 1.0
C      1  0.5163780000000  0.5308140000000  0.4944280000000 1.0
C      1  0.4847190000000  0.5001640000000  0.6034770000000 1.0
C      1  0.4178330000000  0.4646580000000  0.4735370000000 1.0
C      1  0.4440530000000  0.5881340000000  0.5769170000000 1.0
C      1  0.4113230000000  0.4808340000000  0.5204210000000 1.0
C      1  0.4197850000000  0.4907370000000  0.4207950000000 1.0
C      1  0.4537010000000  0.4649240000000  0.5791440000000 1.0
C      1  0.4083370000000  0.4653280000000  0.4261320000000 1.0
C      1  0.5818720000000  0.5452750000000  0.4924110000000 1.0
C      1  0.4813560000000  0.5822110000000  0.4781850000000 1.0
C      1  0.4301030000000  0.4564100000000  0.5307450000000 1.0
C      1  0.4032860000000  0.5122540000000  0.4684060000000 1.0
C      1  0.5415030000000  0.5150190000000  0.5370780000000 1.0
C      1  0.4841290000000  0.4520280000000  0.5266360000000 1.0
C      1  0.5385860000000  0.5543540000000  0.5630310000000 1.0
C      1  0.5676200000000  0.4896300000000  0.5779000000000 1.0
C      1  0.5411410000000  0.5169810000000  0.4833940000000 1.0
C      1  0.5202660000000  0.4908680000000  0.4896270000000 1.0
C      1  0.4758940000000  0.4944780000000  0.4094940000000 1.0
C      1  0.6390100000000  0.5085380000000  0.4945910000000 1.0
C      1  0.5026910000000  0.4726820000000  0.4110510000000 1.0
C      1  0.5434650000000  0.4222170000000  0.5146290000000 1.0
C      1  0.5342210000000  0.5841090000000  0.5687240000000 1.0
C      1  0.5216420000000  0.4514790000000  0.4817710000000 1.0
C      1  0.5298270000000  0.4754640000000  0.4608310000000 1.0
C      1  0.4372030000000  0.4340590000000  0.5158880000000 1.0
C      1  0.5390580000000  0.5148280000000  0.4494980000000 1.0
C      1  0.4635410000000  0.4916950000000  0.4980470000000 1.0
C      1  0.4828440000000  0.4340380000000  0.4912730000000 1.0
C      1  0.5823420000000  0.4439570000000  0.4884440000000 1.0
C      1  0.5647880000000  0.4988450000000  0.5182940000000 1.0
C      1  0.4331110000000  0.5328040000000  0.4369510000000 1.0
C      1  0.4894420000000  0.5377220000000  0.4661790000000 1.0
C      1  0.6116390000000  0.5038410000000  0.4937360000000 1.0
C      1  0.4537360000000  0.5353700000000  0.5558970000000 1.0
C      1  0.5243220000000  0.4466240000000  0.5532970000000 1.0
C      1  0.5645870000000  0.4585220000000  0.5863230000000 1.0
C      1  0.5944250000000  0.5241680000000  0.4791110000000 1.0
C      1  0.4263340000000  0.5033190000000  0.4911630000000 1.0
C      1  0.5719450000000  0.5434480000000  0.4355030000000 1.0
C      1  0.4945620000000  0.6008710000000  0.4998230000000 1.0
C      1  0.4931260000000  0.5331320000000  0.5960290000000 1.0
C      1  0.5288340000000  0.5730580000000  0.4724180000000 1.0
C      1  0.5091240000000  0.4702060000000  0.5143680000000 1.0
C      1  0.4234490000000  0.5305680000000  0.5411790000000 1.0
C      1  0.4760560000000  0.4823730000000  0.5509500000000 1.0
C      1  0.5679750000000  0.5151030000000  0.4220470000000 1.0
C      1  0.4357230000000  0.4308210000000  0.4618530000000 1.0
C      1  0.4958600000000  0.5518440000000  0.4270250000000 1.0
C      1  0.4470250000000  0.5647300000000  0.5671840000000 1.0
C      1  0.4792830000000  0.4264080000000  0.4265090000000 1.0
C      1  0.4809850000000  0.4543510000000  0.4243070000000 1.0
C      1  0.4468160000000  0.5032110000000  0.4640780000000 1.0
C      1  0.5382850000000  0.5039920000000  0.5881970000000 1.0
C      1  0.5112100000000  0.4866430000000  0.5879130000000 1.0
C      1  0.4471130000000  0.4726560000000  0.4763230000000 1.0
C      1  0.4792500000000  0.5413950000000  0.5348040000000 1.0
C      1  0.5107160000000  0.5776220000000  0.4434860000000 1.0
C      1  0.4822830000000  0.4373910000000  0.5770160000000 1.0
C      1  0.3987760000000  0.4847050000000  0.4889950000000 1.0
END
