TITL C-3371513-6555-61 -0.000548059839859403 125000 -514.273935924392 0 0 94 (C1) n - 1
REM
REM in /nfs/bkarasulu/CARBON/AIRSS/Generating-Clusters/AIREBO/with-SteepDescent/Only-C1/SD-CG-opt/Try1-1.4A-POS3A/HFTN-CG
REM
REM
REM
REM
REM
REM ./C.cell (11c1c37f851c82e70ff6c80c92926a4b)
REM
REM compiler GCC version 9.2.1 20190827 (Red Hat 9.2.1-1)
REM options -cpp -mtune=generic -march=x86-64 -g -O0 -fpre-include=/usr/include/finclude/math-vector-fortran.h
REM seed -2045695333 -561844663 1345582048 -906500665 1667059783 -2031181555 335398520 -1728029228 -1090835515 838578002 -1443654098 -774052225 1003568701 833931431 -1863018840 -451562078 -1621870812 1382318529 -582327152 -361737781 124682418 894726917 1882119597 1349749365 -160458618 -82389191 1588769694 -1892632270 -1623151169 782671573 -923778029 1348966715 -528893226
REM
CELL 1.54180   50.00000   50.00000   50.00000   90.00000   90.00000   90.00000
LATT -1
SFAC C  
C      1  0.4345270000000  0.4725700000000  0.4417150000000 1.0
C      1  0.4882240000000  0.5478540000000  0.4909830000000 1.0
C      1  0.4791990000000  0.5091470000000  0.4881710000000 1.0
C      1  0.5250060000000  0.4838210000000  0.4411080000000 1.0
C      1  0.5509300000000  0.5704300000000  0.5311200000000 1.0
C      1  0.4483360000000  0.5016560000000  0.5308500000000 1.0
C      1  0.5441890000000  0.4928050000000  0.4634810000000 1.0
C      1  0.4920330000000  0.4394240000000  0.5121460000000 1.0
C      1  0.4581030000000  0.5312210000000  0.4573900000000 1.0
C      1  0.4875510000000  0.5482540000000  0.5376300000000 1.0
C      1  0.4846510000000  0.4672670000000  0.4154350000000 1.0
C      1  0.5590380000000  0.5296070000000  0.4594740000000 1.0
C      1  0.5838680000000  0.4506000000000  0.4958010000000 1.0
C      1  0.5055770000000  0.5101640000000  0.4319070000000 1.0
C      1  0.5580710000000  0.4472690000000  0.5107490000000 1.0
C      1  0.4932460000000  0.5828000000000  0.5798700000000 1.0
C      1  0.4501880000000  0.5830010000000  0.4995050000000 1.0
C      1  0.5054410000000  0.5650050000000  0.5140580000000 1.0
C      1  0.4930440000000  0.4662820000000  0.4971730000000 1.0
C      1  0.4657300000000  0.5304400000000  0.5096230000000 1.0
C      1  0.5249240000000  0.4497530000000  0.5312170000000 1.0
C      1  0.4576270000000  0.4578190000000  0.5194490000000 1.0
C      1  0.4489130000000  0.5022820000000  0.5809190000000 1.0
C      1  0.5099810000000  0.5215820000000  0.4845320000000 1.0
C      1  0.4410590000000  0.4115960000000  0.5034740000000 1.0
C      1  0.5228620000000  0.4736160000000  0.5070540000000 1.0
C      1  0.5817310000000  0.5064080000000  0.5176620000000 1.0
C      1  0.5702800000000  0.5499500000000  0.4973580000000 1.0
C      1  0.5520930000000  0.4777000000000  0.5239470000000 1.0
C      1  0.4737250000000  0.4871890000000  0.5135480000000 1.0
C      1  0.5376280000000  0.5724220000000  0.5554380000000 1.0
C      1  0.4961210000000  0.5600740000000  0.4603720000000 1.0
C      1  0.5114770000000  0.4561610000000  0.4558280000000 1.0
C      1  0.4298240000000  0.5681640000000  0.5208590000000 1.0
C      1  0.4871750000000  0.5225610000000  0.5512020000000 1.0
C      1  0.5337590000000  0.5716140000000  0.5089410000000 1.0
C      1  0.5950580000000  0.5262000000000  0.5412620000000 1.0
C      1  0.4149970000000  0.4735280000000  0.5131250000000 1.0
C      1  0.5143920000000  0.5419550000000  0.4386920000000 1.0
C      1  0.5013560000000  0.4169100000000  0.4934430000000 1.0
C      1  0.5541930000000  0.5113780000000  0.4368050000000 1.0
C      1  0.5755690000000  0.4865670000000  0.4677050000000 1.0
C      1  0.4758030000000  0.4235070000000  0.4795570000000 1.0
C      1  0.4947350000000  0.4439480000000  0.5436140000000 1.0
C      1  0.4364950000000  0.4447400000000  0.4511010000000 1.0
C      1  0.5351260000000  0.5147730000000  0.4180420000000 1.0
C      1  0.5468210000000  0.5612170000000  0.4873630000000 1.0
C      1  0.4966490000000  0.4974100000000  0.5341230000000 1.0
C      1  0.5409860000000  0.5279040000000  0.5365870000000 1.0
C      1  0.5791300000000  0.4589190000000  0.4690270000000 1.0
C      1  0.4703400000000  0.4266890000000  0.5574580000000 1.0
C      1  0.4535500000000  0.4793390000000  0.4221370000000 1.0
C      1  0.4768210000000  0.5462460000000  0.4417000000000 1.0
C      1  0.4318400000000  0.5478600000000  0.4980700000000 1.0
C      1  0.4893920000000  0.5885850000000  0.5286610000000 1.0
C      1  0.6039330000000  0.4949540000000  0.5403340000000 1.0
C      1  0.5310880000000  0.5425670000000  0.4680360000000 1.0
C      1  0.5246070000000  0.5566880000000  0.4158660000000 1.0
C      1  0.4585950000000  0.5147220000000  0.5558990000000 1.0
C      1  0.5303570000000  0.4969600000000  0.5385820000000 1.0
C      1  0.5079690000000  0.5184090000000  0.5765380000000 1.0
C      1  0.5299190000000  0.4336590000000  0.5012680000000 1.0
C      1  0.5149530000000  0.4876180000000  0.5676260000000 1.0
C      1  0.5541870000000  0.5143610000000  0.5082890000000 1.0
C      1  0.5077360000000  0.4529900000000  0.4230440000000 1.0
C      1  0.4648120000000  0.4991530000000  0.4617780000000 1.0
C      1  0.5328470000000  0.4407200000000  0.4698700000000 1.0
C      1  0.4552360000000  0.4490390000000  0.5458940000000 1.0
C      1  0.5275520000000  0.4600560000000  0.5597400000000 1.0
C      1  0.5036270000000  0.5719950000000  0.5553650000000 1.0
C      1  0.5206330000000  0.5428050000000  0.5593890000000 1.0
C      1  0.5320270000000  0.4996990000000  0.4902040000000 1.0
C      1  0.4698080000000  0.5987090000000  0.5130430000000 1.0
C      1  0.4265800000000  0.4854690000000  0.4697100000000 1.0
C      1  0.5703220000000  0.5437880000000  0.5299190000000 1.0
C      1  0.4174340000000  0.4490070000000  0.4990910000000 1.0
C      1  0.4544590000000  0.4701080000000  0.4762400000000 1.0
C      1  0.4570160000000  0.5557840000000  0.4800080000000 1.0
C      1  0.4534390000000  0.4756930000000  0.5623180000000 1.0
C      1  0.4288730000000  0.4778140000000  0.5387240000000 1.0
C      1  0.4339780000000  0.5184030000000  0.5072990000000 1.0
C      1  0.4499140000000  0.4409210000000  0.4930940000000 1.0
C      1  0.4868310000000  0.4728330000000  0.5554420000000 1.0
C      1  0.4846220000000  0.4622380000000  0.4659610000000 1.0
C      1  0.5576850000000  0.4447680000000  0.4540990000000 1.0
C      1  0.4581200000000  0.5574940000000  0.5289060000000 1.0
C      1  0.5728580000000  0.5150090000000  0.4798030000000 1.0
C      1  0.5410050000000  0.4562190000000  0.4293370000000 1.0
C      1  0.5857860000000  0.4737140000000  0.5206940000000 1.0
C      1  0.5031300000000  0.5237210000000  0.6057030000000 1.0
C      1  0.4168620000000  0.4377640000000  0.4708420000000 1.0
C      1  0.4633270000000  0.4373210000000  0.4556020000000 1.0
C      1  0.4801820000000  0.4949110000000  0.4334440000000 1.0
C      1  0.4183040000000  0.4957320000000  0.4945390000000 1.0
END
