TITL C-3371508-3820-45 0.000880281307955727 125000 -701.550754710802 0 0 127 (C1) n - 1
REM
REM in /nfs/bkarasulu/CARBON/AIRSS/Generating-Clusters/AIREBO/with-SteepDescent/Only-C1/SD-CG-opt/Try1-1.4A-POS3A/HFTN-CG
REM
REM
REM
REM
REM
REM ./C.cell (11c1c37f851c82e70ff6c80c92926a4b)
REM
REM compiler GCC version 9.2.1 20190827 (Red Hat 9.2.1-1)
REM options -cpp -mtune=generic -march=x86-64 -g -O0 -fpre-include=/usr/include/finclude/math-vector-fortran.h
REM seed -315389928 -1064600642 -2034813150 -1135769975 -1472990334 874082586 -147380304 221818678 669800895 1399236238 -396516841 -1291440466 1713585139 2047372376 -1299013836 1532557603 -985855151 747403359 938764448 125526077 2051729851 1604801580 -329263615 -493836440 -1771668754 -57154407 480273886 -1628761698 551949710 -987157361 1968296750 -282844815 -1816220249
REM
CELL 1.54180   50.00000   50.00000   50.00000   90.00000   90.00000   90.00000
LATT -1
SFAC C  
C      1  0.4927700000000  0.5795610000000  0.4969570000000 1.0
C      1  0.4440590000000  0.5334780000000  0.5527110000000 1.0
C      1  0.4481560000000  0.4537630000000  0.4567210000000 1.0
C      1  0.5621100000000  0.4307570000000  0.4413480000000 1.0
C      1  0.4470580000000  0.5357550000000  0.4681040000000 1.0
C      1  0.4254140000000  0.5405980000000  0.4427740000000 1.0
C      1  0.5362200000000  0.4710680000000  0.5159930000000 1.0
C      1  0.5516890000000  0.4713460000000  0.4222100000000 1.0
C      1  0.5356010000000  0.5961320000000  0.4747500000000 1.0
C      1  0.5638570000000  0.4308070000000  0.4943930000000 1.0
C      1  0.5064980000000  0.4935290000000  0.4817210000000 1.0
C      1  0.5494070000000  0.5813510000000  0.4937580000000 1.0
C      1  0.4871210000000  0.6221750000000  0.4607720000000 1.0
C      1  0.4248850000000  0.5108010000000  0.4462260000000 1.0
C      1  0.4981710000000  0.5734450000000  0.5458410000000 1.0
C      1  0.5560220000000  0.4720550000000  0.5762940000000 1.0
C      1  0.5106750000000  0.5849210000000  0.5218190000000 1.0
C      1  0.5117440000000  0.4622830000000  0.4940650000000 1.0
C      1  0.5236080000000  0.4853850000000  0.5445450000000 1.0
C      1  0.4502390000000  0.5609300000000  0.4475180000000 1.0
C      1  0.4896250000000  0.4784480000000  0.5143420000000 1.0
C      1  0.4252890000000  0.5377660000000  0.5295600000000 1.0
C      1  0.5271020000000  0.5572090000000  0.5816360000000 1.0
C      1  0.4819510000000  0.4188070000000  0.4682190000000 1.0
C      1  0.5904380000000  0.4755270000000  0.4974070000000 1.0
C      1  0.5114150000000  0.5328170000000  0.5876010000000 1.0
C      1  0.5363710000000  0.5251880000000  0.4328250000000 1.0
C      1  0.5430990000000  0.4171270000000  0.4836230000000 1.0
C      1  0.4663460000000  0.4651240000000  0.5483190000000 1.0
C      1  0.5783100000000  0.4737610000000  0.4623440000000 1.0
C      1  0.4278920000000  0.4675830000000  0.5138770000000 1.0
C      1  0.5126750000000  0.5153020000000  0.5326510000000 1.0
C      1  0.4248620000000  0.4504460000000  0.4755920000000 1.0
C      1  0.4224150000000  0.5022800000000  0.4757770000000 1.0
C      1  0.5906090000000  0.5084600000000  0.5411180000000 1.0
C      1  0.5228530000000  0.5474160000000  0.5284310000000 1.0
C      1  0.5122080000000  0.5782560000000  0.5734610000000 1.0
C      1  0.5094450000000  0.5659070000000  0.4480270000000 1.0
C      1  0.4524890000000  0.5785420000000  0.5384820000000 1.0
C      1  0.4476890000000  0.4824780000000  0.5961650000000 1.0
C      1  0.4947230000000  0.4940740000000  0.5819340000000 1.0
C      1  0.4643170000000  0.5776090000000  0.5111660000000 1.0
C      1  0.5259510000000  0.4171130000000  0.5272730000000 1.0
C      1  0.5076220000000  0.4116290000000  0.4503270000000 1.0
C      1  0.4273340000000  0.4813370000000  0.6137950000000 1.0
C      1  0.5764460000000  0.5069160000000  0.4633410000000 1.0
C      1  0.4943570000000  0.5108480000000  0.5051690000000 1.0
C      1  0.4827780000000  0.4767470000000  0.4369140000000 1.0
C      1  0.4585360000000  0.4533250000000  0.5177070000000 1.0
C      1  0.4776950000000  0.4673060000000  0.4114830000000 1.0
C      1  0.3913080000000  0.5375430000000  0.5313990000000 1.0
C      1  0.4832320000000  0.5254650000000  0.6037500000000 1.0
C      1  0.4080420000000  0.4716010000000  0.4742000000000 1.0
C      1  0.5937150000000  0.4560620000000  0.5212120000000 1.0
C      1  0.4777810000000  0.4510000000000  0.3787070000000 1.0
C      1  0.4602240000000  0.4658480000000  0.4861230000000 1.0
C      1  0.4585470000000  0.4210780000000  0.4929400000000 1.0
C      1  0.5691420000000  0.5524310000000  0.4561640000000 1.0
C      1  0.5389870000000  0.5393690000000  0.4059910000000 1.0
C      1  0.4404050000000  0.5227770000000  0.4961350000000 1.0
C      1  0.5185230000000  0.4854570000000  0.6018840000000 1.0
C      1  0.4881590000000  0.5899100000000  0.4586160000000 1.0
C      1  0.5466380000000  0.4813560000000  0.4708670000000 1.0
C      1  0.4969380000000  0.4316390000000  0.4937150000000 1.0
C      1  0.4888820000000  0.5492230000000  0.5238020000000 1.0
C      1  0.5343320000000  0.4277170000000  0.4568980000000 1.0
C      1  0.5805830000000  0.5035800000000  0.5638770000000 1.0
C      1  0.5610140000000  0.4630650000000  0.4946270000000 1.0
C      1  0.4651530000000  0.5087810000000  0.4210950000000 1.0
C      1  0.4684600000000  0.5004910000000  0.5983320000000 1.0
C      1  0.5501670000000  0.5514810000000  0.5678590000000 1.0
C      1  0.5804090000000  0.5473260000000  0.5094920000000 1.0
C      1  0.5687480000000  0.5187740000000  0.5188880000000 1.0
C      1  0.4557840000000  0.5453360000000  0.5164680000000 1.0
C      1  0.4939600000000  0.5208520000000  0.5609730000000 1.0
C      1  0.5074020000000  0.6047620000000  0.4818780000000 1.0
C      1  0.4528330000000  0.4477560000000  0.4089470000000 1.0
C      1  0.5591910000000  0.5733300000000  0.4401540000000 1.0
C      1  0.5481730000000  0.5298230000000  0.5436210000000 1.0
C      1  0.4635970000000  0.4911920000000  0.5294700000000 1.0
C      1  0.4630810000000  0.5131710000000  0.5494730000000 1.0
C      1  0.5438150000000  0.4431380000000  0.5339400000000 1.0
C      1  0.5709690000000  0.4572120000000  0.4374340000000 1.0
C      1  0.5013600000000  0.4548650000000  0.5321660000000 1.0
C      1  0.4774880000000  0.4256520000000  0.5195530000000 1.0
C      1  0.5118930000000  0.4385910000000  0.5576020000000 1.0
C      1  0.4204530000000  0.4376470000000  0.5221890000000 1.0
C      1  0.4423310000000  0.4681450000000  0.4300080000000 1.0
C      1  0.5732090000000  0.4374130000000  0.5226680000000 1.0
C      1  0.5283130000000  0.4762920000000  0.4357120000000 1.0
C      1  0.5152120000000  0.5027010000000  0.4311630000000 1.0
C      1  0.4984610000000  0.4162660000000  0.5407030000000 1.0
C      1  0.4718120000000  0.5157650000000  0.4725990000000 1.0
C      1  0.5401790000000  0.5334910000000  0.4944800000000 1.0
C      1  0.4793860000000  0.5586350000000  0.4629120000000 1.0
C      1  0.4410520000000  0.4961080000000  0.4283540000000 1.0
C      1  0.5349090000000  0.5841170000000  0.4492650000000 1.0
C      1  0.4923030000000  0.5042500000000  0.4083770000000 1.0
C      1  0.4859370000000  0.5406120000000  0.4910240000000 1.0
C      1  0.5636170000000  0.5561850000000  0.4848960000000 1.0
C      1  0.4100670000000  0.4249090000000  0.5427880000000 1.0
C      1  0.5400280000000  0.4471020000000  0.5653540000000 1.0
C      1  0.5382950000000  0.5048770000000  0.5128530000000 1.0
C      1  0.4584290000000  0.4956040000000  0.4965480000000 1.0
C      1  0.5832880000000  0.5037900000000  0.4920370000000 1.0
C      1  0.5325400000000  0.5081670000000  0.4731100000000 1.0
C      1  0.4547720000000  0.4223860000000  0.4226780000000 1.0
C      1  0.4490380000000  0.4644710000000  0.5741430000000 1.0
C      1  0.5153950000000  0.5558390000000  0.4877090000000 1.0
C      1  0.4849030000000  0.4745190000000  0.4672030000000 1.0
C      1  0.5305030000000  0.5099550000000  0.5900950000000 1.0
C      1  0.5639730000000  0.5261450000000  0.4486880000000 1.0
C      1  0.5217830000000  0.4141240000000  0.5001190000000 1.0
C      1  0.4166700000000  0.4920610000000  0.5071160000000 1.0
C      1  0.4995820000000  0.5133700000000  0.3834620000000 1.0
C      1  0.4961660000000  0.4749360000000  0.5585940000000 1.0
C      1  0.4561730000000  0.5577680000000  0.5583340000000 1.0
C      1  0.5466740000000  0.5020130000000  0.5631910000000 1.0
C      1  0.4065690000000  0.5117000000000  0.5223500000000 1.0
C      1  0.5254310000000  0.4575120000000  0.4632860000000 1.0
C      1  0.4829990000000  0.5529700000000  0.5631220000000 1.0
C      1  0.5377170000000  0.5758670000000  0.5179140000000 1.0
C      1  0.4858970000000  0.5089680000000  0.4473200000000 1.0
C      1  0.5356040000000  0.4637110000000  0.5978260000000 1.0
C      1  0.4327450000000  0.4324700000000  0.4953570000000 1.0
C      1  0.4594220000000  0.4267520000000  0.4492990000000 1.0
C      1  0.5210870000000  0.5372410000000  0.4598160000000 1.0
END
