TITL C-3371504-3437-9 0.00107125551485996 125000 -921.944174383102 0 0 170 (C1) n - 1
REM
REM in /nfs/bkarasulu/CARBON/AIRSS/Generating-Clusters/AIREBO/with-SteepDescent/Only-C1/SD-CG-opt/Try1-1.4A-POS3A/HFTN-CG
REM
REM
REM
REM
REM
REM ./C.cell (11c1c37f851c82e70ff6c80c92926a4b)
REM
REM compiler GCC version 9.2.1 20190827 (Red Hat 9.2.1-1)
REM options -cpp -mtune=generic -march=x86-64 -g -O0 -fpre-include=/usr/include/finclude/math-vector-fortran.h
REM seed 256684258 -1712921349 1085134007 -408001895 -1726516984 -1718393248 458765407 2027002776 -209822760 731877523 607107668 -1584748177 1653336161 478512447 1149114678 -55526196 -1226140011 898972186 -644122439 -1791588077 -798963140 206239384 387718993 -610833512 558735862 -1600108082 219132983 205835618 -539407701 -239327807 1501792854 -2095066095 1800558138
REM
CELL 1.54180   50.00000   50.00000   50.00000   90.00000   90.00000   90.00000
LATT -1
SFAC C  
C      1  0.4054480000000  0.4726910000000  0.5305620000000 1.0
C      1  0.5255910000000  0.4766250000000  0.5780630000000 1.0
C      1  0.5247500000000  0.4221900000000  0.5564590000000 1.0
C      1  0.4443530000000  0.5254620000000  0.4854690000000 1.0
C      1  0.4938610000000  0.5079380000000  0.4681090000000 1.0
C      1  0.5142050000000  0.4658850000000  0.6066530000000 1.0
C      1  0.5144240000000  0.6040500000000  0.4908090000000 1.0
C      1  0.4890160000000  0.4470450000000  0.4897900000000 1.0
C      1  0.4669150000000  0.4498460000000  0.4520750000000 1.0
C      1  0.3910780000000  0.5477790000000  0.5452200000000 1.0
C      1  0.4389410000000  0.5498890000000  0.5002140000000 1.0
C      1  0.4966400000000  0.4316030000000  0.5731130000000 1.0
C      1  0.4490280000000  0.4938360000000  0.5454000000000 1.0
C      1  0.4526620000000  0.5173230000000  0.5697870000000 1.0
C      1  0.4601680000000  0.5379360000000  0.4448400000000 1.0
C      1  0.4413640000000  0.4056660000000  0.5116060000000 1.0
C      1  0.5590780000000  0.5775850000000  0.5475070000000 1.0
C      1  0.6027960000000  0.5287180000000  0.5219320000000 1.0
C      1  0.4265050000000  0.5734150000000  0.4804890000000 1.0
C      1  0.5923500000000  0.5128730000000  0.4086380000000 1.0
C      1  0.5423810000000  0.4377970000000  0.5306370000000 1.0
C      1  0.4960400000000  0.4385970000000  0.5338610000000 1.0
C      1  0.5335690000000  0.6033650000000  0.4215540000000 1.0
C      1  0.4931860000000  0.4077970000000  0.4418190000000 1.0
C      1  0.5140340000000  0.5403530000000  0.4798210000000 1.0
C      1  0.4935310000000  0.4478150000000  0.6013520000000 1.0
C      1  0.5215820000000  0.4237100000000  0.4492680000000 1.0
C      1  0.5869230000000  0.5732790000000  0.5409910000000 1.0
C      1  0.4573500000000  0.5695660000000  0.5719670000000 1.0
C      1  0.4347040000000  0.4363560000000  0.5176330000000 1.0
C      1  0.4891810000000  0.5654500000000  0.4051310000000 1.0
C      1  0.5486140000000  0.4819070000000  0.4632540000000 1.0
C      1  0.5145810000000  0.5067720000000  0.6029900000000 1.0
C      1  0.5571450000000  0.4923350000000  0.4932980000000 1.0
C      1  0.5298210000000  0.5056270000000  0.5658150000000 1.0
C      1  0.4943420000000  0.5697380000000  0.4616860000000 1.0
C      1  0.5889400000000  0.4834430000000  0.5581050000000 1.0
C      1  0.4840620000000  0.5369430000000  0.5312170000000 1.0
C      1  0.5143980000000  0.5559490000000  0.5080940000000 1.0
C      1  0.5062380000000  0.5073870000000  0.4364390000000 1.0
C      1  0.4966590000000  0.5095090000000  0.5314220000000 1.0
C      1  0.4846740000000  0.4735690000000  0.5193400000000 1.0
C      1  0.4598280000000  0.4622110000000  0.5373910000000 1.0
C      1  0.3817030000000  0.5108970000000  0.5097410000000 1.0
C      1  0.5542690000000  0.5153500000000  0.4614590000000 1.0
C      1  0.4962780000000  0.4926460000000  0.5831540000000 1.0
C      1  0.4221730000000  0.4595950000000  0.4622200000000 1.0
C      1  0.5468330000000  0.5440700000000  0.4882640000000 1.0
C      1  0.4820290000000  0.5474950000000  0.5020150000000 1.0
C      1  0.5575910000000  0.4916710000000  0.5552960000000 1.0
C      1  0.5297010000000  0.3917900000000  0.4918130000000 1.0
C      1  0.5154900000000  0.5964710000000  0.5181050000000 1.0
C      1  0.4643310000000  0.4025930000000  0.4966710000000 1.0
C      1  0.5021340000000  0.4750150000000  0.4444660000000 1.0
C      1  0.5150220000000  0.4665590000000  0.5301450000000 1.0
C      1  0.5783530000000  0.4447660000000  0.4483420000000 1.0
C      1  0.5464670000000  0.5184160000000  0.5995490000000 1.0
C      1  0.4572110000000  0.4725940000000  0.4752830000000 1.0
C      1  0.4597350000000  0.5863760000000  0.5245140000000 1.0
C      1  0.4764450000000  0.4302390000000  0.4276120000000 1.0
C      1  0.5478250000000  0.5609800000000  0.5688330000000 1.0
C      1  0.4613790000000  0.4961670000000  0.5137980000000 1.0
C      1  0.5596290000000  0.4671840000000  0.5317860000000 1.0
C      1  0.4879120000000  0.4806360000000  0.4874890000000 1.0
C      1  0.5228590000000  0.5456750000000  0.5350580000000 1.0
C      1  0.4889320000000  0.3883820000000  0.5536030000000 1.0
C      1  0.4282690000000  0.4888520000000  0.5112120000000 1.0
C      1  0.4659640000000  0.5083840000000  0.4325950000000 1.0
C      1  0.5878630000000  0.4534260000000  0.5561010000000 1.0
C      1  0.4818470000000  0.4920310000000  0.5541630000000 1.0
C      1  0.5440490000000  0.4704210000000  0.4145810000000 1.0
C      1  0.5537920000000  0.4150800000000  0.4976140000000 1.0
C      1  0.5152290000000  0.5347630000000  0.4288100000000 1.0
C      1  0.4244930000000  0.4726170000000  0.5556500000000 1.0
C      1  0.4040750000000  0.5011950000000  0.4907430000000 1.0
C      1  0.4226680000000  0.5108670000000  0.5844460000000 1.0
C      1  0.4672710000000  0.4972590000000  0.5909010000000 1.0
C      1  0.3823120000000  0.4623990000000  0.5256780000000 1.0
C      1  0.5130530000000  0.4969670000000  0.5040260000000 1.0
C      1  0.5585700000000  0.5312200000000  0.4194930000000 1.0
C      1  0.5874960000000  0.5099200000000  0.4671540000000 1.0
C      1  0.5630670000000  0.4441040000000  0.5642230000000 1.0
C      1  0.4974930000000  0.4455600000000  0.4110640000000 1.0
C      1  0.5175530000000  0.4241340000000  0.5118080000000 1.0
C      1  0.4582640000000  0.4391170000000  0.5624480000000 1.0
C      1  0.5650790000000  0.5322710000000  0.5746750000000 1.0
C      1  0.5138590000000  0.4818660000000  0.4149690000000 1.0
C      1  0.4682640000000  0.5451050000000  0.5817290000000 1.0
C      1  0.5511760000000  0.5306000000000  0.5436890000000 1.0
C      1  0.5397660000000  0.5738810000000  0.4957680000000 1.0
C      1  0.4291320000000  0.4913600000000  0.4713480000000 1.0
C      1  0.4417980000000  0.4781340000000  0.4232390000000 1.0
C      1  0.4971200000000  0.5472390000000  0.5781670000000 1.0
C      1  0.4509920000000  0.5292460000000  0.4125120000000 1.0
C      1  0.6059170000000  0.4521380000000  0.4626370000000 1.0
C      1  0.4727930000000  0.5175850000000  0.4930010000000 1.0
C      1  0.5200630000000  0.5759380000000  0.4166980000000 1.0
C      1  0.4561570000000  0.5366080000000  0.5427530000000 1.0
C      1  0.5756050000000  0.5477800000000  0.4715620000000 1.0
C      1  0.4510070000000  0.4749340000000  0.5960120000000 1.0
C      1  0.5433860000000  0.6069250000000  0.4447610000000 1.0
C      1  0.3928830000000  0.5018630000000  0.4586030000000 1.0
C      1  0.5954810000000  0.5367670000000  0.5690110000000 1.0
C      1  0.4985800000000  0.5587840000000  0.5496980000000 1.0
C      1  0.4757540000000  0.5902450000000  0.5673940000000 1.0
C      1  0.5418780000000  0.5858110000000  0.5269590000000 1.0
C      1  0.5857210000000  0.5221000000000  0.4378300000000 1.0
C      1  0.5184090000000  0.4371420000000  0.4803720000000 1.0
C      1  0.4083460000000  0.5738510000000  0.5092330000000 1.0
C      1  0.5374450000000  0.4737190000000  0.5087390000000 1.0
C      1  0.6024080000000  0.4837260000000  0.4720700000000 1.0
C      1  0.4800190000000  0.3982140000000  0.4669370000000 1.0
C      1  0.4621680000000  0.5603950000000  0.4120020000000 1.0
C      1  0.5523370000000  0.5448730000000  0.4486810000000 1.0
C      1  0.4952080000000  0.4690040000000  0.3929510000000 1.0
C      1  0.4905910000000  0.6128000000000  0.4813950000000 1.0
C      1  0.4241520000000  0.5145680000000  0.5330830000000 1.0
C      1  0.4321570000000  0.4593500000000  0.4947510000000 1.0
C      1  0.5091290000000  0.5419340000000  0.3997320000000 1.0
C      1  0.4305330000000  0.4542840000000  0.4356320000000 1.0
C      1  0.4683050000000  0.4281540000000  0.4758360000000 1.0
C      1  0.5662680000000  0.5208880000000  0.4991920000000 1.0
C      1  0.5215860000000  0.3934670000000  0.4361930000000 1.0
C      1  0.4332650000000  0.5561020000000  0.4549310000000 1.0
C      1  0.4265570000000  0.5233640000000  0.4601560000000 1.0
C      1  0.4920230000000  0.4600850000000  0.5599630000000 1.0
C      1  0.4206720000000  0.5482080000000  0.5284580000000 1.0
C      1  0.4571200000000  0.5963580000000  0.4461150000000 1.0
C      1  0.5917720000000  0.4648820000000  0.5232540000000 1.0
C      1  0.4434080000000  0.4304540000000  0.4263190000000 1.0
C      1  0.4733830000000  0.5894790000000  0.4715190000000 1.0
C      1  0.4636890000000  0.5720620000000  0.4956820000000 1.0
C      1  0.5973740000000  0.5317250000000  0.4907670000000 1.0
C      1  0.5295150000000  0.5071500000000  0.5319830000000 1.0
C      1  0.5229910000000  0.5620430000000  0.4476010000000 1.0
C      1  0.5742880000000  0.4371790000000  0.4812820000000 1.0
C      1  0.4282380000000  0.4413310000000  0.5477990000000 1.0
C      1  0.5375680000000  0.3990270000000  0.5230270000000 1.0
C      1  0.5333670000000  0.5877780000000  0.4673110000000 1.0
C      1  0.4754690000000  0.4105520000000  0.5623560000000 1.0
C      1  0.4713380000000  0.4800670000000  0.4387670000000 1.0
C      1  0.4253830000000  0.4818670000000  0.5846290000000 1.0
C      1  0.5968630000000  0.4587530000000  0.4947360000000 1.0
C      1  0.5260380000000  0.5366000000000  0.5793280000000 1.0
C      1  0.4435360000000  0.5657730000000  0.5448600000000 1.0
C      1  0.5692370000000  0.5081780000000  0.5279790000000 1.0
C      1  0.4484000000000  0.5741420000000  0.4327080000000 1.0
C      1  0.5147550000000  0.3934970000000  0.5460700000000 1.0
C      1  0.4332430000000  0.5953820000000  0.5060880000000 1.0
C      1  0.5632310000000  0.4974530000000  0.4159720000000 1.0
C      1  0.3921570000000  0.5207230000000  0.5330660000000 1.0
C      1  0.5221050000000  0.4667050000000  0.4639860000000 1.0
C      1  0.4679400000000  0.4379930000000  0.5149300000000 1.0
C      1  0.5997290000000  0.5475240000000  0.5425810000000 1.0
C      1  0.4850730000000  0.4757710000000  0.3690720000000 1.0
C      1  0.5385820000000  0.4885460000000  0.6137800000000 1.0
C      1  0.5561410000000  0.4347360000000  0.4278460000000 1.0
C      1  0.4645070000000  0.4506630000000  0.5908840000000 1.0
C      1  0.4294890000000  0.5031620000000  0.4174300000000 1.0
C      1  0.5460190000000  0.4477550000000  0.4923260000000 1.0
C      1  0.4982640000000  0.4005800000000  0.4957800000000 1.0
C      1  0.5243740000000  0.4445710000000  0.4246270000000 1.0
C      1  0.5263280000000  0.5117210000000  0.4774760000000 1.0
C      1  0.5316800000000  0.4554650000000  0.5576540000000 1.0
C      1  0.4913010000000  0.5884770000000  0.5372050000000 1.0
C      1  0.5401990000000  0.5514770000000  0.4030130000000 1.0
C      1  0.6013170000000  0.4967780000000  0.5303660000000 1.0
C      1  0.4861690000000  0.5401230000000  0.4602930000000 1.0
C      1  0.4107160000000  0.5097900000000  0.4370690000000 1.0
C      1  0.5651330000000  0.4726800000000  0.4393940000000 1.0
END
