TITL C-3371502-3785-28 0.000312637687201111 125000 -473.408000112177 0 0 85 (C1) n - 1
REM
REM in /nfs/bkarasulu/CARBON/AIRSS/Generating-Clusters/AIREBO/with-SteepDescent/Only-C1/SD-CG-opt/Try1-1.4A-POS3A/HFTN-CG
REM
REM
REM
REM
REM
REM ./C.cell (11c1c37f851c82e70ff6c80c92926a4b)
REM
REM compiler GCC version 9.2.1 20190827 (Red Hat 9.2.1-1)
REM options -cpp -mtune=generic -march=x86-64 -g -O0 -fpre-include=/usr/include/finclude/math-vector-fortran.h
REM seed -1697130278 -1448389777 168791839 -22402102 -501244020 471862571 217105059 558635726 1291071122 789205871 -1005494633 -1878206621 -38731626 1793434068 915407444 -2101360162 94208773 84362512 1848852288 -530062030 -1124793283 -744442566 -2007234177 -1299044760 1796525864 -923152807 784079618 678436764 -2112669110 689672622 2058823973 -1827746616 -1230237299
REM
CELL 1.54180   50.00000   50.00000   50.00000   90.00000   90.00000   90.00000
LATT -1
SFAC C  
C      1  0.5072320000000  0.5059630000000  0.5785680000000 1.0
C      1  0.5565220000000  0.4634850000000  0.5146680000000 1.0
C      1  0.5258340000000  0.5596330000000  0.4857830000000 1.0
C      1  0.5509270000000  0.4924480000000  0.5621190000000 1.0
C      1  0.5203710000000  0.5286750000000  0.4728280000000 1.0
C      1  0.5583560000000  0.5110510000000  0.4438400000000 1.0
C      1  0.5080260000000  0.5396380000000  0.4431860000000 1.0
C      1  0.4267970000000  0.4936700000000  0.4829590000000 1.0
C      1  0.4794980000000  0.4521510000000  0.5749990000000 1.0
C      1  0.5366510000000  0.4290960000000  0.5152040000000 1.0
C      1  0.5935480000000  0.4941070000000  0.4749690000000 1.0
C      1  0.5258080000000  0.4799470000000  0.4396960000000 1.0
C      1  0.4786160000000  0.5745470000000  0.5532180000000 1.0
C      1  0.4751450000000  0.4949910000000  0.5486860000000 1.0
C      1  0.5182630000000  0.4309530000000  0.4638440000000 1.0
C      1  0.4603120000000  0.5312860000000  0.5035380000000 1.0
C      1  0.4683360000000  0.5629710000000  0.5041660000000 1.0
C      1  0.4668590000000  0.4724260000000  0.4233580000000 1.0
C      1  0.4740460000000  0.4606420000000  0.4952250000000 1.0
C      1  0.4953830000000  0.5183160000000  0.4894540000000 1.0
C      1  0.5112000000000  0.4713760000000  0.5052520000000 1.0
C      1  0.4320090000000  0.4672530000000  0.4621880000000 1.0
C      1  0.5326170000000  0.5123720000000  0.5423970000000 1.0
C      1  0.4492670000000  0.4388680000000  0.5356520000000 1.0
C      1  0.4713740000000  0.4362460000000  0.4539530000000 1.0
C      1  0.5780270000000  0.4806130000000  0.4942470000000 1.0
C      1  0.4388850000000  0.4620740000000  0.5542450000000 1.0
C      1  0.5551360000000  0.4382360000000  0.4928820000000 1.0
C      1  0.4607900000000  0.4723730000000  0.5682860000000 1.0
C      1  0.5526680000000  0.4986500000000  0.4964590000000 1.0
C      1  0.5340280000000  0.4531970000000  0.5381920000000 1.0
C      1  0.4603640000000  0.5319340000000  0.5524150000000 1.0
C      1  0.4436280000000  0.4939400000000  0.4475940000000 1.0
C      1  0.5811060000000  0.5178830000000  0.4614490000000 1.0
C      1  0.5519160000000  0.5590480000000  0.5344130000000 1.0
C      1  0.4848620000000  0.5273420000000  0.5695970000000 1.0
C      1  0.4564730000000  0.4909410000000  0.5135450000000 1.0
C      1  0.4782920000000  0.4708450000000  0.5273880000000 1.0
C      1  0.5629620000000  0.5252990000000  0.5040540000000 1.0
C      1  0.4153980000000  0.5049880000000  0.5074890000000 1.0
C      1  0.5565280000000  0.5608210000000  0.4738510000000 1.0
C      1  0.4807890000000  0.4133980000000  0.5036350000000 1.0
C      1  0.5078960000000  0.5608710000000  0.5608280000000 1.0
C      1  0.4823450000000  0.5278770000000  0.4608890000000 1.0
C      1  0.4997550000000  0.4723790000000  0.4460520000000 1.0
C      1  0.5409180000000  0.5616960000000  0.5605360000000 1.0
C      1  0.5066780000000  0.4422650000000  0.5113970000000 1.0
C      1  0.5548860000000  0.5322390000000  0.5285360000000 1.0
C      1  0.5242530000000  0.5330770000000  0.5680570000000 1.0
C      1  0.5350340000000  0.4696660000000  0.5639980000000 1.0
C      1  0.5003520000000  0.4556790000000  0.5483690000000 1.0
C      1  0.4279780000000  0.4853120000000  0.5304320000000 1.0
C      1  0.4544780000000  0.4558860000000  0.4419790000000 1.0
C      1  0.5648190000000  0.5828700000000  0.4599720000000 1.0
C      1  0.5031680000000  0.6009050000000  0.4951230000000 1.0
C      1  0.5391160000000  0.5034720000000  0.4691350000000 1.0
C      1  0.4609670000000  0.5563630000000  0.5353320000000 1.0
C      1  0.5721750000000  0.5382800000000  0.4808910000000 1.0
C      1  0.4988040000000  0.5157520000000  0.5408320000000 1.0
C      1  0.5425340000000  0.5735520000000  0.5120620000000 1.0
C      1  0.4980490000000  0.4443260000000  0.4485500000000 1.0
C      1  0.5156290000000  0.5842260000000  0.5155100000000 1.0
C      1  0.5341370000000  0.5036870000000  0.4264720000000 1.0
C      1  0.4422770000000  0.4580160000000  0.4907470000000 1.0
C      1  0.4368330000000  0.5098290000000  0.4268030000000 1.0
C      1  0.4838520000000  0.5018890000000  0.4243830000000 1.0
C      1  0.4924670000000  0.4863940000000  0.4857470000000 1.0
C      1  0.5083020000000  0.4197090000000  0.4875640000000 1.0
C      1  0.5433090000000  0.4443740000000  0.4680410000000 1.0
C      1  0.5104590000000  0.5185330000000  0.4220930000000 1.0
C      1  0.4706270000000  0.4318280000000  0.4822410000000 1.0
C      1  0.4912010000000  0.5334480000000  0.5176040000000 1.0
C      1  0.4576570000000  0.5054190000000  0.4830880000000 1.0
C      1  0.5333080000000  0.4880300000000  0.5185460000000 1.0
C      1  0.4996440000000  0.5630280000000  0.5288540000000 1.0
C      1  0.4583290000000  0.5153000000000  0.4102330000000 1.0
C      1  0.4763760000000  0.4946500000000  0.4567840000000 1.0
C      1  0.4823460000000  0.4314910000000  0.5326060000000 1.0
C      1  0.5446970000000  0.4709640000000  0.4600170000000 1.0
C      1  0.4859350000000  0.5605720000000  0.4573310000000 1.0
C      1  0.4435670000000  0.5073900000000  0.5510640000000 1.0
C      1  0.4270960000000  0.5305310000000  0.5091480000000 1.0
C      1  0.5084200000000  0.4794720000000  0.5713060000000 1.0
C      1  0.4935090000000  0.5703960000000  0.4853490000000 1.0
C      1  0.4309670000000  0.4546650000000  0.5160080000000 1.0
END
