TITL C-3371513-6555-34 0.00429786550381603 125000 -512.309831846203 0 0 89 (C1) n - 1
REM
REM in /nfs/bkarasulu/CARBON/AIRSS/Generating-Clusters/AIREBO/with-SteepDescent/Only-C1/SD-CG-opt/Try1-1.4A-POS3A/HFTN-CG
REM
REM
REM
REM
REM
REM ./C.cell (11c1c37f851c82e70ff6c80c92926a4b)
REM
REM compiler GCC version 9.2.1 20190827 (Red Hat 9.2.1-1)
REM options -cpp -mtune=generic -march=x86-64 -g -O0 -fpre-include=/usr/include/finclude/math-vector-fortran.h
REM seed -1000723423 -1073660506 -1288555742 501172836 1117008798 117850002 1436972852 -2089687983 -290516347 162142280 1670842494 -1764160262 -216611660 1265096337 -1404212764 -28524695 973663570 1762115106 1192840820 -184079144 2005025828 -554619788 -2048245128 -1890017690 1643907415 26930042 1812044440 -922086994 745645314 -1308964513 -1553066698 109549752 -1573765840
REM
CELL 1.54180   50.00000   50.00000   50.00000   90.00000   90.00000   90.00000
LATT -1
SFAC C  
C      1  0.5448530000000  0.5649630000000  0.4713490000000 1.0
C      1  0.4426780000000  0.5821920000000  0.4905180000000 1.0
C      1  0.4956830000000  0.5152390000000  0.4928710000000 1.0
C      1  0.4850290000000  0.4777580000000  0.4562340000000 1.0
C      1  0.4599990000000  0.4626050000000  0.5615850000000 1.0
C      1  0.5496250000000  0.4958970000000  0.4906740000000 1.0
C      1  0.4753300000000  0.5591740000000  0.5116800000000 1.0
C      1  0.5665420000000  0.5443220000000  0.5897000000000 1.0
C      1  0.5365310000000  0.4366040000000  0.5322200000000 1.0
C      1  0.5310540000000  0.5413590000000  0.4535530000000 1.0
C      1  0.4718100000000  0.4220940000000  0.5076040000000 1.0
C      1  0.5413420000000  0.4972420000000  0.4232920000000 1.0
C      1  0.5207220000000  0.5692020000000  0.5140460000000 1.0
C      1  0.4591360000000  0.4792810000000  0.5025180000000 1.0
C      1  0.4960360000000  0.5763830000000  0.5021710000000 1.0
C      1  0.5258190000000  0.4724160000000  0.4916030000000 1.0
C      1  0.4119710000000  0.5066560000000  0.5293810000000 1.0
C      1  0.5598010000000  0.5470760000000  0.4964980000000 1.0
C      1  0.5339790000000  0.5255450000000  0.4912990000000 1.0
C      1  0.4157730000000  0.4792940000000  0.5287390000000 1.0
C      1  0.4674880000000  0.4296440000000  0.4452780000000 1.0
C      1  0.4484920000000  0.5681920000000  0.5150590000000 1.0
C      1  0.5057100000000  0.4444450000000  0.5389430000000 1.0
C      1  0.4767010000000  0.5099150000000  0.5465590000000 1.0
C      1  0.5052240000000  0.4282410000000  0.5090470000000 1.0
C      1  0.4768100000000  0.4928520000000  0.5196650000000 1.0
C      1  0.5356250000000  0.5173440000000  0.5476720000000 1.0
C      1  0.5073460000000  0.4892740000000  0.5114910000000 1.0
C      1  0.5570350000000  0.4464230000000  0.5472260000000 1.0
C      1  0.4601900000000  0.4780050000000  0.4750830000000 1.0
C      1  0.5576720000000  0.4980070000000  0.4592970000000 1.0
C      1  0.4523800000000  0.5450780000000  0.4792530000000 1.0
C      1  0.4421010000000  0.5205080000000  0.4191610000000 1.0
C      1  0.5071580000000  0.4628880000000  0.4687270000000 1.0
C      1  0.5118370000000  0.4973430000000  0.4178500000000 1.0
C      1  0.5452070000000  0.5768720000000  0.5015480000000 1.0
C      1  0.4318870000000  0.5095320000000  0.4415990000000 1.0
C      1  0.5067960000000  0.4797610000000  0.3893720000000 1.0
C      1  0.4281100000000  0.5292000000000  0.4842700000000 1.0
C      1  0.4728160000000  0.4592630000000  0.4341900000000 1.0
C      1  0.4863580000000  0.5022270000000  0.3954180000000 1.0
C      1  0.5499950000000  0.5211700000000  0.4416330000000 1.0
C      1  0.5219520000000  0.5409720000000  0.5185970000000 1.0
C      1  0.4897820000000  0.4198350000000  0.4602140000000 1.0
C      1  0.4369990000000  0.4646400000000  0.5478790000000 1.0
C      1  0.4623850000000  0.5729410000000  0.4685550000000 1.0
C      1  0.5799790000000  0.5344450000000  0.5149050000000 1.0
C      1  0.5122160000000  0.4371950000000  0.4591040000000 1.0
C      1  0.4335230000000  0.4737890000000  0.4588320000000 1.0
C      1  0.4681690000000  0.5207740000000  0.4000020000000 1.0
C      1  0.4397690000000  0.4606030000000  0.5157500000000 1.0
C      1  0.4713790000000  0.5374260000000  0.5750840000000 1.0
C      1  0.4856010000000  0.4449970000000  0.5606790000000 1.0
C      1  0.4516800000000  0.5327120000000  0.5508520000000 1.0
C      1  0.4751390000000  0.5335400000000  0.4959570000000 1.0
C      1  0.4893170000000  0.4086350000000  0.4860370000000 1.0
C      1  0.5821080000000  0.4655580000000  0.5099530000000 1.0
C      1  0.5140270000000  0.5704310000000  0.4580650000000 1.0
C      1  0.4965600000000  0.5450780000000  0.5667510000000 1.0
C      1  0.4708390000000  0.5147660000000  0.5908330000000 1.0
C      1  0.4923570000000  0.4641590000000  0.5842860000000 1.0
C      1  0.5824250000000  0.4898110000000  0.4956580000000 1.0
C      1  0.4985300000000  0.5020390000000  0.4450620000000 1.0
C      1  0.5955210000000  0.5141070000000  0.5022270000000 1.0
C      1  0.5729740000000  0.5297720000000  0.5416290000000 1.0
C      1  0.5554070000000  0.4733300000000  0.4415520000000 1.0
C      1  0.4217640000000  0.5200880000000  0.5538680000000 1.0
C      1  0.5533580000000  0.5403570000000  0.5655510000000 1.0
C      1  0.5116830000000  0.5193300000000  0.4663590000000 1.0
C      1  0.5194520000000  0.4733110000000  0.5367310000000 1.0
C      1  0.4916550000000  0.5778820000000  0.4731290000000 1.0
C      1  0.5700280000000  0.4711410000000  0.5366760000000 1.0
C      1  0.5064410000000  0.5260300000000  0.5430200000000 1.0
C      1  0.5077410000000  0.4618950000000  0.6063700000000 1.0
C      1  0.5360680000000  0.4406260000000  0.4984580000000 1.0
C      1  0.5697740000000  0.4983630000000  0.5537460000000 1.0
C      1  0.4344140000000  0.5480300000000  0.5282340000000 1.0
C      1  0.5396220000000  0.4317190000000  0.4658290000000 1.0
C      1  0.4302300000000  0.5039050000000  0.4717400000000 1.0
C      1  0.5386270000000  0.4848600000000  0.5572580000000 1.0
C      1  0.4426150000000  0.4524570000000  0.4411000000000 1.0
C      1  0.4476530000000  0.4319270000000  0.5097630000000 1.0
C      1  0.5530860000000  0.5000490000000  0.5241640000000 1.0
C      1  0.4745580000000  0.4893770000000  0.5726740000000 1.0
C      1  0.5699530000000  0.4434860000000  0.4987140000000 1.0
C      1  0.4200020000000  0.5293180000000  0.5119160000000 1.0
C      1  0.5238920000000  0.5540150000000  0.5655200000000 1.0
C      1  0.5576600000000  0.4465930000000  0.4494900000000 1.0
C      1  0.4444350000000  0.5422000000000  0.3953420000000 1.0
END
