TITL C-3371514-4997-26 0.000469934271653546 125000 -705.504064373237 0 0 130 (C1) n - 1
REM
REM in /nfs/bkarasulu/CARBON/AIRSS/Generating-Clusters/AIREBO/with-SteepDescent/Only-C1/SD-CG-opt/Try1-1.4A-POS3A/HFTN-CG
REM
REM
REM
REM
REM
REM ./C.cell (11c1c37f851c82e70ff6c80c92926a4b)
REM
REM compiler GCC version 9.2.1 20190827 (Red Hat 9.2.1-1)
REM options -cpp -mtune=generic -march=x86-64 -g -O0 -fpre-include=/usr/include/finclude/math-vector-fortran.h
REM seed -127045064 -283346538 -910883496 1628991871 1137118729 -1743795393 620841577 -1537697337 696117777 73304216 1286752933 -1420155787 -1048927730 -1745049729 -1210142691 -1053768648 802210601 -1050801807 -831041470 -1238123040 -612263330 -2130963908 1178337028 -1547224855 1462609593 1086902388 742012906 -1562443055 1844373483 838601856 -1026265779 -1731323539 1995714513
REM
CELL 1.54180   50.00000   50.00000   50.00000   90.00000   90.00000   90.00000
LATT -1
SFAC C  
C      1  0.4805170000000  0.4421580000000  0.4667610000000 1.0
C      1  0.5104760000000  0.5098540000000  0.5682980000000 1.0
C      1  0.5126240000000  0.5763310000000  0.4200290000000 1.0
C      1  0.4602550000000  0.5056740000000  0.5436650000000 1.0
C      1  0.5786740000000  0.5760510000000  0.4783570000000 1.0
C      1  0.4969760000000  0.5636330000000  0.4545400000000 1.0
C      1  0.4974550000000  0.5270570000000  0.4025710000000 1.0
C      1  0.4442230000000  0.5615160000000  0.4831220000000 1.0
C      1  0.4725700000000  0.4807340000000  0.4728930000000 1.0
C      1  0.4500740000000  0.4512140000000  0.5746540000000 1.0
C      1  0.4873260000000  0.5461650000000  0.4270040000000 1.0
C      1  0.5217840000000  0.4185770000000  0.5995730000000 1.0
C      1  0.4956020000000  0.5804090000000  0.4976540000000 1.0
C      1  0.5478140000000  0.5098380000000  0.5244570000000 1.0
C      1  0.5647040000000  0.4458650000000  0.5364560000000 1.0
C      1  0.4337380000000  0.4757580000000  0.4270590000000 1.0
C      1  0.4634970000000  0.5320260000000  0.5020380000000 1.0
C      1  0.5813220000000  0.4595660000000  0.4939180000000 1.0
C      1  0.5792090000000  0.5544670000000  0.4565650000000 1.0
C      1  0.4364590000000  0.4340240000000  0.5886210000000 1.0
C      1  0.5950540000000  0.5257670000000  0.4655820000000 1.0
C      1  0.4909940000000  0.5513720000000  0.5007540000000 1.0
C      1  0.4734230000000  0.5038920000000  0.6052700000000 1.0
C      1  0.5062510000000  0.4811170000000  0.5526320000000 1.0
C      1  0.4547490000000  0.5611010000000  0.5145890000000 1.0
C      1  0.5148130000000  0.4871260000000  0.5912240000000 1.0
C      1  0.5843540000000  0.4442420000000  0.5169160000000 1.0
C      1  0.4234100000000  0.4626630000000  0.4535370000000 1.0
C      1  0.5628320000000  0.4540120000000  0.4719530000000 1.0
C      1  0.5418740000000  0.5174700000000  0.5631360000000 1.0
C      1  0.4541490000000  0.4499220000000  0.5407320000000 1.0
C      1  0.4950530000000  0.6053850000000  0.5204440000000 1.0
C      1  0.3910340000000  0.5060660000000  0.4869860000000 1.0
C      1  0.5074660000000  0.4984830000000  0.4808350000000 1.0
C      1  0.4135330000000  0.4353180000000  0.4714650000000 1.0
C      1  0.5148840000000  0.4336280000000  0.5783390000000 1.0
C      1  0.5369410000000  0.5234270000000  0.4392930000000 1.0
C      1  0.4631920000000  0.5675880000000  0.4552750000000 1.0
C      1  0.4940860000000  0.4568440000000  0.5100350000000 1.0
C      1  0.5999940000000  0.5214880000000  0.5673470000000 1.0
C      1  0.5413770000000  0.4923560000000  0.4145420000000 1.0
C      1  0.4643000000000  0.5296730000000  0.3955300000000 1.0
C      1  0.4379650000000  0.5062030000000  0.4363480000000 1.0
C      1  0.4813530000000  0.5139680000000  0.4280250000000 1.0
C      1  0.4175600000000  0.5405610000000  0.4857850000000 1.0
C      1  0.4123570000000  0.5231950000000  0.5375660000000 1.0
C      1  0.4365660000000  0.5139100000000  0.4950030000000 1.0
C      1  0.5903540000000  0.4899780000000  0.4972330000000 1.0
C      1  0.5090870000000  0.4213920000000  0.5193650000000 1.0
C      1  0.5794120000000  0.5109080000000  0.5218630000000 1.0
C      1  0.4165480000000  0.5192290000000  0.4593220000000 1.0
C      1  0.5104620000000  0.5379750000000  0.6029310000000 1.0
C      1  0.5139990000000  0.4606280000000  0.5791420000000 1.0
C      1  0.5068740000000  0.5422650000000  0.5269600000000 1.0
C      1  0.4438560000000  0.5399400000000  0.4568440000000 1.0
C      1  0.5394480000000  0.4331730000000  0.5291490000000 1.0
C      1  0.5405730000000  0.3990040000000  0.5285360000000 1.0
C      1  0.4713340000000  0.5587280000000  0.5618070000000 1.0
C      1  0.5222180000000  0.4211990000000  0.4881720000000 1.0
C      1  0.4616300000000  0.4704010000000  0.4457580000000 1.0
C      1  0.4606210000000  0.4802900000000  0.5843550000000 1.0
C      1  0.4888280000000  0.6096400000000  0.4816630000000 1.0
C      1  0.4718730000000  0.5236340000000  0.4560470000000 1.0
C      1  0.4611520000000  0.5139850000000  0.5766230000000 1.0
C      1  0.5753620000000  0.4914560000000  0.4705400000000 1.0
C      1  0.5208280000000  0.5406800000000  0.4624070000000 1.0
C      1  0.5079870000000  0.6101760000000  0.5434680000000 1.0
C      1  0.5351500000000  0.5387010000000  0.5184400000000 1.0
C      1  0.5095180000000  0.5919110000000  0.4659190000000 1.0
C      1  0.5721080000000  0.4721170000000  0.4471060000000 1.0
C      1  0.4469290000000  0.4164780000000  0.5346150000000 1.0
C      1  0.5690440000000  0.5247240000000  0.4435790000000 1.0
C      1  0.6022330000000  0.5208220000000  0.4986790000000 1.0
C      1  0.4648220000000  0.4086460000000  0.5138210000000 1.0
C      1  0.5563470000000  0.5464080000000  0.5561570000000 1.0
C      1  0.4119260000000  0.4877550000000  0.4715070000000 1.0
C      1  0.5253780000000  0.4560240000000  0.5079740000000 1.0
C      1  0.4504440000000  0.4907900000000  0.5155200000000 1.0
C      1  0.5173190000000  0.3826910000000  0.5246710000000 1.0
C      1  0.4795210000000  0.5783860000000  0.4272460000000 1.0
C      1  0.4509890000000  0.5555450000000  0.5423760000000 1.0
C      1  0.5471210000000  0.5007350000000  0.4786770000000 1.0
C      1  0.4373650000000  0.5304820000000  0.5446390000000 1.0
C      1  0.5766150000000  0.4686780000000  0.5774640000000 1.0
C      1  0.4639990000000  0.4692180000000  0.4130050000000 1.0
C      1  0.4843700000000  0.5197980000000  0.5242840000000 1.0
C      1  0.4119190000000  0.4739280000000  0.5219060000000 1.0
C      1  0.5403070000000  0.4870450000000  0.5485420000000 1.0
C      1  0.5241420000000  0.5564800000000  0.4056210000000 1.0
C      1  0.5234520000000  0.4170840000000  0.4582000000000 1.0
C      1  0.5111610000000  0.4764720000000  0.4353840000000 1.0
C      1  0.4101230000000  0.5036720000000  0.5137850000000 1.0
C      1  0.5380390000000  0.5396200000000  0.4877900000000 1.0
C      1  0.4461510000000  0.5242880000000  0.4121420000000 1.0
C      1  0.5318090000000  0.4621910000000  0.4161080000000 1.0
C      1  0.4783630000000  0.4823310000000  0.5029710000000 1.0
C      1  0.4512630000000  0.5022580000000  0.4674190000000 1.0
C      1  0.5260840000000  0.4973240000000  0.4536920000000 1.0
C      1  0.5224530000000  0.4383100000000  0.4318680000000 1.0
C      1  0.4878390000000  0.4861200000000  0.4207040000000 1.0
C      1  0.4897050000000  0.3957860000000  0.5188110000000 1.0
C      1  0.5257080000000  0.5907760000000  0.4397210000000 1.0
C      1  0.5808530000000  0.5257270000000  0.5500470000000 1.0
C      1  0.5017600000000  0.4939290000000  0.5225220000000 1.0
C      1  0.5282070000000  0.5227360000000  0.4067370000000 1.0
C      1  0.5009830000000  0.5085290000000  0.6070830000000 1.0
C      1  0.4864810000000  0.4404160000000  0.5362230000000 1.0
C      1  0.5642800000000  0.4957330000000  0.4300610000000 1.0
C      1  0.5528500000000  0.5625370000000  0.5295910000000 1.0
C      1  0.4891820000000  0.5332030000000  0.5754980000000 1.0
C      1  0.5033320000000  0.4673970000000  0.4672040000000 1.0
C      1  0.4466000000000  0.4589300000000  0.5088130000000 1.0
C      1  0.5617130000000  0.4666560000000  0.5545200000000 1.0
C      1  0.4465200000000  0.4419250000000  0.4674030000000 1.0
C      1  0.5291330000000  0.4897490000000  0.5055430000000 1.0
C      1  0.4959100000000  0.4260720000000  0.4457200000000 1.0
C      1  0.5866690000000  0.5491520000000  0.4965800000000 1.0
C      1  0.5272060000000  0.5455480000000  0.5743430000000 1.0
C      1  0.4179370000000  0.4613920000000  0.4928370000000 1.0
C      1  0.5660260000000  0.5277430000000  0.4831860000000 1.0
C      1  0.4728090000000  0.4755210000000  0.5531130000000 1.0
C      1  0.4212130000000  0.4280600000000  0.5459010000000 1.0
C      1  0.4213860000000  0.4586620000000  0.5433660000000 1.0
C      1  0.4696920000000  0.4361880000000  0.4984420000000 1.0
C      1  0.4941700000000  0.5281290000000  0.4760960000000 1.0
C      1  0.5084390000000  0.4226720000000  0.5541750000000 1.0
C      1  0.5320570000000  0.4513410000000  0.4768100000000 1.0
C      1  0.5041900000000  0.5545870000000  0.5537270000000 1.0
C      1  0.4823270000000  0.6287490000000  0.5032890000000 1.0
C      1  0.5710490000000  0.5727520000000  0.5112610000000 1.0
END
