TITL C-3371500-4992-64 -0.00214415137844307 125000 -989.313088860946 0 0 181 (C1) n - 1
REM
REM in /nfs/bkarasulu/CARBON/AIRSS/Generating-Clusters/AIREBO/with-SteepDescent/Only-C1/SD-CG-opt/Try1-1.4A-POS3A/HFTN-CG
REM
REM
REM
REM
REM
REM ./C.cell (11c1c37f851c82e70ff6c80c92926a4b)
REM
REM compiler GCC version 9.2.1 20190827 (Red Hat 9.2.1-1)
REM options -cpp -mtune=generic -march=x86-64 -g -O0 -fpre-include=/usr/include/finclude/math-vector-fortran.h
REM seed 1778247052 413970672 -1161431483 -625829224 -443392413 929080009 -1024040271 1494861644 -599772366 601589226 -1455000030 1173142422 -1017572517 -1430659057 851575482 799251264 1616362309 -557524374 -1036234357 1931836795 1927680331 322919906 247376749 1649355752 -1258253387 597070641 -1308336716 -978705454 -1615599942 -935643516 80704724 829500160 2145845316
REM
CELL 1.54180   50.00000   50.00000   50.00000   90.00000   90.00000   90.00000
LATT -1
SFAC C  
C      1  0.4381470000000  0.4630630000000  0.5382240000000 1.0
C      1  0.4882800000000  0.4640110000000  0.4197200000000 1.0
C      1  0.4251230000000  0.4388160000000  0.4691850000000 1.0
C      1  0.4944430000000  0.5758010000000  0.4432260000000 1.0
C      1  0.4651530000000  0.5088980000000  0.5627060000000 1.0
C      1  0.3817400000000  0.5006080000000  0.4763200000000 1.0
C      1  0.5289680000000  0.4562630000000  0.5774700000000 1.0
C      1  0.5026980000000  0.5491640000000  0.5272660000000 1.0
C      1  0.4848240000000  0.5728080000000  0.4766500000000 1.0
C      1  0.4932190000000  0.4367970000000  0.5347170000000 1.0
C      1  0.4794960000000  0.4987810000000  0.4602220000000 1.0
C      1  0.5548300000000  0.5143950000000  0.4481440000000 1.0
C      1  0.5033820000000  0.3977010000000  0.5001800000000 1.0
C      1  0.5109310000000  0.5495200000000  0.6005760000000 1.0
C      1  0.5887730000000  0.5096160000000  0.5682180000000 1.0
C      1  0.4442780000000  0.4954580000000  0.5315870000000 1.0
C      1  0.4538160000000  0.5275580000000  0.5256180000000 1.0
C      1  0.4881120000000  0.4370860000000  0.4686090000000 1.0
C      1  0.5707390000000  0.4364860000000  0.4393570000000 1.0
C      1  0.4294090000000  0.5043900000000  0.4958550000000 1.0
C      1  0.4941620000000  0.5478270000000  0.4600670000000 1.0
C      1  0.5421150000000  0.5747590000000  0.5642690000000 1.0
C      1  0.4735010000000  0.5285210000000  0.4222610000000 1.0
C      1  0.5901540000000  0.5131300000000  0.4664750000000 1.0
C      1  0.5550310000000  0.4416850000000  0.5626110000000 1.0
C      1  0.4996410000000  0.5712720000000  0.5761470000000 1.0
C      1  0.5083980000000  0.4502990000000  0.6005040000000 1.0
C      1  0.4820760000000  0.5962690000000  0.5235410000000 1.0
C      1  0.5718750000000  0.5326860000000  0.5528580000000 1.0
C      1  0.5654920000000  0.5578730000000  0.4868210000000 1.0
C      1  0.6153250000000  0.4491440000000  0.5124650000000 1.0
C      1  0.4928310000000  0.4202410000000  0.5972470000000 1.0
C      1  0.4633570000000  0.4217500000000  0.5788900000000 1.0
C      1  0.5575600000000  0.4726510000000  0.4912180000000 1.0
C      1  0.4552300000000  0.4279010000000  0.4360370000000 1.0
C      1  0.4209670000000  0.5478500000000  0.4638960000000 1.0
C      1  0.4174250000000  0.4878920000000  0.4463190000000 1.0
C      1  0.5265710000000  0.4413970000000  0.3969790000000 1.0
C      1  0.4367670000000  0.5703720000000  0.4495280000000 1.0
C      1  0.5865290000000  0.4742990000000  0.4734870000000 1.0
C      1  0.5484900000000  0.5576400000000  0.4111150000000 1.0
C      1  0.5070930000000  0.5288140000000  0.4276580000000 1.0
C      1  0.5012710000000  0.5792400000000  0.5430640000000 1.0
C      1  0.4529470000000  0.4029310000000  0.4769290000000 1.0
C      1  0.4444750000000  0.5922160000000  0.4640390000000 1.0
C      1  0.5060390000000  0.4016550000000  0.5481790000000 1.0
C      1  0.5540750000000  0.4252650000000  0.4589260000000 1.0
C      1  0.4979510000000  0.6051220000000  0.4953760000000 1.0
C      1  0.5317450000000  0.5319680000000  0.4801300000000 1.0
C      1  0.4003870000000  0.5594520000000  0.5455130000000 1.0
C      1  0.4014330000000  0.5331640000000  0.4446730000000 1.0
C      1  0.4853000000000  0.5064090000000  0.5382960000000 1.0
C      1  0.4575820000000  0.4611790000000  0.5813120000000 1.0
C      1  0.5724490000000  0.4629440000000  0.4378360000000 1.0
C      1  0.3953420000000  0.5071920000000  0.4536860000000 1.0
C      1  0.4944360000000  0.5377960000000  0.5732400000000 1.0
C      1  0.5952750000000  0.4312660000000  0.5228710000000 1.0
C      1  0.4689210000000  0.4942460000000  0.4021580000000 1.0
C      1  0.4312640000000  0.4720370000000  0.4730350000000 1.0
C      1  0.4728200000000  0.4889000000000  0.5142870000000 1.0
C      1  0.4756160000000  0.5171150000000  0.5925950000000 1.0
C      1  0.4855880000000  0.5998890000000  0.5734940000000 1.0
C      1  0.6055480000000  0.4769080000000  0.5015600000000 1.0
C      1  0.5281300000000  0.4652630000000  0.4589090000000 1.0
C      1  0.4500300000000  0.5605000000000  0.4268970000000 1.0
C      1  0.4096900000000  0.5331490000000  0.5518570000000 1.0
C      1  0.4699920000000  0.4560480000000  0.5366270000000 1.0
C      1  0.6073190000000  0.5355710000000  0.4833940000000 1.0
C      1  0.4386740000000  0.5556330000000  0.5138100000000 1.0
C      1  0.5155300000000  0.4534840000000  0.5224210000000 1.0
C      1  0.5379010000000  0.6001350000000  0.5230920000000 1.0
C      1  0.4614230000000  0.4447150000000  0.4117680000000 1.0
C      1  0.4103150000000  0.5355860000000  0.4184520000000 1.0
C      1  0.5747670000000  0.5139410000000  0.4217140000000 1.0
C      1  0.4577600000000  0.4934420000000  0.6065060000000 1.0
C      1  0.4164780000000  0.4691080000000  0.4200230000000 1.0
C      1  0.4959900000000  0.4819950000000  0.3915160000000 1.0
C      1  0.5601140000000  0.5164010000000  0.4801250000000 1.0
C      1  0.5478940000000  0.4845770000000  0.4391010000000 1.0
C      1  0.4644770000000  0.5221270000000  0.4937900000000 1.0
C      1  0.4575980000000  0.5781800000000  0.5140100000000 1.0
C      1  0.5201930000000  0.5198110000000  0.5636840000000 1.0
C      1  0.4025630000000  0.4418000000000  0.5271960000000 1.0
C      1  0.5281520000000  0.5922720000000  0.5470040000000 1.0
C      1  0.4208570000000  0.4790110000000  0.5768060000000 1.0
C      1  0.4693870000000  0.4435390000000  0.6048910000000 1.0
C      1  0.4444120000000  0.5061920000000  0.4405360000000 1.0
C      1  0.5312820000000  0.5474580000000  0.5104170000000 1.0
C      1  0.5327100000000  0.4574050000000  0.6174370000000 1.0
C      1  0.4014220000000  0.4729050000000  0.5262150000000 1.0
C      1  0.4273890000000  0.4644520000000  0.5059560000000 1.0
C      1  0.4331140000000  0.4195770000000  0.4882140000000 1.0
C      1  0.5485220000000  0.4093630000000  0.5194530000000 1.0
C      1  0.4411300000000  0.5292080000000  0.4178330000000 1.0
C      1  0.4793220000000  0.6114100000000  0.5519600000000 1.0
C      1  0.4748810000000  0.5440210000000  0.5461280000000 1.0
C      1  0.5437510000000  0.4468000000000  0.4785670000000 1.0
C      1  0.5630490000000  0.5467670000000  0.4546860000000 1.0
C      1  0.5225190000000  0.3946600000000  0.5235740000000 1.0
C      1  0.5035580000000  0.5013350000000  0.6025650000000 1.0
C      1  0.5800310000000  0.5740650000000  0.5201420000000 1.0
C      1  0.5929900000000  0.5520640000000  0.4583980000000 1.0
C      1  0.4469220000000  0.4260890000000  0.5496230000000 1.0
C      1  0.5411480000000  0.5277150000000  0.3859720000000 1.0
C      1  0.4603180000000  0.4798500000000  0.4308520000000 1.0
C      1  0.5369240000000  0.4939800000000  0.5034650000000 1.0
C      1  0.5184480000000  0.5453570000000  0.4026130000000 1.0
C      1  0.4558900000000  0.4459780000000  0.5075770000000 1.0
C      1  0.4933100000000  0.4278130000000  0.5651390000000 1.0
C      1  0.5282800000000  0.4927850000000  0.4729560000000 1.0
C      1  0.3979840000000  0.4959110000000  0.5017030000000 1.0
C      1  0.6154470000000  0.5026900000000  0.4857500000000 1.0
C      1  0.5131980000000  0.3837590000000  0.4188980000000 1.0
C      1  0.4324420000000  0.4880390000000  0.5994740000000 1.0
C      1  0.5297710000000  0.4105710000000  0.4565070000000 1.0
C      1  0.5115690000000  0.4190890000000  0.4798080000000 1.0
C      1  0.4847840000000  0.4734120000000  0.6079560000000 1.0
C      1  0.4376560000000  0.4601190000000  0.4045470000000 1.0
C      1  0.4881930000000  0.5209460000000  0.3934410000000 1.0
C      1  0.5261530000000  0.4871080000000  0.4170810000000 1.0
C      1  0.5354920000000  0.5465600000000  0.5592880000000 1.0
C      1  0.5893720000000  0.4902190000000  0.5243370000000 1.0
C      1  0.4579050000000  0.4902810000000  0.4837610000000 1.0
C      1  0.5174940000000  0.4071880000000  0.4313280000000 1.0
C      1  0.4756770000000  0.4762910000000  0.5619350000000 1.0
C      1  0.5549660000000  0.5541260000000  0.5325840000000 1.0
C      1  0.5324210000000  0.4658820000000  0.3940370000000 1.0
C      1  0.5870110000000  0.4911700000000  0.4438890000000 1.0
C      1  0.4371680000000  0.5267640000000  0.5552580000000 1.0
C      1  0.5766080000000  0.5895130000000  0.4924470000000 1.0
C      1  0.4754650000000  0.5683090000000  0.4191270000000 1.0
C      1  0.6056430000000  0.4965250000000  0.5502830000000 1.0
C      1  0.5936540000000  0.5480100000000  0.5331780000000 1.0
C      1  0.4847950000000  0.5467020000000  0.4984610000000 1.0
C      1  0.4602230000000  0.5584760000000  0.5719940000000 1.0
C      1  0.5157440000000  0.5147800000000  0.4555380000000 1.0
C      1  0.4073520000000  0.5535470000000  0.4900960000000 1.0
C      1  0.5209960000000  0.5262980000000  0.6147110000000 1.0
C      1  0.5288720000000  0.4702780000000  0.5465310000000 1.0
C      1  0.5446050000000  0.5135360000000  0.6229720000000 1.0
C      1  0.5409600000000  0.5757320000000  0.5022040000000 1.0
C      1  0.4304980000000  0.4272070000000  0.5202190000000 1.0
C      1  0.4664980000000  0.5952620000000  0.4868380000000 1.0
C      1  0.4580200000000  0.5452260000000  0.5937830000000 1.0
C      1  0.3961260000000  0.5119780000000  0.5316230000000 1.0
C      1  0.4452560000000  0.5267860000000  0.4668040000000 1.0
C      1  0.5236450000000  0.5793230000000  0.4273250000000 1.0
C      1  0.5665670000000  0.5311480000000  0.4020140000000 1.0
C      1  0.5181790000000  0.5069650000000  0.3915780000000 1.0
C      1  0.4152190000000  0.4931380000000  0.5499940000000 1.0
C      1  0.5597590000000  0.4794750000000  0.5371820000000 1.0
C      1  0.5065990000000  0.4848890000000  0.5124470000000 1.0
C      1  0.5850220000000  0.4446460000000  0.4867890000000 1.0
C      1  0.4081280000000  0.5676870000000  0.5195640000000 1.0
C      1  0.4852140000000  0.4079830000000  0.5224820000000 1.0
C      1  0.5560180000000  0.6068090000000  0.4824660000000 1.0
C      1  0.5814930000000  0.4075080000000  0.5230360000000 1.0
C      1  0.5831570000000  0.5374710000000  0.5047770000000 1.0
C      1  0.4883600000000  0.5551170000000  0.3967420000000 1.0
C      1  0.5303700000000  0.4335320000000  0.5038140000000 1.0
C      1  0.5607700000000  0.4587550000000  0.5893100000000 1.0
C      1  0.5240190000000  0.5945110000000  0.4818190000000 1.0
C      1  0.4685330000000  0.4163410000000  0.4572610000000 1.0
C      1  0.4756580000000  0.5280710000000  0.4523800000000 1.0
C      1  0.5089990000000  0.4334180000000  0.4195910000000 1.0
C      1  0.4993530000000  0.5185540000000  0.5128300000000 1.0
C      1  0.5045480000000  0.4509490000000  0.4465890000000 1.0
C      1  0.4304850000000  0.4501770000000  0.5671060000000 1.0
C      1  0.5502760000000  0.4834510000000  0.6081800000000 1.0
C      1  0.5227480000000  0.5629220000000  0.4693060000000 1.0
C      1  0.5062460000000  0.4902680000000  0.5562920000000 1.0
C      1  0.5557480000000  0.4349320000000  0.5365300000000 1.0
C      1  0.4166040000000  0.5296970000000  0.5117410000000 1.0
C      1  0.4711240000000  0.4589340000000  0.4845130000000 1.0
C      1  0.5005280000000  0.4897040000000  0.4383400000000 1.0
C      1  0.4444400000000  0.4567210000000  0.4457370000000 1.0
C      1  0.5325200000000  0.5489900000000  0.4398660000000 1.0
C      1  0.5672430000000  0.5078980000000  0.5101460000000 1.0
C      1  0.5565260000000  0.5032980000000  0.5613290000000 1.0
C      1  0.5720510000000  0.4553110000000  0.5166290000000 1.0
C      1  0.5338640000000  0.5011970000000  0.5865860000000 1.0
END
