TITL C-3371501-9953-54 0.000162638715184321 125000 -854.486187878207 0 0 165 (C1) n - 1
REM
REM in /nfs/bkarasulu/CARBON/AIRSS/Generating-Clusters/AIREBO/with-SteepDescent/Only-C1/SD-CG-opt/Try1-1.4A-POS3A/HFTN-CG
REM
REM
REM
REM
REM
REM ./C.cell (11c1c37f851c82e70ff6c80c92926a4b)
REM
REM compiler GCC version 9.2.1 20190827 (Red Hat 9.2.1-1)
REM options -cpp -mtune=generic -march=x86-64 -g -O0 -fpre-include=/usr/include/finclude/math-vector-fortran.h
REM seed 866325622 930679248 -1512830654 -57183022 284507942 1395950819 2122092130 -1287254586 -329039260 164848071 2059013747 1774511732 -1750483007 667264210 -265788613 1885045066 -869513857 -1835316738 1259963899 -1163895948 579058430 -1138941425 -1759066861 2047034248 810578315 -1482548512 967790561 -1835055674 -1639657736 -1805935677 -615905292 1487734943 982592834
REM
CELL 1.54180   50.00000   50.00000   50.00000   90.00000   90.00000   90.00000
LATT -1
SFAC C  
C      1  0.4699970000000  0.5040620000000  0.3970470000000 1.0
C      1  0.4621660000000  0.4205170000000  0.5452880000000 1.0
C      1  0.5604590000000  0.5359870000000  0.4941920000000 1.0
C      1  0.4754560000000  0.4980210000000  0.4452070000000 1.0
C      1  0.5537460000000  0.5077520000000  0.5896010000000 1.0
C      1  0.5640860000000  0.4480790000000  0.4774920000000 1.0
C      1  0.5462510000000  0.4849300000000  0.5325940000000 1.0
C      1  0.5267270000000  0.4971420000000  0.4528660000000 1.0
C      1  0.4350080000000  0.5704760000000  0.5322000000000 1.0
C      1  0.4981610000000  0.6021760000000  0.5112250000000 1.0
C      1  0.4557900000000  0.4944550000000  0.5782080000000 1.0
C      1  0.4715470000000  0.5595820000000  0.5855180000000 1.0
C      1  0.4698840000000  0.5472290000000  0.4879640000000 1.0
C      1  0.4857240000000  0.4950930000000  0.4774100000000 1.0
C      1  0.5634200000000  0.5676970000000  0.5061690000000 1.0
C      1  0.4578470000000  0.4675250000000  0.4121680000000 1.0
C      1  0.5950290000000  0.5378660000000  0.4597030000000 1.0
C      1  0.4661800000000  0.4801370000000  0.5996560000000 1.0
C      1  0.4033470000000  0.4753770000000  0.5370660000000 1.0
C      1  0.5546170000000  0.4659770000000  0.4238470000000 1.0
C      1  0.5436450000000  0.4824510000000  0.4767690000000 1.0
C      1  0.4866980000000  0.5814750000000  0.4240450000000 1.0
C      1  0.5952230000000  0.5443710000000  0.5120940000000 1.0
C      1  0.5950920000000  0.5409380000000  0.5459890000000 1.0
C      1  0.4820960000000  0.5596670000000  0.5267960000000 1.0
C      1  0.4875550000000  0.4540550000000  0.4052360000000 1.0
C      1  0.5624180000000  0.4146130000000  0.4993020000000 1.0
C      1  0.4475800000000  0.5392430000000  0.5899750000000 1.0
C      1  0.5439750000000  0.5877770000000  0.4983180000000 1.0
C      1  0.4894170000000  0.5287900000000  0.4414170000000 1.0
C      1  0.5004500000000  0.5986420000000  0.4637020000000 1.0
C      1  0.5240180000000  0.4141240000000  0.5641430000000 1.0
C      1  0.5171740000000  0.5393190000000  0.4408720000000 1.0
C      1  0.4723030000000  0.6024600000000  0.5003260000000 1.0
C      1  0.4998660000000  0.5225950000000  0.6067310000000 1.0
C      1  0.4370510000000  0.5276640000000  0.5666980000000 1.0
C      1  0.5102350000000  0.4594440000000  0.5106810000000 1.0
C      1  0.5217330000000  0.5755830000000  0.4769140000000 1.0
C      1  0.5597640000000  0.5561470000000  0.5360200000000 1.0
C      1  0.3932120000000  0.5048740000000  0.5221030000000 1.0
C      1  0.4576710000000  0.5726360000000  0.5070090000000 1.0
C      1  0.5454160000000  0.4040650000000  0.5493730000000 1.0
C      1  0.4938070000000  0.3853470000000  0.5363710000000 1.0
C      1  0.5890230000000  0.4645270000000  0.4636940000000 1.0
C      1  0.5288770000000  0.5048770000000  0.6056880000000 1.0
C      1  0.4513010000000  0.5894320000000  0.4603130000000 1.0
C      1  0.4106450000000  0.4816050000000  0.5044390000000 1.0
C      1  0.5142060000000  0.5660140000000  0.4227120000000 1.0
C      1  0.5027690000000  0.5154480000000  0.5780140000000 1.0
C      1  0.5678200000000  0.5231270000000  0.5376390000000 1.0
C      1  0.4709320000000  0.3978850000000  0.5212750000000 1.0
C      1  0.4473490000000  0.5454310000000  0.4236280000000 1.0
C      1  0.5131120000000  0.4886920000000  0.5259170000000 1.0
C      1  0.6006420000000  0.4858090000000  0.5136600000000 1.0
C      1  0.5462760000000  0.4891760000000  0.4063950000000 1.0
C      1  0.5694530000000  0.5313930000000  0.5705780000000 1.0
C      1  0.5590590000000  0.5117610000000  0.4703720000000 1.0
C      1  0.5987400000000  0.5128560000000  0.4717920000000 1.0
C      1  0.4875400000000  0.5602350000000  0.5603740000000 1.0
C      1  0.4348450000000  0.4812920000000  0.5646370000000 1.0
C      1  0.4937850000000  0.5304120000000  0.5022310000000 1.0
C      1  0.4100210000000  0.4521310000000  0.5513520000000 1.0
C      1  0.4903920000000  0.4320760000000  0.5143250000000 1.0
C      1  0.5194500000000  0.4925130000000  0.4017400000000 1.0
C      1  0.3925200000000  0.4530750000000  0.5007550000000 1.0
C      1  0.4911170000000  0.4312160000000  0.4824710000000 1.0
C      1  0.4110220000000  0.5262980000000  0.5448520000000 1.0
C      1  0.4944320000000  0.4833860000000  0.4210070000000 1.0
C      1  0.5543760000000  0.4274050000000  0.4346290000000 1.0
C      1  0.4550030000000  0.4159060000000  0.4761640000000 1.0
C      1  0.5106310000000  0.5145890000000  0.4772580000000 1.0
C      1  0.4894320000000  0.5906400000000  0.5502380000000 1.0
C      1  0.4997660000000  0.5140450000000  0.3955160000000 1.0
C      1  0.5493260000000  0.4270940000000  0.5270900000000 1.0
C      1  0.4539990000000  0.4721970000000  0.4456250000000 1.0
C      1  0.5709010000000  0.5023200000000  0.4258150000000 1.0
C      1  0.5649520000000  0.4830280000000  0.5852370000000 1.0
C      1  0.4379840000000  0.5092540000000  0.4765000000000 1.0
C      1  0.4830070000000  0.4562540000000  0.5926190000000 1.0
C      1  0.5189230000000  0.5972420000000  0.5452820000000 1.0
C      1  0.3976650000000  0.5490430000000  0.5036080000000 1.0
C      1  0.4148230000000  0.4871920000000  0.4711340000000 1.0
C      1  0.4604750000000  0.5703570000000  0.4389130000000 1.0
C      1  0.4615800000000  0.4635140000000  0.4850000000000 1.0
C      1  0.4412630000000  0.4509350000000  0.5598090000000 1.0
C      1  0.6054700000000  0.4673310000000  0.4933200000000 1.0
C      1  0.4761490000000  0.5381020000000  0.6088790000000 1.0
C      1  0.5261470000000  0.5065980000000  0.5026750000000 1.0
C      1  0.5369520000000  0.5161600000000  0.5423070000000 1.0
C      1  0.5395310000000  0.6059470000000  0.5710180000000 1.0
C      1  0.4433900000000  0.4999500000000  0.5181290000000 1.0
C      1  0.4125950000000  0.5533780000000  0.5302380000000 1.0
C      1  0.4325970000000  0.4350170000000  0.4433050000000 1.0
C      1  0.5845250000000  0.5134930000000  0.5026730000000 1.0
C      1  0.4678910000000  0.5308760000000  0.5242790000000 1.0
C      1  0.5168260000000  0.4419360000000  0.4181030000000 1.0
C      1  0.4194240000000  0.4943460000000  0.4380460000000 1.0
C      1  0.5376670000000  0.5321140000000  0.5130630000000 1.0
C      1  0.4719270000000  0.4346080000000  0.4554520000000 1.0
C      1  0.3872560000000  0.5229380000000  0.4986440000000 1.0
C      1  0.4886120000000  0.4239070000000  0.4209340000000 1.0
C      1  0.5573130000000  0.4533090000000  0.5708920000000 1.0
C      1  0.5787220000000  0.4590310000000  0.4333010000000 1.0
C      1  0.4261990000000  0.4985410000000  0.5418060000000 1.0
C      1  0.5615770000000  0.4883780000000  0.5024340000000 1.0
C      1  0.4446760000000  0.4982720000000  0.4173800000000 1.0
C      1  0.5822680000000  0.4930370000000  0.4540230000000 1.0
C      1  0.4240370000000  0.5532690000000  0.4919680000000 1.0
C      1  0.5327520000000  0.4363860000000  0.5798610000000 1.0
C      1  0.5379470000000  0.5279600000000  0.4012790000000 1.0
C      1  0.4420270000000  0.4694330000000  0.5093850000000 1.0
C      1  0.4716150000000  0.3979870000000  0.4927930000000 1.0
C      1  0.5050730000000  0.5211840000000  0.5330260000000 1.0
C      1  0.5389180000000  0.5458610000000  0.5662660000000 1.0
C      1  0.5095110000000  0.5380880000000  0.5610000000000 1.0
C      1  0.5475840000000  0.4117470000000  0.4786340000000 1.0
C      1  0.5289270000000  0.6045330000000  0.5158670000000 1.0
C      1  0.5065900000000  0.5715290000000  0.5071020000000 1.0
C      1  0.5859750000000  0.4699260000000  0.5630950000000 1.0
C      1  0.5419960000000  0.5188050000000  0.4328130000000 1.0
C      1  0.4055740000000  0.4314440000000  0.4985510000000 1.0
C      1  0.5241740000000  0.4597090000000  0.4825090000000 1.0
C      1  0.4733590000000  0.6034770000000  0.4717220000000 1.0
C      1  0.5790890000000  0.4908150000000  0.5392920000000 1.0
C      1  0.4618530000000  0.5139820000000  0.5509870000000 1.0
C      1  0.5598350000000  0.5555160000000  0.4663570000000 1.0
C      1  0.4727500000000  0.5486020000000  0.4584630000000 1.0
C      1  0.4810430000000  0.4895130000000  0.5372300000000 1.0
C      1  0.4960910000000  0.4182020000000  0.5448560000000 1.0
C      1  0.5260470000000  0.4646410000000  0.4416830000000 1.0
C      1  0.5372360000000  0.5734030000000  0.4467250000000 1.0
C      1  0.5207720000000  0.4186260000000  0.5110380000000 1.0
C      1  0.5091770000000  0.4220620000000  0.4480840000000 1.0
C      1  0.5060270000000  0.4808380000000  0.5975510000000 1.0
C      1  0.5910170000000  0.5577950000000  0.4809710000000 1.0
C      1  0.4695770000000  0.5292070000000  0.4166500000000 1.0
C      1  0.5310250000000  0.4543800000000  0.5358700000000 1.0
C      1  0.3885380000000  0.5084390000000  0.4749090000000 1.0
C      1  0.5286140000000  0.5428110000000  0.4709940000000 1.0
C      1  0.4593900000000  0.5871860000000  0.5447650000000 1.0
C      1  0.5286270000000  0.5603490000000  0.5230260000000 1.0
C      1  0.5123160000000  0.5414580000000  0.4001020000000 1.0
C      1  0.4487330000000  0.5174000000000  0.4520630000000 1.0
C      1  0.4325560000000  0.4583160000000  0.4680740000000 1.0
C      1  0.4925380000000  0.4594470000000  0.4443560000000 1.0
C      1  0.4969590000000  0.4876330000000  0.5659350000000 1.0
C      1  0.4579290000000  0.4375770000000  0.4262110000000 1.0
C      1  0.5928090000000  0.4377210000000  0.4928500000000 1.0
C      1  0.4440270000000  0.5287770000000  0.5000930000000 1.0
C      1  0.5428770000000  0.5764130000000  0.5574720000000 1.0
C      1  0.5369240000000  0.4379250000000  0.4597190000000 1.0
C      1  0.4993490000000  0.4518870000000  0.5481720000000 1.0
C      1  0.4918760000000  0.4634710000000  0.4754740000000 1.0
C      1  0.5170570000000  0.4613650000000  0.5726750000000 1.0
C      1  0.4959120000000  0.4009490000000  0.4701340000000 1.0
C      1  0.4365910000000  0.5771960000000  0.4807320000000 1.0
C      1  0.4683080000000  0.4606280000000  0.5416050000000 1.0
C      1  0.4691460000000  0.4376240000000  0.5739440000000 1.0
C      1  0.4729790000000  0.4964010000000  0.5049190000000 1.0
C      1  0.5704510000000  0.4570470000000  0.5096710000000 1.0
C      1  0.4245770000000  0.5277350000000  0.4339140000000 1.0
C      1  0.5708910000000  0.4500630000000  0.5398880000000 1.0
C      1  0.4574360000000  0.4400760000000  0.5170070000000 1.0
C      1  0.5703080000000  0.5359680000000  0.4405830000000 1.0
C      1  0.4356900000000  0.4339080000000  0.4915730000000 1.0
END
