TITL C-3371508-3820-16 -0.000461700692773572 125000 -569.306039592729 0 0 104 (C1) n - 1
REM
REM in /nfs/bkarasulu/CARBON/AIRSS/Generating-Clusters/AIREBO/with-SteepDescent/Only-C1/SD-CG-opt/Try1-1.4A-POS3A/HFTN-CG
REM
REM
REM
REM
REM
REM ./C.cell (11c1c37f851c82e70ff6c80c92926a4b)
REM
REM compiler GCC version 9.2.1 20190827 (Red Hat 9.2.1-1)
REM options -cpp -mtune=generic -march=x86-64 -g -O0 -fpre-include=/usr/include/finclude/math-vector-fortran.h
REM seed -1411930485 793264077 1315219844 1448220908 -1274757390 1339405643 -1841388361 -1478347677 -121612060 1499645395 -1466451141 -247544646 -815463971 2042570988 390850564 558342941 1356673234 -457216210 -907423571 -1087390737 71881477 1799046597 1281022767 1161560769 -1168956380 1240651739 -121373123 -618253697 -1860236110 -1325639371 368816344 -1132467865 1399316352
REM
CELL 1.54180   50.00000   50.00000   50.00000   90.00000   90.00000   90.00000
LATT -1
SFAC C  
C      1  0.4831300000000  0.5726190000000  0.5464410000000 1.0
C      1  0.4483700000000  0.5114400000000  0.5031760000000 1.0
C      1  0.4934660000000  0.5346060000000  0.5407210000000 1.0
C      1  0.4495310000000  0.4483230000000  0.5575290000000 1.0
C      1  0.4995620000000  0.4499780000000  0.5813470000000 1.0
C      1  0.5467480000000  0.5292650000000  0.4636550000000 1.0
C      1  0.4236290000000  0.5603480000000  0.4828280000000 1.0
C      1  0.5505060000000  0.5156270000000  0.5312850000000 1.0
C      1  0.5433340000000  0.4329510000000  0.5170120000000 1.0
C      1  0.4812520000000  0.5109510000000  0.4165910000000 1.0
C      1  0.4960560000000  0.4803940000000  0.4141040000000 1.0
C      1  0.5286360000000  0.5643570000000  0.5290980000000 1.0
C      1  0.5216910000000  0.4232800000000  0.4807750000000 1.0
C      1  0.5357700000000  0.4356570000000  0.5454090000000 1.0
C      1  0.5356620000000  0.4886030000000  0.4381630000000 1.0
C      1  0.5173150000000  0.4750410000000  0.4634140000000 1.0
C      1  0.5069180000000  0.4315110000000  0.5549260000000 1.0
C      1  0.5119600000000  0.5347800000000  0.5692670000000 1.0
C      1  0.5796180000000  0.5016670000000  0.5281940000000 1.0
C      1  0.5433500000000  0.5737870000000  0.5005430000000 1.0
C      1  0.5525230000000  0.4304470000000  0.4878080000000 1.0
C      1  0.5428520000000  0.5382590000000  0.5554790000000 1.0
C      1  0.4630490000000  0.5444490000000  0.5489240000000 1.0
C      1  0.5454930000000  0.5298530000000  0.4127950000000 1.0
C      1  0.4715190000000  0.5376150000000  0.4318990000000 1.0
C      1  0.4437260000000  0.5191660000000  0.4393820000000 1.0
C      1  0.5144100000000  0.4739180000000  0.5860790000000 1.0
C      1  0.5285120000000  0.5796680000000  0.4719080000000 1.0
C      1  0.5328370000000  0.4579340000000  0.4308210000000 1.0
C      1  0.5034500000000  0.4872880000000  0.5505440000000 1.0
C      1  0.4689360000000  0.4448750000000  0.4381930000000 1.0
C      1  0.4710960000000  0.4394130000000  0.5046810000000 1.0
C      1  0.5836380000000  0.5341890000000  0.5190730000000 1.0
C      1  0.4877060000000  0.5951110000000  0.5209940000000 1.0
C      1  0.4481320000000  0.4143630000000  0.5062200000000 1.0
C      1  0.4444800000000  0.5394120000000  0.5222480000000 1.0
C      1  0.5075900000000  0.4449270000000  0.4589390000000 1.0
C      1  0.5924340000000  0.4974340000000  0.4684610000000 1.0
C      1  0.5451270000000  0.4773330000000  0.4793210000000 1.0
C      1  0.5777600000000  0.4750990000000  0.5381380000000 1.0
C      1  0.5603910000000  0.5541980000000  0.5308630000000 1.0
C      1  0.4142560000000  0.4849070000000  0.5374090000000 1.0
C      1  0.5905910000000  0.4700050000000  0.4661390000000 1.0
C      1  0.4748280000000  0.4773550000000  0.4387720000000 1.0
C      1  0.4996420000000  0.5692910000000  0.4621200000000 1.0
C      1  0.4570720000000  0.4762670000000  0.5754210000000 1.0
C      1  0.4555580000000  0.5297300000000  0.5725160000000 1.0
C      1  0.4721910000000  0.4316170000000  0.5546330000000 1.0
C      1  0.5638280000000  0.4529010000000  0.4694640000000 1.0
C      1  0.5554260000000  0.5103500000000  0.4296830000000 1.0
C      1  0.5488080000000  0.5073000000000  0.5642430000000 1.0
C      1  0.5096460000000  0.5835150000000  0.4999310000000 1.0
C      1  0.5541400000000  0.4437020000000  0.4407720000000 1.0
C      1  0.4475070000000  0.4716290000000  0.4586590000000 1.0
C      1  0.4827620000000  0.4288320000000  0.4743680000000 1.0
C      1  0.4345310000000  0.4345800000000  0.4893750000000 1.0
C      1  0.5827500000000  0.5093200000000  0.4965370000000 1.0
C      1  0.5379680000000  0.5574460000000  0.4519730000000 1.0
C      1  0.4973100000000  0.4099950000000  0.4986600000000 1.0
C      1  0.4657270000000  0.5060870000000  0.6167440000000 1.0
C      1  0.5475140000000  0.4648980000000  0.5405780000000 1.0
C      1  0.5281890000000  0.5059380000000  0.5106000000000 1.0
C      1  0.5071010000000  0.5027650000000  0.4365680000000 1.0
C      1  0.4663710000000  0.5787810000000  0.5001550000000 1.0
C      1  0.4398740000000  0.5638020000000  0.5052760000000 1.0
C      1  0.4900930000000  0.4237860000000  0.5274410000000 1.0
C      1  0.4608670000000  0.4657390000000  0.5233630000000 1.0
C      1  0.4369730000000  0.4899120000000  0.4366620000000 1.0
C      1  0.5384610000000  0.4741410000000  0.5117180000000 1.0
C      1  0.4898440000000  0.4880860000000  0.4742590000000 1.0
C      1  0.4697340000000  0.5045860000000  0.4542700000000 1.0
C      1  0.4323030000000  0.4598700000000  0.5063430000000 1.0
C      1  0.4321590000000  0.5141370000000  0.5395210000000 1.0
C      1  0.4999310000000  0.5040880000000  0.5780330000000 1.0
C      1  0.4734990000000  0.4516750000000  0.5891970000000 1.0
C      1  0.5804380000000  0.5492180000000  0.4707750000000 1.0
C      1  0.5056110000000  0.5213250000000  0.4897870000000 1.0
C      1  0.4524610000000  0.4396450000000  0.4654600000000 1.0
C      1  0.5557380000000  0.5056140000000  0.4817930000000 1.0
C      1  0.5690850000000  0.5547120000000  0.4967680000000 1.0
C      1  0.5164820000000  0.5240100000000  0.4576810000000 1.0
C      1  0.4168040000000  0.5099560000000  0.4789170000000 1.0
C      1  0.5134760000000  0.5656320000000  0.5550570000000 1.0
C      1  0.5202890000000  0.4519940000000  0.4972720000000 1.0
C      1  0.4156810000000  0.5063520000000  0.5110620000000 1.0
C      1  0.4781700000000  0.5039950000000  0.4999810000000 1.0
C      1  0.5010310000000  0.5477640000000  0.4405180000000 1.0
C      1  0.5336510000000  0.4818620000000  0.5612890000000 1.0
C      1  0.4757260000000  0.5704190000000  0.4729040000000 1.0
C      1  0.5008210000000  0.4495000000000  0.4269680000000 1.0
C      1  0.4267470000000  0.4533330000000  0.5392580000000 1.0
C      1  0.4821030000000  0.4868270000000  0.5258150000000 1.0
C      1  0.5776570000000  0.5207940000000  0.4522860000000 1.0
C      1  0.4479320000000  0.4863420000000  0.5463610000000 1.0
C      1  0.4691890000000  0.5041830000000  0.5862070000000 1.0
C      1  0.4559760000000  0.5514810000000  0.4587840000000 1.0
C      1  0.5294520000000  0.5505490000000  0.4236670000000 1.0
C      1  0.4792750000000  0.5306760000000  0.4704060000000 1.0
C      1  0.5044470000000  0.5102240000000  0.5291150000000 1.0
C      1  0.4372280000000  0.4838700000000  0.4862200000000 1.0
C      1  0.5115650000000  0.5497610000000  0.5035720000000 1.0
C      1  0.4933820000000  0.4623780000000  0.4931900000000 1.0
C      1  0.4828930000000  0.5561890000000  0.5166710000000 1.0
C      1  0.4270700000000  0.5342270000000  0.4635690000000 1.0
END
