TITL C-3371512-288-12 0.000320667962369553 125000 -709.449049691922 0 0 127 (C1) n - 1
REM
REM in /nfs/bkarasulu/CARBON/AIRSS/Generating-Clusters/AIREBO/with-SteepDescent/Only-C1/SD-CG-opt/Try1-1.4A-POS3A/HFTN-CG
REM
REM
REM
REM
REM
REM ./C.cell (11c1c37f851c82e70ff6c80c92926a4b)
REM
REM compiler GCC version 9.2.1 20190827 (Red Hat 9.2.1-1)
REM options -cpp -mtune=generic -march=x86-64 -g -O0 -fpre-include=/usr/include/finclude/math-vector-fortran.h
REM seed -1205072543 792694242 728216401 186602302 994735688 -385749673 1289525667 1583063037 863777014 -709382649 -212579720 -538933915 1993907304 604190505 -2121979175 -1229596053 -1173626920 -856167500 1630901966 -1621374618 -1171811364 -447748460 588677442 1000650254 -1007337342 -1410832507 -815086682 1824718936 -44958336 1189577119 1096419058 -1887813926 -230540908
REM
CELL 1.54180   50.00000   50.00000   50.00000   90.00000   90.00000   90.00000
LATT -1
SFAC C  
C      1  0.5093270000000  0.5108110000000  0.5772980000000 1.0
C      1  0.5436210000000  0.4384500000000  0.4180250000000 1.0
C      1  0.4817540000000  0.5867730000000  0.4665140000000 1.0
C      1  0.5271130000000  0.4509560000000  0.5787550000000 1.0
C      1  0.4879350000000  0.4199800000000  0.4431250000000 1.0
C      1  0.5131260000000  0.4267360000000  0.4637210000000 1.0
C      1  0.4546280000000  0.5933820000000  0.4471100000000 1.0
C      1  0.4389130000000  0.5368130000000  0.5769940000000 1.0
C      1  0.4599830000000  0.5589330000000  0.5622870000000 1.0
C      1  0.5401340000000  0.4581570000000  0.3953480000000 1.0
C      1  0.4495880000000  0.5520140000000  0.5305790000000 1.0
C      1  0.5784030000000  0.5464910000000  0.5566990000000 1.0
C      1  0.4597130000000  0.4131620000000  0.5085420000000 1.0
C      1  0.5592590000000  0.5250560000000  0.5385200000000 1.0
C      1  0.4910320000000  0.5478940000000  0.4676990000000 1.0
C      1  0.5149250000000  0.4816280000000  0.4878010000000 1.0
C      1  0.6008450000000  0.5037930000000  0.5473050000000 1.0
C      1  0.5078850000000  0.5416140000000  0.5801660000000 1.0
C      1  0.5532870000000  0.4531820000000  0.4463240000000 1.0
C      1  0.4615260000000  0.4997530000000  0.3946860000000 1.0
C      1  0.5550440000000  0.4451870000000  0.5161640000000 1.0
C      1  0.5183050000000  0.5004400000000  0.4380420000000 1.0
C      1  0.4714880000000  0.4084540000000  0.5402720000000 1.0
C      1  0.4123200000000  0.4298800000000  0.5192080000000 1.0
C      1  0.4566390000000  0.4681920000000  0.5634720000000 1.0
C      1  0.4613880000000  0.5172940000000  0.4867590000000 1.0
C      1  0.5253490000000  0.4229440000000  0.5309990000000 1.0
C      1  0.4699250000000  0.4774680000000  0.4966480000000 1.0
C      1  0.4617160000000  0.4371630000000  0.4892120000000 1.0
C      1  0.5470770000000  0.5651860000000  0.5022330000000 1.0
C      1  0.4516940000000  0.5185990000000  0.5365210000000 1.0
C      1  0.5011380000000  0.4449390000000  0.5771520000000 1.0
C      1  0.4545130000000  0.4488380000000  0.4613040000000 1.0
C      1  0.5244930000000  0.5280080000000  0.5052220000000 1.0
C      1  0.4635860000000  0.5232840000000  0.4110330000000 1.0
C      1  0.4572400000000  0.4771020000000  0.4115680000000 1.0
C      1  0.5309220000000  0.5518610000000  0.4307540000000 1.0
C      1  0.4430230000000  0.4614420000000  0.4985640000000 1.0
C      1  0.5451590000000  0.4882960000000  0.4946610000000 1.0
C      1  0.4986040000000  0.5060490000000  0.5490260000000 1.0
C      1  0.5547330000000  0.5850850000000  0.5287300000000 1.0
C      1  0.5699600000000  0.4822260000000  0.5156450000000 1.0
C      1  0.5553910000000  0.4831410000000  0.4075300000000 1.0
C      1  0.5393600000000  0.4978290000000  0.5753620000000 1.0
C      1  0.5960620000000  0.4973670000000  0.5202310000000 1.0
C      1  0.4752100000000  0.4539670000000  0.5865080000000 1.0
C      1  0.4466160000000  0.5342350000000  0.4612250000000 1.0
C      1  0.5219590000000  0.5031440000000  0.5263450000000 1.0
C      1  0.4799820000000  0.5549530000000  0.4955280000000 1.0
C      1  0.5088600000000  0.4573480000000  0.4126280000000 1.0
C      1  0.4762950000000  0.5885650000000  0.4991250000000 1.0
C      1  0.5307710000000  0.5513420000000  0.5286920000000 1.0
C      1  0.5163070000000  0.4304700000000  0.4314160000000 1.0
C      1  0.5005770000000  0.4962100000000  0.4617230000000 1.0
C      1  0.5381540000000  0.4428880000000  0.4944140000000 1.0
C      1  0.4435630000000  0.4787190000000  0.4619130000000 1.0
C      1  0.5806170000000  0.4533120000000  0.5052270000000 1.0
C      1  0.5103850000000  0.4513820000000  0.4839880000000 1.0
C      1  0.4841320000000  0.5211940000000  0.4647140000000 1.0
C      1  0.5413580000000  0.4706110000000  0.5573090000000 1.0
C      1  0.5139200000000  0.5305680000000  0.4223730000000 1.0
C      1  0.4083030000000  0.4612370000000  0.4690190000000 1.0
C      1  0.4982830000000  0.5558230000000  0.5309230000000 1.0
C      1  0.4899630000000  0.5235960000000  0.5041250000000 1.0
C      1  0.5233370000000  0.5831020000000  0.4911290000000 1.0
C      1  0.5477910000000  0.5580660000000  0.5573540000000 1.0
C      1  0.4819190000000  0.4791150000000  0.5429570000000 1.0
C      1  0.4225510000000  0.4862730000000  0.4875850000000 1.0
C      1  0.6024180000000  0.4908930000000  0.4708890000000 1.0
C      1  0.5859950000000  0.5178720000000  0.5670200000000 1.0
C      1  0.6098430000000  0.4996140000000  0.4958040000000 1.0
C      1  0.4215650000000  0.5486270000000  0.4791560000000 1.0
C      1  0.5437600000000  0.4426000000000  0.5424100000000 1.0
C      1  0.4393190000000  0.5092690000000  0.5062100000000 1.0
C      1  0.4545150000000  0.5663790000000  0.4651740000000 1.0
C      1  0.5229190000000  0.5773850000000  0.4399460000000 1.0
C      1  0.3988620000000  0.5301250000000  0.4855930000000 1.0
C      1  0.4364240000000  0.4225640000000  0.5295290000000 1.0
C      1  0.4463720000000  0.5197470000000  0.4339310000000 1.0
C      1  0.5835450000000  0.5393420000000  0.4922190000000 1.0
C      1  0.5379100000000  0.5186780000000  0.4515870000000 1.0
C      1  0.5756120000000  0.5157550000000  0.4402520000000 1.0
C      1  0.5317220000000  0.4745780000000  0.4301630000000 1.0
C      1  0.4762760000000  0.4582220000000  0.4181930000000 1.0
C      1  0.4896000000000  0.4394100000000  0.5013940000000 1.0
C      1  0.5032070000000  0.5829330000000  0.5116190000000 1.0
C      1  0.4889110000000  0.5352280000000  0.4108650000000 1.0
C      1  0.4732510000000  0.4831220000000  0.4696730000000 1.0
C      1  0.5579160000000  0.5436990000000  0.4452230000000 1.0
C      1  0.4934460000000  0.4908080000000  0.5125170000000 1.0
C      1  0.5171760000000  0.4032140000000  0.5087710000000 1.0
C      1  0.4399140000000  0.5126730000000  0.5634160000000 1.0
C      1  0.4867220000000  0.4470750000000  0.5488710000000 1.0
C      1  0.5516760000000  0.5280950000000  0.4878630000000 1.0
C      1  0.4470890000000  0.5613950000000  0.4979930000000 1.0
C      1  0.5524000000000  0.4285160000000  0.4698360000000 1.0
C      1  0.3965300000000  0.5054050000000  0.4850230000000 1.0
C      1  0.4989030000000  0.4339850000000  0.5265610000000 1.0
C      1  0.4128150000000  0.4492620000000  0.4987470000000 1.0
C      1  0.5050540000000  0.5808360000000  0.5515090000000 1.0
C      1  0.4356320000000  0.4869520000000  0.5706840000000 1.0
C      1  0.4142220000000  0.4783970000000  0.5854470000000 1.0
C      1  0.5493620000000  0.4951280000000  0.5367980000000 1.0
C      1  0.5642350000000  0.5069980000000  0.5817550000000 1.0
C      1  0.5772490000000  0.4735560000000  0.4592450000000 1.0
C      1  0.5744500000000  0.5011650000000  0.4171640000000 1.0
C      1  0.4553670000000  0.4358380000000  0.5524350000000 1.0
C      1  0.4255450000000  0.5605250000000  0.5612540000000 1.0
C      1  0.5608600000000  0.5019250000000  0.4681730000000 1.0
C      1  0.4107170000000  0.4672160000000  0.4423490000000 1.0
C      1  0.4688730000000  0.4402250000000  0.4391980000000 1.0
C      1  0.4104160000000  0.5530360000000  0.5385030000000 1.0
C      1  0.4194430000000  0.5801670000000  0.4916960000000 1.0
C      1  0.4893510000000  0.3972920000000  0.5136140000000 1.0
C      1  0.5327220000000  0.5859930000000  0.5499400000000 1.0
C      1  0.4820410000000  0.4890210000000  0.6212450000000 1.0
C      1  0.5782760000000  0.4475250000000  0.4769050000000 1.0
C      1  0.4360030000000  0.4881620000000  0.4335000000000 1.0
C      1  0.4819820000000  0.5291850000000  0.5358520000000 1.0
C      1  0.4223250000000  0.5366390000000  0.5172880000000 1.0
C      1  0.5117330000000  0.5816880000000  0.4650910000000 1.0
C      1  0.5703060000000  0.5544890000000  0.5246600000000 1.0
C      1  0.5330550000000  0.5516200000000  0.5837040000000 1.0
C      1  0.5293950000000  0.4062620000000  0.4823080000000 1.0
C      1  0.4894190000000  0.5606380000000  0.5694410000000 1.0
C      1  0.5628600000000  0.5567260000000  0.4733280000000 1.0
C      1  0.4935170000000  0.4983520000000  0.6004360000000 1.0
END
