TITL C-3371512-288-35 -199.066229801612 125000 -771.332806981699 0 0 147 (C1) n - 1
REM
REM in /nfs/bkarasulu/CARBON/AIRSS/Generating-Clusters/AIREBO/with-SteepDescent/Only-C1/SD-CG-opt/Try1-1.4A-POS3A/HFTN-CG
REM
REM
REM
REM
REM
REM ./C.cell (11c1c37f851c82e70ff6c80c92926a4b)
REM
REM compiler GCC version 9.2.1 20190827 (Red Hat 9.2.1-1)
REM options -cpp -mtune=generic -march=x86-64 -g -O0 -fpre-include=/usr/include/finclude/math-vector-fortran.h
REM seed 415658743 954581326 -855266378 -717686847 -1775856097 1665809626 -685537835 1697727168 1023750817 50848907 1564704274 1248866416 -1091676238 -2010563042 -2084627965 1561567832 218604327 1459536891 -1182756700 -1932599399 1923663458 217938349 1100030358 -1518777776 196006025 773619952 1194084796 -1158944697 1066989146 -332647665 2106719363 1499151419 -2025704437
REM
CELL 1.54180   50.00000   50.00000   50.00000   90.00000   90.00000   90.00000
LATT -1
SFAC C  
C      1  0.5722680000000  0.5577980000000  0.5325290000000 1.0
C      1  0.3998120000000  0.4803840000000  0.4794570000000 1.0
C      1  0.5391890000000  0.5357800000000  0.5339720000000 1.0
C      1  0.4866880000000  0.5105390000000  0.4879550000000 1.0
C      1  0.4142240000000  0.5531120000000  0.5427250000000 1.0
C      1  0.4745910000000  0.4217500000000  0.5456110000000 1.0
C      1  0.4133550000000  0.5570020000000  0.4949310000000 1.0
C      1  0.4243860000000  0.4644290000000  0.4343710000000 1.0
C      1  0.5587170000000  0.5734720000000  0.5054380000000 1.0
C      1  0.4440850000000  0.4644840000000  0.5237410000000 1.0
C      1  0.4608730000000  0.4650860000000  0.4633830000000 1.0
C      1  0.6014390000000  0.4990460000000  0.5174050000000 1.0
C      1  0.4626220000000  0.5840900000000  0.5281740000000 1.0
C      1  0.4713170000000  0.5560420000000  0.5110330000000 1.0
C      1  0.4973960000000  0.4379320000000  0.4103360000000 1.0
C      1  0.4374590000000  0.5160760000000  0.4213960000000 1.0
C      1  0.4143370000000  0.5382810000000  0.4667280000000 1.0
C      1  0.5204350000000  0.4748650000000  0.5748210000000 1.0
C      1  0.4366290000000  0.4411430000000  0.5001390000000 1.0
C      1  0.5098410000000  0.5218970000000  0.5054510000000 1.0
C      1  0.5346120000000  0.4396820000000  0.5630850000000 1.0
C      1  0.4961270000000  0.5895950000000  0.5262060000000 1.0
C      1  0.4378970000000  0.5509680000000  0.5787510000000 1.0
C      1  0.5167080000000  0.4267370000000  0.4370110000000 1.0
C      1  0.5384060000000  0.5925020000000  0.4613990000000 1.0
C      1  0.4642950000000  0.4203650000000  0.4521310000000 1.0
C      1  0.6005200000000  0.4910860000000  0.4885710000000 1.0
C      1  0.4138390000000  0.5087730000000  0.5180060000000 1.0
C      1  0.5067120000000  0.4869260000000  0.3974410000000 1.0
C      1  0.4128730000000  0.4631950000000  0.4615550000000 1.0
C      1  0.5453640000000  0.5282570000000  0.5727680000000 1.0
C      1  0.4859160000000  0.4285550000000  0.5741330000000 1.0
C      1  0.4572970000000  0.5365030000000  0.4243120000000 1.0
C      1  0.5041980000000  0.4191240000000  0.4682310000000 1.0
C      1  0.5905020000000  0.4517450000000  0.4560190000000 1.0
C      1  0.5514530000000  0.4940960000000  0.4144730000000 1.0
C      1  0.5174260000000  0.5485010000000  0.4670990000000 1.0
C      1  0.5205190000000  0.4615550000000  0.5434580000000 1.0
C      1  0.6025760000000  0.5140950000000  0.4732910000000 1.0
C      1  0.5070850000000  0.5653690000000  0.5721070000000 1.0
C      1  0.4757610000000  0.5171660000000  0.5804130000000 1.0
C      1  0.5294670000000  0.5531940000000  0.5895730000000 1.0
C      1  0.5219930000000  0.5009260000000  0.5264910000000 1.0
C      1  0.4794140000000  0.5275970000000  0.4433520000000 1.0
C      1  0.5485070000000  0.4934440000000  0.4569800000000 1.0
C      1  0.5830700000000  0.5357270000000  0.4882420000000 1.0
C      1  0.4407690000000  0.4113310000000  0.4978830000000 1.0
C      1  0.5153690000000  0.4413210000000  0.4901090000000 1.0
C      1  0.4760170000000  0.4458890000000  0.4947650000000 1.0
C      1  0.5082770000000  0.5238630000000  0.4528660000000 1.0
C      1  0.5946460000000  0.4682450000000  0.5208000000000 1.0
C      1  0.5598950000000  0.4922430000000  0.4951860000000 1.0
C      1  0.5126720000000  0.4272220000000  0.5823690000000 1.0
C      1  0.4936160000000  0.4782580000000  0.5101810000000 1.0
C      1  0.5346900000000  0.5915950000000  0.4896160000000 1.0
C      1  0.4355510000000  0.4513420000000  0.4742090000000 1.0
C      1  0.5552450000000  0.5075530000000  0.5238630000000 1.0
C      1  0.4856640000000  0.5538970000000  0.5403510000000 1.0
C      1  0.5045610000000  0.4416250000000  0.5218770000000 1.0
C      1  0.5026860000000  0.5577490000000  0.4248950000000 1.0
C      1  0.5276970000000  0.4724170000000  0.5120270000000 1.0
C      1  0.4041200000000  0.5367900000000  0.5631530000000 1.0
C      1  0.5905580000000  0.5249800000000  0.4477960000000 1.0
C      1  0.5155150000000  0.4635850000000  0.4166140000000 1.0
C      1  0.5718160000000  0.4811370000000  0.5372790000000 1.0
C      1  0.4939820000000  0.4927530000000  0.5409440000000 1.0
C      1  0.5705020000000  0.5678060000000  0.4529360000000 1.0
C      1  0.5266790000000  0.4580950000000  0.4627290000000 1.0
C      1  0.4447040000000  0.5704600000000  0.4955210000000 1.0
C      1  0.4319200000000  0.5035870000000  0.4740630000000 1.0
C      1  0.4738030000000  0.5711780000000  0.5657030000000 1.0
C      1  0.5278980000000  0.5677990000000  0.4451840000000 1.0
C      1  0.4822310000000  0.5470420000000  0.5863450000000 1.0
C      1  0.5162020000000  0.5302550000000  0.5553950000000 1.0
C      1  0.4899790000000  0.4423600000000  0.4485830000000 1.0
C      1  0.5509050000000  0.5774520000000  0.5442570000000 1.0
C      1  0.5637270000000  0.5188950000000  0.4657690000000 1.0
C      1  0.5221130000000  0.5009280000000  0.4406250000000 1.0
C      1  0.5464940000000  0.4291680000000  0.4439710000000 1.0
C      1  0.5423240000000  0.4956080000000  0.5818000000000 1.0
C      1  0.5512880000000  0.5508790000000  0.4301590000000 1.0
C      1  0.5360860000000  0.4176860000000  0.5301250000000 1.0
C      1  0.4090050000000  0.5415140000000  0.5180040000000 1.0
C      1  0.5765430000000  0.5648530000000  0.4804420000000 1.0
C      1  0.4077070000000  0.4757090000000  0.5122240000000 1.0
C      1  0.4308130000000  0.4905180000000  0.5411510000000 1.0
C      1  0.4012340000000  0.5089260000000  0.4715480000000 1.0
C      1  0.4462890000000  0.4410810000000  0.5483140000000 1.0
C      1  0.5018480000000  0.4741240000000  0.4459160000000 1.0
C      1  0.4547080000000  0.5297130000000  0.5360660000000 1.0
C      1  0.5352070000000  0.5254280000000  0.4830880000000 1.0
C      1  0.4650600000000  0.4965720000000  0.5077330000000 1.0
C      1  0.4756410000000  0.4564960000000  0.5260190000000 1.0
C      1  0.4489700000000  0.4838440000000  0.4210200000000 1.0
C      1  0.4463690000000  0.5611550000000  0.4522990000000 1.0
C      1  0.5047730000000  0.5884840000000  0.4957430000000 1.0
C      1  0.5080370000000  0.5314230000000  0.4136870000000 1.0
C      1  0.4074520000000  0.5051580000000  0.5582770000000 1.0
C      1  0.4368900000000  0.4840340000000  0.4968680000000 1.0
C      1  0.4641200000000  0.4065410000000  0.4768620000000 1.0
C      1  0.4523300000000  0.4476340000000  0.4371190000000 1.0
C      1  0.4469940000000  0.5608460000000  0.5475020000000 1.0
C      1  0.4487550000000  0.4721280000000  0.5626030000000 1.0
C      1  0.5592020000000  0.4630320000000  0.5604020000000 1.0
C      1  0.4266280000000  0.5192610000000  0.5818210000000 1.0
C      1  0.4504910000000  0.5006560000000  0.5814220000000 1.0
C      1  0.4696190000000  0.4575580000000  0.4119950000000 1.0
C      1  0.5189800000000  0.4521610000000  0.5973170000000 1.0
C      1  0.5472530000000  0.5442120000000  0.5051790000000 1.0
C      1  0.5028960000000  0.5006090000000  0.5839440000000 1.0
C      1  0.4924100000000  0.4052960000000  0.4969690000000 1.0
C      1  0.5711200000000  0.4477180000000  0.4361260000000 1.0
C      1  0.5293830000000  0.4916590000000  0.4840350000000 1.0
C      1  0.5617150000000  0.4302650000000  0.5501850000000 1.0
C      1  0.5908560000000  0.4440110000000  0.5080400000000 1.0
C      1  0.4429590000000  0.5220090000000  0.5077840000000 1.0
C      1  0.4747370000000  0.4516580000000  0.5840020000000 1.0
C      1  0.4709710000000  0.5922050000000  0.4949040000000 1.0
C      1  0.4814230000000  0.4796890000000  0.5678570000000 1.0
C      1  0.4919590000000  0.5597080000000  0.4850910000000 1.0
C      1  0.5731220000000  0.5296680000000  0.5538650000000 1.0
C      1  0.4150280000000  0.4511290000000  0.5352930000000 1.0
C      1  0.5827270000000  0.5274280000000  0.5213060000000 1.0
C      1  0.5659510000000  0.4291020000000  0.5185400000000 1.0
C      1  0.4753190000000  0.5343280000000  0.4725710000000 1.0
C      1  0.4671550000000  0.4195520000000  0.5141480000000 1.0
C      1  0.4625710000000  0.4968400000000  0.4678610000000 1.0
C      1  0.4725570000000  0.5772440000000  0.4639510000000 1.0
C      1  0.4765210000000  0.4949520000000  0.4369010000000 1.0
C      1  0.5843470000000  0.5477060000000  0.4332360000000 1.0
C      1  0.4735010000000  0.5653910000000  0.4320880000000 1.0
C      1  0.5438370000000  0.4679960000000  0.4349070000000 1.0
C      1  0.5548020000000  0.4457640000000  0.4725200000000 1.0
C      1  0.4458310000000  0.5405560000000  0.4793560000000 1.0
C      1  0.5770850000000  0.4701500000000  0.4806050000000 1.0
C      1  0.4902700000000  0.4697530000000  0.4775950000000 1.0
C      1  0.6012950000000  0.4385460000000  0.4819120000000 1.0
C      1  0.4849280000000  0.5218880000000  0.5495530000000 1.0
C      1  0.4934640000000  0.5074860000000  0.4102110000000 1.0
C      1  0.5450300000000  0.4451680000000  0.5027250000000 1.0
C      1  0.5027980000000  0.4106540000000  0.5290080000000 1.0
C      1  0.5112650000000  0.5505580000000  0.5214000000000 1.0
C      1  0.5195160000000  0.5742610000000  0.5443470000000 1.0
C      1  0.5689990000000  0.4970680000000  0.5647090000000 1.0
C      1  0.4149420000000  0.5223930000000  0.4366700000000 1.0
C      1  0.5378220000000  0.5239490000000  0.4211330000000 1.0
C      1  0.5255640000000  0.5207000000000  0.5993900000000 1.0
END
