TITL C-3371502-3785-24 0.000505174932656411 125000 -404.268870649314 0 0 82 (C1) n - 1
REM
REM in /nfs/bkarasulu/CARBON/AIRSS/Generating-Clusters/AIREBO/with-SteepDescent/Only-C1/SD-CG-opt/Try1-1.4A-POS3A/HFTN-CG
REM
REM
REM
REM
REM
REM ./C.cell (11c1c37f851c82e70ff6c80c92926a4b)
REM
REM compiler GCC version 9.2.1 20190827 (Red Hat 9.2.1-1)
REM options -cpp -mtune=generic -march=x86-64 -g -O0 -fpre-include=/usr/include/finclude/math-vector-fortran.h
REM seed -1529258642 1401513121 -415447325 1031027693 1256586854 -563798691 378823002 1460352399 -16759325 643227467 1920613898 1124368666 1093671818 -1504400255 2112859176 -1462075794 -782437010 -1750131516 -984541609 -1471637002 -546455738 -51039295 -1402902454 211090729 846544481 -411526766 651394379 773813293 -1090370304 -1792841466 -1246489434 -76813595 -1588057275
REM
CELL 1.54180   50.00000   50.00000   50.00000   90.00000   90.00000   90.00000
LATT -1
SFAC C  
C      1  0.4727290000000  0.4783840000000  0.4817740000000 1.0
C      1  0.5286910000000  0.5103880000000  0.4897940000000 1.0
C      1  0.4661320000000  0.5007740000000  0.5490980000000 1.0
C      1  0.4283070000000  0.5326640000000  0.5279580000000 1.0
C      1  0.5122690000000  0.5820210000000  0.5148710000000 1.0
C      1  0.4650530000000  0.5380680000000  0.5062650000000 1.0
C      1  0.5311100000000  0.4224950000000  0.5016410000000 1.0
C      1  0.5510580000000  0.5386840000000  0.5335460000000 1.0
C      1  0.5615860000000  0.4872550000000  0.4947380000000 1.0
C      1  0.5603850000000  0.5221640000000  0.4541130000000 1.0
C      1  0.5511260000000  0.4974120000000  0.4426160000000 1.0
C      1  0.5555830000000  0.4657420000000  0.5184410000000 1.0
C      1  0.4599440000000  0.4255930000000  0.4899040000000 1.0
C      1  0.5115120000000  0.4499110000000  0.4590320000000 1.0
C      1  0.4989190000000  0.5330960000000  0.4586770000000 1.0
C      1  0.4436200000000  0.4627730000000  0.4898870000000 1.0
C      1  0.5130830000000  0.5932240000000  0.4731320000000 1.0
C      1  0.5423000000000  0.4620860000000  0.5633950000000 1.0
C      1  0.5039830000000  0.4664370000000  0.4878210000000 1.0
C      1  0.5008530000000  0.5391180000000  0.5248790000000 1.0
C      1  0.4851970000000  0.5860980000000  0.5028060000000 1.0
C      1  0.5615510000000  0.5486340000000  0.4963430000000 1.0
C      1  0.5423580000000  0.4716140000000  0.4717100000000 1.0
C      1  0.4991600000000  0.4377320000000  0.5647560000000 1.0
C      1  0.4993890000000  0.4953150000000  0.5423960000000 1.0
C      1  0.4892760000000  0.4950550000000  0.4215650000000 1.0
C      1  0.5376150000000  0.4403570000000  0.4786200000000 1.0
C      1  0.4328660000000  0.5098890000000  0.4838450000000 1.0
C      1  0.4878150000000  0.4951080000000  0.4562900000000 1.0
C      1  0.4210570000000  0.4740340000000  0.5471290000000 1.0
C      1  0.4838540000000  0.4514610000000  0.4393040000000 1.0
C      1  0.5013700000000  0.5292440000000  0.4923740000000 1.0
C      1  0.5302480000000  0.4478940000000  0.4335970000000 1.0
C      1  0.4895990000000  0.4878230000000  0.5923150000000 1.0
C      1  0.4725450000000  0.4476960000000  0.4671200000000 1.0
C      1  0.4507950000000  0.5271670000000  0.5420080000000 1.0
C      1  0.5005840000000  0.5786520000000  0.4462460000000 1.0
C      1  0.4628260000000  0.4483960000000  0.5140070000000 1.0
C      1  0.4345730000000  0.5324630000000  0.4995940000000 1.0
C      1  0.5116820000000  0.4170010000000  0.4676310000000 1.0
C      1  0.5202670000000  0.4815800000000  0.5681590000000 1.0
C      1  0.4685970000000  0.4811160000000  0.5214660000000 1.0
C      1  0.5210590000000  0.5233600000000  0.4396520000000 1.0
C      1  0.5608320000000  0.4798370000000  0.4245030000000 1.0
C      1  0.4252530000000  0.4869140000000  0.4971920000000 1.0
C      1  0.4481110000000  0.4809780000000  0.4426350000000 1.0
C      1  0.4347420000000  0.4803590000000  0.5245290000000 1.0
C      1  0.5472050000000  0.5257190000000  0.5633370000000 1.0
C      1  0.4791460000000  0.4328310000000  0.5393450000000 1.0
C      1  0.5116860000000  0.4900720000000  0.5111060000000 1.0
C      1  0.5044100000000  0.5114270000000  0.5719500000000 1.0
C      1  0.5370100000000  0.5105930000000  0.5227650000000 1.0
C      1  0.5056360000000  0.4274640000000  0.5193850000000 1.0
C      1  0.4764340000000  0.5602910000000  0.4867620000000 1.0
C      1  0.5571220000000  0.5019270000000  0.5466770000000 1.0
C      1  0.5217900000000  0.4959490000000  0.4597890000000 1.0
C      1  0.4826350000000  0.5350250000000  0.5831460000000 1.0
C      1  0.4603920000000  0.5420640000000  0.4629240000000 1.0
C      1  0.4770490000000  0.5066690000000  0.5001710000000 1.0
C      1  0.5435800000000  0.5446780000000  0.4450000000000 1.0
C      1  0.5166570000000  0.5368300000000  0.5529540000000 1.0
C      1  0.4709680000000  0.4730180000000  0.4273520000000 1.0
C      1  0.5299310000000  0.5636580000000  0.5368140000000 1.0
C      1  0.4943610000000  0.4627600000000  0.5339630000000 1.0
C      1  0.4929490000000  0.4337940000000  0.4905020000000 1.0
C      1  0.4566680000000  0.5084210000000  0.4595270000000 1.0
C      1  0.5747890000000  0.4750440000000  0.4658220000000 1.0
C      1  0.4727650000000  0.5485580000000  0.5376860000000 1.0
C      1  0.4372070000000  0.5293410000000  0.4410760000000 1.0
C      1  0.5607080000000  0.4743160000000  0.5458110000000 1.0
C      1  0.5266320000000  0.4370830000000  0.5556380000000 1.0
C      1  0.5600200000000  0.5197710000000  0.4846890000000 1.0
C      1  0.4362270000000  0.4619470000000  0.4583850000000 1.0
C      1  0.5081680000000  0.5127050000000  0.4136410000000 1.0
C      1  0.4947680000000  0.4617240000000  0.5784440000000 1.0
C      1  0.5381970000000  0.5625080000000  0.5042550000000 1.0
C      1  0.5301740000000  0.5671460000000  0.4577170000000 1.0
C      1  0.4841350000000  0.5567270000000  0.4477720000000 1.0
C      1  0.5263360000000  0.4535740000000  0.5261570000000 1.0
C      1  0.5103840000000  0.5611520000000  0.4847230000000 1.0
C      1  0.4632680000000  0.5138720000000  0.5782340000000 1.0
C      1  0.4791340000000  0.5572710000000  0.5671060000000 1.0
END
