TITL C-3371511-147-59 0.0040082236689551 125000 -794.694076296747 0 0 142 (C1) n - 1
REM
REM in /nfs/bkarasulu/CARBON/AIRSS/Generating-Clusters/AIREBO/with-SteepDescent/Only-C1/SD-CG-opt/Try1-1.4A-POS3A/HFTN-CG
REM
REM
REM
REM
REM
REM ./C.cell (11c1c37f851c82e70ff6c80c92926a4b)
REM
REM compiler GCC version 9.2.1 20190827 (Red Hat 9.2.1-1)
REM options -cpp -mtune=generic -march=x86-64 -g -O0 -fpre-include=/usr/include/finclude/math-vector-fortran.h
REM seed -1172967296 -848920488 -279920541 1308971614 -300327660 1490755299 1144861926 -1964515646 -1814975241 -124475445 764091228 -688289078 -1765940529 -2068012804 629574422 872787601 2058159797 260581247 -1219759342 -1777210852 -517374352 125340200 1746328601 -2038670353 404213805 554111021 -361180620 1176274034 -64101807 2021985564 -604036332 -19514192 -1102378081
REM
CELL 1.54180   50.00000   50.00000   50.00000   90.00000   90.00000   90.00000
LATT -1
SFAC C  
C      1  0.5008780000000  0.5245040000000  0.4907100000000 1.0
C      1  0.5750990000000  0.4886210000000  0.4510470000000 1.0
C      1  0.5563180000000  0.5060890000000  0.4979760000000 1.0
C      1  0.5534200000000  0.4828070000000  0.5303260000000 1.0
C      1  0.5483500000000  0.4666290000000  0.4312970000000 1.0
C      1  0.4852830000000  0.5861790000000  0.5185500000000 1.0
C      1  0.4237270000000  0.5546930000000  0.5241320000000 1.0
C      1  0.4504440000000  0.5215070000000  0.5593560000000 1.0
C      1  0.4807490000000  0.5657150000000  0.4756160000000 1.0
C      1  0.4084850000000  0.5677850000000  0.4971630000000 1.0
C      1  0.4123220000000  0.4817190000000  0.4837130000000 1.0
C      1  0.5338250000000  0.4618020000000  0.4785050000000 1.0
C      1  0.4426930000000  0.4392080000000  0.4740960000000 1.0
C      1  0.5524360000000  0.4893900000000  0.4723730000000 1.0
C      1  0.4596130000000  0.5280940000000  0.4412760000000 1.0
C      1  0.4683170000000  0.4076500000000  0.4992490000000 1.0
C      1  0.4520010000000  0.5261150000000  0.4744090000000 1.0
C      1  0.4865550000000  0.4542160000000  0.4971730000000 1.0
C      1  0.4316810000000  0.4572890000000  0.4972950000000 1.0
C      1  0.5015530000000  0.4990610000000  0.4351550000000 1.0
C      1  0.5512120000000  0.5363160000000  0.4209840000000 1.0
C      1  0.5797680000000  0.4655840000000  0.5545690000000 1.0
C      1  0.4644470000000  0.4792850000000  0.5034590000000 1.0
C      1  0.4911720000000  0.4534580000000  0.3956160000000 1.0
C      1  0.4434710000000  0.5024450000000  0.4972830000000 1.0
C      1  0.5313260000000  0.5199100000000  0.5584510000000 1.0
C      1  0.5251170000000  0.4701490000000  0.5923380000000 1.0
C      1  0.5055780000000  0.4610430000000  0.4595030000000 1.0
C      1  0.5305280000000  0.4965770000000  0.5146540000000 1.0
C      1  0.5777640000000  0.5616310000000  0.5202640000000 1.0
C      1  0.4884850000000  0.5773590000000  0.5894250000000 1.0
C      1  0.4665260000000  0.4682660000000  0.5702480000000 1.0
C      1  0.4546580000000  0.5450390000000  0.3931670000000 1.0
C      1  0.5028370000000  0.5695050000000  0.4984260000000 1.0
C      1  0.4856960000000  0.5044720000000  0.5319450000000 1.0
C      1  0.5136030000000  0.4519840000000  0.6169430000000 1.0
C      1  0.4947200000000  0.5965360000000  0.6079980000000 1.0
C      1  0.5663450000000  0.5331540000000  0.5459020000000 1.0
C      1  0.5284420000000  0.4073830000000  0.5067190000000 1.0
C      1  0.4798480000000  0.5231530000000  0.5573900000000 1.0
C      1  0.4532850000000  0.5989810000000  0.4837300000000 1.0
C      1  0.4863560000000  0.5474970000000  0.4491880000000 1.0
C      1  0.4965960000000  0.4313200000000  0.5443780000000 1.0
C      1  0.4008530000000  0.5150010000000  0.5462780000000 1.0
C      1  0.5866650000000  0.4813860000000  0.4012360000000 1.0
C      1  0.4302610000000  0.5122150000000  0.4443480000000 1.0
C      1  0.4335600000000  0.5776060000000  0.4866230000000 1.0
C      1  0.4017780000000  0.5396910000000  0.5420810000000 1.0
C      1  0.5561590000000  0.5534340000000  0.4657310000000 1.0
C      1  0.5242840000000  0.5094710000000  0.3907310000000 1.0
C      1  0.5465340000000  0.5544480000000  0.5300920000000 1.0
C      1  0.5298470000000  0.5021420000000  0.6029160000000 1.0
C      1  0.5255270000000  0.5022640000000  0.4666080000000 1.0
C      1  0.5357430000000  0.4462710000000  0.5074770000000 1.0
C      1  0.4112210000000  0.4884060000000  0.4554620000000 1.0
C      1  0.5052890000000  0.5250920000000  0.4567850000000 1.0
C      1  0.5488760000000  0.5117160000000  0.4092040000000 1.0
C      1  0.5296580000000  0.5828290000000  0.4908220000000 1.0
C      1  0.4783700000000  0.5931290000000  0.4348330000000 1.0
C      1  0.4550840000000  0.5524010000000  0.5217630000000 1.0
C      1  0.5281060000000  0.5799510000000  0.4408310000000 1.0
C      1  0.5064840000000  0.4449970000000  0.4177950000000 1.0
C      1  0.4379160000000  0.5398360000000  0.5834430000000 1.0
C      1  0.5035540000000  0.5057930000000  0.5674880000000 1.0
C      1  0.4327060000000  0.5089620000000  0.5866260000000 1.0
C      1  0.5513240000000  0.5354410000000  0.4908320000000 1.0
C      1  0.4729390000000  0.5701780000000  0.5413110000000 1.0
C      1  0.4209030000000  0.4659150000000  0.4362960000000 1.0
C      1  0.4424970000000  0.4458970000000  0.5727200000000 1.0
C      1  0.5399000000000  0.5760010000000  0.4654770000000 1.0
C      1  0.4673480000000  0.5288610000000  0.4095100000000 1.0
C      1  0.5820300000000  0.4692570000000  0.5208380000000 1.0
C      1  0.5062530000000  0.4232460000000  0.4362770000000 1.0
C      1  0.4814330000000  0.4785690000000  0.3969950000000 1.0
C      1  0.4116400000000  0.5071080000000  0.5051430000000 1.0
C      1  0.4985820000000  0.5703620000000  0.4305600000000 1.0
C      1  0.5812800000000  0.5482670000000  0.4959250000000 1.0
C      1  0.5120780000000  0.4039770000000  0.4709500000000 1.0
C      1  0.4416470000000  0.5670490000000  0.5831340000000 1.0
C      1  0.4683050000000  0.4756830000000  0.5370580000000 1.0
C      1  0.5050510000000  0.5500120000000  0.5894250000000 1.0
C      1  0.5294790000000  0.5270970000000  0.5890080000000 1.0
C      1  0.4407660000000  0.4874540000000  0.4292530000000 1.0
C      1  0.4654710000000  0.5782420000000  0.5728090000000 1.0
C      1  0.5489890000000  0.4713210000000  0.5681140000000 1.0
C      1  0.4236790000000  0.4933980000000  0.5407190000000 1.0
C      1  0.5452010000000  0.5835320000000  0.5133850000000 1.0
C      1  0.5164550000000  0.5191930000000  0.5305650000000 1.0
C      1  0.5567830000000  0.5019680000000  0.5555890000000 1.0
C      1  0.4708450000000  0.4881770000000  0.4254160000000 1.0
C      1  0.5124740000000  0.5259940000000  0.4175110000000 1.0
C      1  0.4741010000000  0.4337150000000  0.5189830000000 1.0
C      1  0.4962300000000  0.4301990000000  0.5724620000000 1.0
C      1  0.4944980000000  0.4567060000000  0.5858890000000 1.0
C      1  0.6023740000000  0.5333520000000  0.4837330000000 1.0
C      1  0.5107320000000  0.4314660000000  0.4898200000000 1.0
C      1  0.4767160000000  0.5055640000000  0.4760830000000 1.0
C      1  0.5678500000000  0.5445790000000  0.4419340000000 1.0
C      1  0.4689850000000  0.6050370000000  0.5069640000000 1.0
C      1  0.4965870000000  0.3790550000000  0.4695790000000 1.0
C      1  0.5368750000000  0.4568610000000  0.5397700000000 1.0
C      1  0.4093990000000  0.5357420000000  0.5013090000000 1.0
C      1  0.4549370000000  0.5535600000000  0.4877810000000 1.0
C      1  0.4966200000000  0.4082010000000  0.5188360000000 1.0
C      1  0.4694990000000  0.4815210000000  0.4564170000000 1.0
C      1  0.5857540000000  0.4587720000000  0.4907090000000 1.0
C      1  0.4906730000000  0.5506700000000  0.5597250000000 1.0
C      1  0.5939160000000  0.5783840000000  0.5343380000000 1.0
C      1  0.4369960000000  0.4849920000000  0.5679980000000 1.0
C      1  0.4821470000000  0.4220800000000  0.4516310000000 1.0
C      1  0.4105240000000  0.4750950000000  0.5170800000000 1.0
C      1  0.4256800000000  0.4410700000000  0.4477510000000 1.0
C      1  0.4977740000000  0.4617220000000  0.5346860000000 1.0
C      1  0.5556300000000  0.4539170000000  0.4544620000000 1.0
C      1  0.5892430000000  0.5174280000000  0.5371170000000 1.0
C      1  0.5335930000000  0.4111640000000  0.4506560000000 1.0
C      1  0.4809210000000  0.5105880000000  0.6174810000000 1.0
C      1  0.5663830000000  0.4887950000000  0.4190340000000 1.0
C      1  0.4908810000000  0.5088770000000  0.3978880000000 1.0
C      1  0.5672440000000  0.4117990000000  0.5419650000000 1.0
C      1  0.4729580000000  0.5258880000000  0.5101660000000 1.0
C      1  0.6025320000000  0.5051520000000  0.4881980000000 1.0
C      1  0.6010470000000  0.4625190000000  0.5694930000000 1.0
C      1  0.5186300000000  0.4702790000000  0.4309440000000 1.0
C      1  0.4704320000000  0.5932250000000  0.4606750000000 1.0
C      1  0.5671700000000  0.4399020000000  0.4787450000000 1.0
C      1  0.5099970000000  0.4767840000000  0.5070520000000 1.0
C      1  0.5481210000000  0.4173420000000  0.4807760000000 1.0
C      1  0.4740660000000  0.4500520000000  0.4660970000000 1.0
C      1  0.5496430000000  0.4215520000000  0.5262430000000 1.0
C      1  0.4726690000000  0.3992980000000  0.4677370000000 1.0
C      1  0.4911810000000  0.5195500000000  0.5955430000000 1.0
C      1  0.5255440000000  0.5539510000000  0.4199930000000 1.0
C      1  0.4331900000000  0.4384680000000  0.5501800000000 1.0
C      1  0.4481510000000  0.4505870000000  0.5260190000000 1.0
C      1  0.5842140000000  0.5002290000000  0.5121850000000 1.0
C      1  0.5175600000000  0.4829570000000  0.5498980000000 1.0
C      1  0.5021680000000  0.4860440000000  0.4787550000000 1.0
C      1  0.5230600000000  0.5437010000000  0.5079250000000 1.0
C      1  0.4470690000000  0.5138860000000  0.5286920000000 1.0
C      1  0.4402950000000  0.4070230000000  0.4835810000000 1.0
C      1  0.5941830000000  0.4813430000000  0.4730270000000 1.0
END
