TITL C-3371507-1587-19 0.00127515819557764 125000 -637.395800188942 0 0 115 (C1) n - 1
REM
REM in /nfs/bkarasulu/CARBON/AIRSS/Generating-Clusters/AIREBO/with-SteepDescent/Only-C1/SD-CG-opt/Try1-1.4A-POS3A/HFTN-CG
REM
REM
REM
REM
REM
REM ./C.cell (11c1c37f851c82e70ff6c80c92926a4b)
REM
REM compiler GCC version 9.2.1 20190827 (Red Hat 9.2.1-1)
REM options -cpp -mtune=generic -march=x86-64 -g -O0 -fpre-include=/usr/include/finclude/math-vector-fortran.h
REM seed -1414086241 -2035626525 1986564068 -1565690827 -1766616459 40526278 1579330744 -414779447 301475499 1886875150 -2001975839 -1898860327 -1763808112 605795354 1808945066 -748979180 1908200883 1968389851 -688823391 -1611916335 96555732 -166182866 -965503694 -773152390 -832639308 1364133098 -793669086 -390656072 -1312962083 -1823425340 626925243 242801695 962245870
REM
CELL 1.54180   50.00000   50.00000   50.00000   90.00000   90.00000   90.00000
LATT -1
SFAC C  
C      1  0.5206950000000  0.4796470000000  0.4166750000000 1.0
C      1  0.4508080000000  0.4696600000000  0.4677920000000 1.0
C      1  0.5026640000000  0.4388200000000  0.4354530000000 1.0
C      1  0.5141330000000  0.5815480000000  0.4388610000000 1.0
C      1  0.5631100000000  0.4327680000000  0.5272870000000 1.0
C      1  0.5520950000000  0.4313480000000  0.4703060000000 1.0
C      1  0.4501190000000  0.4616470000000  0.4155820000000 1.0
C      1  0.4907080000000  0.4761280000000  0.4433250000000 1.0
C      1  0.5030380000000  0.4209730000000  0.5322100000000 1.0
C      1  0.4255060000000  0.4663270000000  0.4756880000000 1.0
C      1  0.4229700000000  0.4716600000000  0.5022720000000 1.0
C      1  0.5008540000000  0.5025620000000  0.4967720000000 1.0
C      1  0.4682750000000  0.4833810000000  0.5189620000000 1.0
C      1  0.5223560000000  0.4248880000000  0.5559400000000 1.0
C      1  0.5016730000000  0.5744820000000  0.5736760000000 1.0
C      1  0.5108110000000  0.4899180000000  0.5923430000000 1.0
C      1  0.5595710000000  0.5611970000000  0.4624110000000 1.0
C      1  0.4475460000000  0.4711730000000  0.5429020000000 1.0
C      1  0.5487970000000  0.5356080000000  0.5125800000000 1.0
C      1  0.4457320000000  0.4900350000000  0.4142360000000 1.0
C      1  0.4714540000000  0.5315160000000  0.5889860000000 1.0
C      1  0.5899680000000  0.5219590000000  0.4534760000000 1.0
C      1  0.4975060000000  0.4331400000000  0.4667810000000 1.0
C      1  0.4510360000000  0.5156200000000  0.4934500000000 1.0
C      1  0.5214710000000  0.4088730000000  0.5063260000000 1.0
C      1  0.5649020000000  0.5013150000000  0.5636700000000 1.0
C      1  0.4223180000000  0.5026260000000  0.5067250000000 1.0
C      1  0.4602610000000  0.4238050000000  0.4556000000000 1.0
C      1  0.4687540000000  0.4382360000000  0.5505410000000 1.0
C      1  0.4524090000000  0.5407950000000  0.4227690000000 1.0
C      1  0.5083680000000  0.5751840000000  0.4663640000000 1.0
C      1  0.4445530000000  0.4515870000000  0.5152470000000 1.0
C      1  0.5635610000000  0.5009720000000  0.4994880000000 1.0
C      1  0.4770690000000  0.5621630000000  0.5827370000000 1.0
C      1  0.5343990000000  0.5361470000000  0.4133410000000 1.0
C      1  0.4111420000000  0.5088400000000  0.5370670000000 1.0
C      1  0.4549520000000  0.5601360000000  0.4650300000000 1.0
C      1  0.4268180000000  0.5348650000000  0.5310560000000 1.0
C      1  0.5250640000000  0.4582520000000  0.4334600000000 1.0
C      1  0.4522330000000  0.5649040000000  0.4985850000000 1.0
C      1  0.5096450000000  0.4463240000000  0.5137310000000 1.0
C      1  0.5861360000000  0.4806960000000  0.5251830000000 1.0
C      1  0.5816330000000  0.4696460000000  0.4521100000000 1.0
C      1  0.5887390000000  0.5114710000000  0.5169180000000 1.0
C      1  0.4564000000000  0.5570910000000  0.5622120000000 1.0
C      1  0.4647020000000  0.4542970000000  0.4454050000000 1.0
C      1  0.5008400000000  0.5061580000000  0.5271990000000 1.0
C      1  0.4741250000000  0.4470510000000  0.5760840000000 1.0
C      1  0.4658590000000  0.4104710000000  0.4758410000000 1.0
C      1  0.4972980000000  0.4689130000000  0.5752610000000 1.0
C      1  0.5455040000000  0.4094540000000  0.4851330000000 1.0
C      1  0.4144070000000  0.5230020000000  0.4801080000000 1.0
C      1  0.5231860000000  0.4515610000000  0.5654870000000 1.0
C      1  0.4819650000000  0.4547100000000  0.5286020000000 1.0
C      1  0.4914690000000  0.4873210000000  0.4111750000000 1.0
C      1  0.5197600000000  0.5303860000000  0.5017800000000 1.0
C      1  0.4896450000000  0.4637170000000  0.4750560000000 1.0
C      1  0.5555350000000  0.4648940000000  0.5238530000000 1.0
C      1  0.4924300000000  0.4162310000000  0.4940480000000 1.0
C      1  0.4257480000000  0.5100650000000  0.5678870000000 1.0
C      1  0.5312060000000  0.5218490000000  0.4548160000000 1.0
C      1  0.5125990000000  0.5581140000000  0.4208390000000 1.0
C      1  0.5806710000000  0.5436570000000  0.4695370000000 1.0
C      1  0.4496840000000  0.5348490000000  0.5469560000000 1.0
C      1  0.5792680000000  0.5376340000000  0.4976280000000 1.0
C      1  0.5431500000000  0.5685980000000  0.4870620000000 1.0
C      1  0.4211990000000  0.4821010000000  0.5532650000000 1.0
C      1  0.5274280000000  0.5099130000000  0.4168960000000 1.0
C      1  0.5280890000000  0.4882500000000  0.4885110000000 1.0
C      1  0.4224630000000  0.5254750000000  0.4529930000000 1.0
C      1  0.5830710000000  0.5425720000000  0.5310540000000 1.0
C      1  0.4789230000000  0.4428710000000  0.4167050000000 1.0
C      1  0.5495270000000  0.5022610000000  0.4690530000000 1.0
C      1  0.5754530000000  0.4448560000000  0.4623030000000 1.0
C      1  0.5299140000000  0.5164440000000  0.6022220000000 1.0
C      1  0.4692740000000  0.5297730000000  0.3991320000000 1.0
C      1  0.4397350000000  0.5035950000000  0.4405310000000 1.0
C      1  0.4886810000000  0.5369820000000  0.5386700000000 1.0
C      1  0.5399410000000  0.4958570000000  0.5779310000000 1.0
C      1  0.4706650000000  0.5084150000000  0.5427110000000 1.0
C      1  0.5765500000000  0.4968950000000  0.4556110000000 1.0
C      1  0.4320900000000  0.5410620000000  0.5023820000000 1.0
C      1  0.5246080000000  0.5691160000000  0.5491310000000 1.0
C      1  0.4844410000000  0.5279140000000  0.4490630000000 1.0
C      1  0.4778470000000  0.5792640000000  0.4810270000000 1.0
C      1  0.5223910000000  0.5462310000000  0.4743250000000 1.0
C      1  0.4667190000000  0.4851960000000  0.5672420000000 1.0
C      1  0.4728570000000  0.5362420000000  0.4798080000000 1.0
C      1  0.5383130000000  0.4940130000000  0.5204290000000 1.0
C      1  0.5786110000000  0.4773410000000  0.5539580000000 1.0
C      1  0.5537110000000  0.5601000000000  0.5353010000000 1.0
C      1  0.5431490000000  0.5503040000000  0.4406120000000 1.0
C      1  0.5061850000000  0.5058110000000  0.4431300000000 1.0
C      1  0.5272760000000  0.4494500000000  0.4662510000000 1.0
C      1  0.4693680000000  0.5012250000000  0.4012160000000 1.0
C      1  0.5139930000000  0.5388880000000  0.5605210000000 1.0
C      1  0.4376050000000  0.5493470000000  0.4439780000000 1.0
C      1  0.5318920000000  0.5787760000000  0.5170990000000 1.0
C      1  0.4733160000000  0.5600740000000  0.5240280000000 1.0
C      1  0.5469440000000  0.4663420000000  0.5567290000000 1.0
C      1  0.4919510000000  0.5471570000000  0.5001450000000 1.0
C      1  0.4528800000000  0.4635350000000  0.5895170000000 1.0
C      1  0.5336070000000  0.5435460000000  0.5871780000000 1.0
C      1  0.5421870000000  0.4161220000000  0.5324200000000 1.0
C      1  0.5589410000000  0.5211240000000  0.5416900000000 1.0
C      1  0.5273780000000  0.5173220000000  0.5405530000000 1.0
C      1  0.4711600000000  0.4901510000000  0.4857640000000 1.0
C      1  0.4859750000000  0.5456140000000  0.4232410000000 1.0
C      1  0.4733270000000  0.4442650000000  0.4977090000000 1.0
C      1  0.5000870000000  0.5217730000000  0.5867850000000 1.0
C      1  0.4434380000000  0.4299100000000  0.5405670000000 1.0
C      1  0.4643020000000  0.5052540000000  0.4560780000000 1.0
C      1  0.4520860000000  0.5129720000000  0.5803030000000 1.0
C      1  0.5062640000000  0.5774300000000  0.4996110000000 1.0
C      1  0.5328860000000  0.4580030000000  0.4987360000000 1.0
END
