TITL C-3371510-9333-69 0.000829196164998583 125000 -479.890942502304 0 0 88 (C1) n - 1
REM
REM in /nfs/bkarasulu/CARBON/AIRSS/Generating-Clusters/AIREBO/with-SteepDescent/Only-C1/SD-CG-opt/Try1-1.4A-POS3A/HFTN-CG
REM
REM
REM
REM
REM
REM ./C.cell (11c1c37f851c82e70ff6c80c92926a4b)
REM
REM compiler GCC version 9.2.1 20190827 (Red Hat 9.2.1-1)
REM options -cpp -mtune=generic -march=x86-64 -g -O0 -fpre-include=/usr/include/finclude/math-vector-fortran.h
REM seed -478275860 -1248911434 -145656581 366978629 1915767793 -431522684 -83448721 1378915952 1387528008 -185620660 1682215513 -928099294 1053062253 -883529662 -1621112738 1245261424 -79385837 -234280685 -1296890692 1723482288 -1516713159 1219271924 206232657 -519881573 -1450462436 538203401 -1466713260 1004458231 -1867773162 -1602843866 1874650917 121181877 109295176
REM
CELL 1.54180   50.00000   50.00000   50.00000   90.00000   90.00000   90.00000
LATT -1
SFAC C  
C      1  0.5155430000000  0.4445100000000  0.5567890000000 1.0
C      1  0.5636020000000  0.5286010000000  0.4954700000000 1.0
C      1  0.5337250000000  0.4272760000000  0.5408410000000 1.0
C      1  0.4702380000000  0.5604490000000  0.4532090000000 1.0
C      1  0.4981610000000  0.5577620000000  0.5419970000000 1.0
C      1  0.4484500000000  0.5365850000000  0.5312500000000 1.0
C      1  0.5442390000000  0.5674180000000  0.4675240000000 1.0
C      1  0.4102610000000  0.5271470000000  0.5019360000000 1.0
C      1  0.5614980000000  0.4537150000000  0.4780070000000 1.0
C      1  0.5453970000000  0.4291660000000  0.4662550000000 1.0
C      1  0.5112290000000  0.4806890000000  0.4782420000000 1.0
C      1  0.4518420000000  0.5284400000000  0.4873520000000 1.0
C      1  0.5142550000000  0.5144510000000  0.4743310000000 1.0
C      1  0.4662220000000  0.5188450000000  0.4336670000000 1.0
C      1  0.4351160000000  0.4863970000000  0.5498630000000 1.0
C      1  0.4877420000000  0.4307980000000  0.4795400000000 1.0
C      1  0.4661210000000  0.5081010000000  0.5621790000000 1.0
C      1  0.5856290000000  0.5165150000000  0.5265660000000 1.0
C      1  0.5471050000000  0.4992720000000  0.4907490000000 1.0
C      1  0.4264370000000  0.5468590000000  0.5121310000000 1.0
C      1  0.5683130000000  0.5400400000000  0.4204230000000 1.0
C      1  0.5515370000000  0.5313350000000  0.4374640000000 1.0
C      1  0.4167410000000  0.5155980000000  0.4734710000000 1.0
C      1  0.5086970000000  0.5424090000000  0.4342240000000 1.0
C      1  0.5609470000000  0.4348300000000  0.5444010000000 1.0
C      1  0.5098140000000  0.5019180000000  0.5383270000000 1.0
C      1  0.5170120000000  0.4753180000000  0.5814890000000 1.0
C      1  0.5442250000000  0.4577780000000  0.4298570000000 1.0
C      1  0.5380590000000  0.4677910000000  0.4618030000000 1.0
C      1  0.4399700000000  0.4813560000000  0.5204740000000 1.0
C      1  0.4909790000000  0.4581940000000  0.4627190000000 1.0
C      1  0.4166050000000  0.4939510000000  0.4990250000000 1.0
C      1  0.4991000000000  0.5866950000000  0.5058900000000 1.0
C      1  0.4542920000000  0.5601320000000  0.4995530000000 1.0
C      1  0.4979190000000  0.5197970000000  0.5831090000000 1.0
C      1  0.4149400000000  0.4619920000000  0.4932330000000 1.0
C      1  0.5173350000000  0.4194000000000  0.4810700000000 1.0
C      1  0.5225830000000  0.4257090000000  0.5130630000000 1.0
C      1  0.5644070000000  0.4794570000000  0.4342090000000 1.0
C      1  0.5139430000000  0.4632060000000  0.4304050000000 1.0
C      1  0.5206630000000  0.5039860000000  0.5690750000000 1.0
C      1  0.5419960000000  0.5335600000000  0.4696830000000 1.0
C      1  0.4441060000000  0.4697130000000  0.5697570000000 1.0
C      1  0.4857040000000  0.5427220000000  0.5651470000000 1.0
C      1  0.5151300000000  0.4368480000000  0.4518790000000 1.0
C      1  0.4358800000000  0.5174020000000  0.5563500000000 1.0
C      1  0.5145060000000  0.4544830000000  0.5000090000000 1.0
C      1  0.4978720000000  0.4748320000000  0.5215850000000 1.0
C      1  0.5650530000000  0.5262060000000  0.5437820000000 1.0
C      1  0.5669070000000  0.4606630000000  0.5384790000000 1.0
C      1  0.4696690000000  0.4302230000000  0.5049730000000 1.0
C      1  0.5787440000000  0.4753460000000  0.4934880000000 1.0
C      1  0.5503260000000  0.4891490000000  0.5468790000000 1.0
C      1  0.4591680000000  0.4715620000000  0.4218110000000 1.0
C      1  0.4561880000000  0.4975190000000  0.4953270000000 1.0
C      1  0.4432430000000  0.5167850000000  0.4565800000000 1.0
C      1  0.4441680000000  0.4726300000000  0.4794290000000 1.0
C      1  0.4699030000000  0.4710600000000  0.5827730000000 1.0
C      1  0.4782610000000  0.4953280000000  0.4244370000000 1.0
C      1  0.5230390000000  0.5131500000000  0.4411570000000 1.0
C      1  0.4542010000000  0.5456210000000  0.5628540000000 1.0
C      1  0.4993740000000  0.5375330000000  0.4938560000000 1.0
C      1  0.5479560000000  0.5590030000000  0.4993370000000 1.0
C      1  0.4844430000000  0.4904040000000  0.4952350000000 1.0
C      1  0.5420950000000  0.5394780000000  0.5271970000000 1.0
C      1  0.5277050000000  0.4664120000000  0.5355730000000 1.0
C      1  0.4925250000000  0.4580750000000  0.5707390000000 1.0
C      1  0.4596920000000  0.5786500000000  0.4750930000000 1.0
C      1  0.5171890000000  0.5583790000000  0.5138240000000 1.0
C      1  0.4634460000000  0.4662440000000  0.4551460000000 1.0
C      1  0.5860060000000  0.5031620000000  0.4986670000000 1.0
C      1  0.4787890000000  0.5677590000000  0.5195960000000 1.0
C      1  0.5183340000000  0.5614440000000  0.4535570000000 1.0
C      1  0.4750700000000  0.5284690000000  0.5121810000000 1.0
C      1  0.4429870000000  0.4470560000000  0.5001950000000 1.0
C      1  0.4855580000000  0.5196090000000  0.5402100000000 1.0
C      1  0.5524310000000  0.5130190000000  0.5685730000000 1.0
C      1  0.4858780000000  0.5946280000000  0.4806340000000 1.0
C      1  0.4670720000000  0.4604150000000  0.5203930000000 1.0
C      1  0.4762060000000  0.4995620000000  0.5899760000000 1.0
C      1  0.4415830000000  0.4888030000000  0.4429370000000 1.0
C      1  0.4960510000000  0.5628010000000  0.4741170000000 1.0
C      1  0.5052130000000  0.4895710000000  0.4283190000000 1.0
C      1  0.4798390000000  0.5429270000000  0.4335230000000 1.0
C      1  0.5483620000000  0.4967410000000  0.4568460000000 1.0
C      1  0.5507580000000  0.4723150000000  0.5111780000000 1.0
C      1  0.4935190000000  0.4107060000000  0.5135590000000 1.0
C      1  0.5369610000000  0.5081450000000  0.5219810000000 1.0
END
