TITL C-3371499-8025-56 -0.00279478543038305 125000 -413.562967945445 0 0 81 (C1) n - 1
REM
REM in /nfs/bkarasulu/CARBON/AIRSS/Generating-Clusters/AIREBO/with-SteepDescent/Only-C1/SD-CG-opt/Try1-1.4A-POS3A/HFTN-CG
REM
REM
REM
REM
REM
REM ./C.cell (11c1c37f851c82e70ff6c80c92926a4b)
REM
REM compiler GCC version 9.2.1 20190827 (Red Hat 9.2.1-1)
REM options -cpp -mtune=generic -march=x86-64 -g -O0 -fpre-include=/usr/include/finclude/math-vector-fortran.h
REM seed 1291592125 1169615162 1877031676 1579690396 257384826 1806772954 -1468022650 -300107484 1875674563 -869186597 1827296208 200336910 707240869 1502150540 -314741729 -1069891184 -753945074 -1705868935 -767488653 902837351 764964505 -1031660305 -141916155 1303754103 170134198 -1698693133 572765279 946222030 -730348283 130888562 1793153755 -357023255 1803117105
REM
CELL 1.54180   50.00000   50.00000   50.00000   90.00000   90.00000   90.00000
LATT -1
SFAC C  
C      1  0.5026130000000  0.5171870000000  0.5147810000000 1.0
C      1  0.4531760000000  0.4873910000000  0.4739880000000 1.0
C      1  0.5318160000000  0.5059950000000  0.4839750000000 1.0
C      1  0.4449040000000  0.4873630000000  0.5695720000000 1.0
C      1  0.4708000000000  0.5293870000000  0.5673690000000 1.0
C      1  0.4635910000000  0.4527550000000  0.4575380000000 1.0
C      1  0.4198440000000  0.4470590000000  0.4904760000000 1.0
C      1  0.5130200000000  0.4467700000000  0.5469780000000 1.0
C      1  0.5150610000000  0.5742380000000  0.4738100000000 1.0
C      1  0.4841030000000  0.5103150000000  0.5425250000000 1.0
C      1  0.4541010000000  0.4942390000000  0.5425660000000 1.0
C      1  0.4860670000000  0.5748220000000  0.4892980000000 1.0
C      1  0.5845590000000  0.4971830000000  0.4914190000000 1.0
C      1  0.5096020000000  0.4935110000000  0.4643280000000 1.0
C      1  0.4258900000000  0.4804520000000  0.4930580000000 1.0
C      1  0.4916370000000  0.5434810000000  0.5811950000000 1.0
C      1  0.4216060000000  0.5087810000000  0.4747110000000 1.0
C      1  0.5260810000000  0.4414020000000  0.4854610000000 1.0
C      1  0.5315570000000  0.5279770000000  0.4573640000000 1.0
C      1  0.5327130000000  0.5133770000000  0.5147430000000 1.0
C      1  0.5551480000000  0.4292480000000  0.5262840000000 1.0
C      1  0.4370960000000  0.4668520000000  0.4521780000000 1.0
C      1  0.4754930000000  0.4227170000000  0.4832340000000 1.0
C      1  0.5324670000000  0.4770450000000  0.4477910000000 1.0
C      1  0.5392220000000  0.4724500000000  0.4808020000000 1.0
C      1  0.5761130000000  0.4805240000000  0.5152990000000 1.0
C      1  0.5790960000000  0.5227770000000  0.5343480000000 1.0
C      1  0.4435110000000  0.4304600000000  0.4927640000000 1.0
C      1  0.4592250000000  0.4669470000000  0.5228800000000 1.0
C      1  0.5563950000000  0.5176210000000  0.4392180000000 1.0
C      1  0.5387390000000  0.4900100000000  0.5387070000000 1.0
C      1  0.5509230000000  0.5389300000000  0.5278660000000 1.0
C      1  0.5017950000000  0.4180320000000  0.4808920000000 1.0
C      1  0.4753000000000  0.5272390000000  0.4616300000000 1.0
C      1  0.4463430000000  0.5457720000000  0.5546760000000 1.0
C      1  0.4411140000000  0.5612940000000  0.4884120000000 1.0
C      1  0.5805430000000  0.5252160000000  0.5033140000000 1.0
C      1  0.4884890000000  0.5350940000000  0.4921300000000 1.0
C      1  0.4938790000000  0.4671990000000  0.5612350000000 1.0
C      1  0.5268500000000  0.5809710000000  0.5209120000000 1.0
C      1  0.5005000000000  0.5016990000000  0.5710770000000 1.0
C      1  0.4670740000000  0.4576810000000  0.5517580000000 1.0
C      1  0.5108820000000  0.4549370000000  0.4384770000000 1.0
C      1  0.5481670000000  0.5716930000000  0.5308470000000 1.0
C      1  0.5323840000000  0.5362420000000  0.5563830000000 1.0
C      1  0.5052820000000  0.4844080000000  0.5362620000000 1.0
C      1  0.5532450000000  0.4657400000000  0.5104970000000 1.0
C      1  0.5722330000000  0.4958780000000  0.5400620000000 1.0
C      1  0.4592290000000  0.5250540000000  0.5062620000000 1.0
C      1  0.5408230000000  0.4560640000000  0.5387550000000 1.0
C      1  0.4844710000000  0.4655130000000  0.4395230000000 1.0
C      1  0.4392950000000  0.5235710000000  0.5337760000000 1.0
C      1  0.5112170000000  0.5170830000000  0.4323750000000 1.0
C      1  0.5011560000000  0.4219740000000  0.5312760000000 1.0
C      1  0.5116380000000  0.5539200000000  0.5631850000000 1.0
C      1  0.4946310000000  0.4780170000000  0.5085350000000 1.0
C      1  0.4465100000000  0.5129920000000  0.4003930000000 1.0
C      1  0.5421060000000  0.5538400000000  0.4767520000000 1.0
C      1  0.5490600000000  0.4238440000000  0.5021760000000 1.0
C      1  0.5537640000000  0.4931310000000  0.4325750000000 1.0
C      1  0.4614690000000  0.5702230000000  0.5360340000000 1.0
C      1  0.5126080000000  0.5553830000000  0.4500460000000 1.0
C      1  0.5282770000000  0.5093580000000  0.5639350000000 1.0
C      1  0.5052540000000  0.5593360000000  0.5091710000000 1.0
C      1  0.5722500000000  0.4754040000000  0.4732730000000 1.0
C      1  0.5073480000000  0.4490440000000  0.5125640000000 1.0
C      1  0.4272440000000  0.4909780000000  0.5219510000000 1.0
C      1  0.5341130000000  0.4378320000000  0.4529620000000 1.0
C      1  0.4865710000000  0.4787230000000  0.4768430000000 1.0
C      1  0.4871320000000  0.5491340000000  0.4427600000000 1.0
C      1  0.4639370000000  0.5077510000000  0.4182870000000 1.0
C      1  0.5618860000000  0.4512160000000  0.4556100000000 1.0
C      1  0.4608280000000  0.5744310000000  0.5022470000000 1.0
C      1  0.4651030000000  0.4944620000000  0.5044900000000 1.0
C      1  0.5598750000000  0.5458860000000  0.4955370000000 1.0
C      1  0.4838390000000  0.4999930000000  0.4430980000000 1.0
C      1  0.4448990000000  0.5311680000000  0.4765560000000 1.0
C      1  0.4136950000000  0.4552710000000  0.4625640000000 1.0
C      1  0.4673580000000  0.4546660000000  0.4913110000000 1.0
C      1  0.4956570000000  0.5654160000000  0.5402790000000 1.0
C      1  0.4765090000000  0.5409610000000  0.5298110000000 1.0
END
