TITL C-3371514-4997-54 8.85428831235859e-05 125000 -733.164231119535 0 0 134 (C1) n - 1
REM
REM in /nfs/bkarasulu/CARBON/AIRSS/Generating-Clusters/AIREBO/with-SteepDescent/Only-C1/SD-CG-opt/Try1-1.4A-POS3A/HFTN-CG
REM
REM
REM
REM
REM
REM ./C.cell (11c1c37f851c82e70ff6c80c92926a4b)
REM
REM compiler GCC version 9.2.1 20190827 (Red Hat 9.2.1-1)
REM options -cpp -mtune=generic -march=x86-64 -g -O0 -fpre-include=/usr/include/finclude/math-vector-fortran.h
REM seed 2112604686 2077324264 -455629274 -1883999593 1354442464 -1097248364 191070007 1617014806 -1566938745 624614825 -1479299560 -555981123 921327156 -770232763 -390903609 -686984100 1440503254 1255688892 -694177394 -1692772689 443503415 -1856624145 -156027829 1541213423 1337116835 1085093411 1435376106 -624161595 1004168491 407474452 -1936210820 289783764 403269683
REM
CELL 1.54180   50.00000   50.00000   50.00000   90.00000   90.00000   90.00000
LATT -1
SFAC C  
C      1  0.4802740000000  0.4607420000000  0.5460180000000 1.0
C      1  0.4977770000000  0.4693450000000  0.4034310000000 1.0
C      1  0.5441200000000  0.5360880000000  0.4412500000000 1.0
C      1  0.4943280000000  0.4952700000000  0.3922110000000 1.0
C      1  0.5327890000000  0.4185760000000  0.5127270000000 1.0
C      1  0.4915530000000  0.5192280000000  0.5239600000000 1.0
C      1  0.4717130000000  0.4256380000000  0.4555790000000 1.0
C      1  0.4714680000000  0.4543630000000  0.4068940000000 1.0
C      1  0.4980320000000  0.5161640000000  0.4462570000000 1.0
C      1  0.5536590000000  0.5185630000000  0.5816680000000 1.0
C      1  0.4092000000000  0.5446020000000  0.5060380000000 1.0
C      1  0.5059960000000  0.5705910000000  0.4452790000000 1.0
C      1  0.3960520000000  0.4994910000000  0.4919670000000 1.0
C      1  0.5163010000000  0.5070510000000  0.5891440000000 1.0
C      1  0.5615470000000  0.4884430000000  0.5216510000000 1.0
C      1  0.5162210000000  0.4897370000000  0.5387630000000 1.0
C      1  0.5291830000000  0.4464680000000  0.5565950000000 1.0
C      1  0.5707330000000  0.5469060000000  0.5071460000000 1.0
C      1  0.4430810000000  0.4983830000000  0.5824900000000 1.0
C      1  0.4673540000000  0.4236730000000  0.4217180000000 1.0
C      1  0.5506440000000  0.5597940000000  0.4829190000000 1.0
C      1  0.5236090000000  0.5556210000000  0.5682670000000 1.0
C      1  0.4833860000000  0.4971980000000  0.5089870000000 1.0
C      1  0.5822810000000  0.5362950000000  0.4769700000000 1.0
C      1  0.5876020000000  0.5499940000000  0.5365160000000 1.0
C      1  0.5029250000000  0.4140350000000  0.5163970000000 1.0
C      1  0.5328400000000  0.4204530000000  0.4622570000000 1.0
C      1  0.5329630000000  0.4513520000000  0.5071460000000 1.0
C      1  0.5485270000000  0.4120420000000  0.4871620000000 1.0
C      1  0.4370750000000  0.4907720000000  0.5305910000000 1.0
C      1  0.5678840000000  0.5852030000000  0.4975260000000 1.0
C      1  0.5723700000000  0.4425360000000  0.5266740000000 1.0
C      1  0.4270650000000  0.4593780000000  0.4579800000000 1.0
C      1  0.4419090000000  0.5121100000000  0.4491400000000 1.0
C      1  0.5491570000000  0.4293980000000  0.5363800000000 1.0
C      1  0.4932660000000  0.4114150000000  0.5477300000000 1.0
C      1  0.5104710000000  0.4579510000000  0.5306340000000 1.0
C      1  0.5793760000000  0.4968370000000  0.4039560000000 1.0
C      1  0.4321440000000  0.4287560000000  0.4593060000000 1.0
C      1  0.5680120000000  0.4860650000000  0.5519230000000 1.0
C      1  0.4903250000000  0.5757080000000  0.4900400000000 1.0
C      1  0.5736190000000  0.5600090000000  0.5598320000000 1.0
C      1  0.4558610000000  0.5453220000000  0.5052880000000 1.0
C      1  0.5337520000000  0.4999520000000  0.5151620000000 1.0
C      1  0.5638020000000  0.5245400000000  0.4160520000000 1.0
C      1  0.5245970000000  0.4927300000000  0.4864820000000 1.0
C      1  0.4399540000000  0.4782610000000  0.5620870000000 1.0
C      1  0.5581610000000  0.4564520000000  0.5635520000000 1.0
C      1  0.4382540000000  0.5053890000000  0.4159840000000 1.0
C      1  0.5980000000000  0.5226550000000  0.5421590000000 1.0
C      1  0.5196170000000  0.5307640000000  0.5178160000000 1.0
C      1  0.4732230000000  0.4634400000000  0.4876470000000 1.0
C      1  0.5360280000000  0.5944800000000  0.4954580000000 1.0
C      1  0.4904480000000  0.4974110000000  0.5582350000000 1.0
C      1  0.4630810000000  0.5943160000000  0.4920960000000 1.0
C      1  0.5157070000000  0.4701590000000  0.4252140000000 1.0
C      1  0.4863130000000  0.5592640000000  0.5545710000000 1.0
C      1  0.5019740000000  0.4190680000000  0.4663220000000 1.0
C      1  0.4778760000000  0.5751880000000  0.4437330000000 1.0
C      1  0.5293750000000  0.5063660000000  0.5620210000000 1.0
C      1  0.4549130000000  0.4365100000000  0.5107920000000 1.0
C      1  0.4712810000000  0.5151270000000  0.4664680000000 1.0
C      1  0.4856950000000  0.5835710000000  0.5229060000000 1.0
C      1  0.5455870000000  0.4673890000000  0.4303300000000 1.0
C      1  0.4764860000000  0.5270530000000  0.5497880000000 1.0
C      1  0.4894380000000  0.4782190000000  0.5844150000000 1.0
C      1  0.5047510000000  0.4828770000000  0.4479990000000 1.0
C      1  0.4926570000000  0.5215490000000  0.5914570000000 1.0
C      1  0.3894320000000  0.5028330000000  0.4601450000000 1.0
C      1  0.5691470000000  0.4739010000000  0.4080350000000 1.0
C      1  0.4301810000000  0.5473430000000  0.5275010000000 1.0
C      1  0.4521630000000  0.4197960000000  0.4828160000000 1.0
C      1  0.4858980000000  0.4339480000000  0.5650190000000 1.0
C      1  0.4981680000000  0.4498450000000  0.4731690000000 1.0
C      1  0.5349300000000  0.5148640000000  0.4659620000000 1.0
C      1  0.5656900000000  0.4364420000000  0.4780590000000 1.0
C      1  0.4693480000000  0.5025820000000  0.5917240000000 1.0
C      1  0.5648860000000  0.5198570000000  0.5495970000000 1.0
C      1  0.4031050000000  0.4620670000000  0.4802540000000 1.0
C      1  0.5896050000000  0.5669950000000  0.4786750000000 1.0
C      1  0.4455500000000  0.4273000000000  0.5375050000000 1.0
C      1  0.4098130000000  0.4656050000000  0.5074730000000 1.0
C      1  0.5569360000000  0.4985880000000  0.4369170000000 1.0
C      1  0.5679420000000  0.5101180000000  0.4658990000000 1.0
C      1  0.4801960000000  0.5436700000000  0.4826650000000 1.0
C      1  0.5135480000000  0.5416660000000  0.4349110000000 1.0
C      1  0.5505920000000  0.5491030000000  0.5728360000000 1.0
C      1  0.5904330000000  0.4915820000000  0.5076270000000 1.0
C      1  0.4505170000000  0.4796320000000  0.4438780000000 1.0
C      1  0.5108380000000  0.5386830000000  0.4037190000000 1.0
C      1  0.6087070000000  0.5043810000000  0.5240940000000 1.0
C      1  0.4360180000000  0.5434780000000  0.4580300000000 1.0
C      1  0.5563860000000  0.5576260000000  0.4552130000000 1.0
C      1  0.4408830000000  0.4631340000000  0.5111510000000 1.0
C      1  0.5152350000000  0.5587980000000  0.5365690000000 1.0
C      1  0.4451940000000  0.4759320000000  0.4045350000000 1.0
C      1  0.5219630000000  0.5825570000000  0.4668770000000 1.0
C      1  0.5196890000000  0.4765540000000  0.6010270000000 1.0
C      1  0.5189420000000  0.5592850000000  0.4898820000000 1.0
C      1  0.4871710000000  0.4428990000000  0.5109420000000 1.0
C      1  0.3920670000000  0.5235600000000  0.5121930000000 1.0
C      1  0.5168430000000  0.5121240000000  0.3954260000000 1.0
C      1  0.4607980000000  0.4519640000000  0.4379490000000 1.0
C      1  0.5497380000000  0.5398820000000  0.5300920000000 1.0
C      1  0.4700220000000  0.4873020000000  0.5346820000000 1.0
C      1  0.4585260000000  0.5724490000000  0.5400760000000 1.0
C      1  0.5419920000000  0.5715850000000  0.5199070000000 1.0
C      1  0.4744660000000  0.4994250000000  0.4300560000000 1.0
C      1  0.5090640000000  0.4519930000000  0.5800360000000 1.0
C      1  0.4427990000000  0.4751110000000  0.4824920000000 1.0
C      1  0.4610800000000  0.5575990000000  0.4582380000000 1.0
C      1  0.5793340000000  0.4854830000000  0.4798740000000 1.0
C      1  0.4916850000000  0.4904770000000  0.4784560000000 1.0
C      1  0.4171640000000  0.5483490000000  0.4788410000000 1.0
C      1  0.5699460000000  0.4767550000000  0.5840480000000 1.0
C      1  0.5643980000000  0.4622590000000  0.5001470000000 1.0
C      1  0.4945480000000  0.4000040000000  0.4901010000000 1.0
C      1  0.4332720000000  0.5604470000000  0.5559440000000 1.0
C      1  0.4507930000000  0.5218940000000  0.5291580000000 1.0
C      1  0.5113890000000  0.5302910000000  0.4848260000000 1.0
C      1  0.4256480000000  0.5204610000000  0.5853460000000 1.0
C      1  0.4035580000000  0.4942320000000  0.5247440000000 1.0
C      1  0.4485560000000  0.5778070000000  0.5096100000000 1.0
C      1  0.4907550000000  0.5902030000000  0.5679540000000 1.0
C      1  0.5505700000000  0.4908890000000  0.5999860000000 1.0
C      1  0.5459120000000  0.4507720000000  0.4549220000000 1.0
C      1  0.4213680000000  0.4976270000000  0.4711230000000 1.0
C      1  0.4676790000000  0.3927770000000  0.4879140000000 1.0
C      1  0.4685360000000  0.5079090000000  0.4007290000000 1.0
C      1  0.5252060000000  0.4618440000000  0.4785930000000 1.0
C      1  0.4979510000000  0.5482330000000  0.5845520000000 1.0
C      1  0.5400320000000  0.5028550000000  0.4074150000000 1.0
C      1  0.4544520000000  0.4474620000000  0.5616140000000 1.0
C      1  0.4250820000000  0.5466110000000  0.5770930000000 1.0
END
