TITL C-3371502-3785-54 0.00144211509356502 125000 -801.599796700681 0 0 149 (C1) n - 1
REM
REM in /nfs/bkarasulu/CARBON/AIRSS/Generating-Clusters/AIREBO/with-SteepDescent/Only-C1/SD-CG-opt/Try1-1.4A-POS3A/HFTN-CG
REM
REM
REM
REM
REM
REM ./C.cell (11c1c37f851c82e70ff6c80c92926a4b)
REM
REM compiler GCC version 9.2.1 20190827 (Red Hat 9.2.1-1)
REM options -cpp -mtune=generic -march=x86-64 -g -O0 -fpre-include=/usr/include/finclude/math-vector-fortran.h
REM seed 2115793894 -1787607752 1383370646 1904490753 -1798253222 -34395175 -328864945 999075089 1244317067 1188447382 -269521157 377796938 -545627883 1668193383 1298681752 51294510 -1457978861 -830984598 -181622912 -584842582 -260228387 -1092674473 925251874 59628357 1935534695 -1698413412 -1046031895 -1869757123 987984679 -1599555687 -1652207732 504059655 -1667787568
REM
CELL 1.54180   50.00000   50.00000   50.00000   90.00000   90.00000   90.00000
LATT -1
SFAC C  
C      1  0.4850970000000  0.5984980000000  0.4336610000000 1.0
C      1  0.5219430000000  0.5885090000000  0.5402380000000 1.0
C      1  0.5190780000000  0.5176110000000  0.5538870000000 1.0
C      1  0.4830620000000  0.4372100000000  0.4753660000000 1.0
C      1  0.5062950000000  0.5548330000000  0.5609560000000 1.0
C      1  0.4529710000000  0.5815730000000  0.5443260000000 1.0
C      1  0.4437710000000  0.4389900000000  0.4566540000000 1.0
C      1  0.5386490000000  0.4317490000000  0.4469230000000 1.0
C      1  0.4380390000000  0.4958350000000  0.4903330000000 1.0
C      1  0.4742020000000  0.5277270000000  0.4931710000000 1.0
C      1  0.5805030000000  0.5549780000000  0.5325260000000 1.0
C      1  0.4620480000000  0.4669140000000  0.4538850000000 1.0
C      1  0.5537580000000  0.5174560000000  0.4489810000000 1.0
C      1  0.4517070000000  0.4957470000000  0.5763920000000 1.0
C      1  0.5612740000000  0.5871150000000  0.5464030000000 1.0
C      1  0.5573890000000  0.5228050000000  0.5274730000000 1.0
C      1  0.4014010000000  0.4975490000000  0.5176580000000 1.0
C      1  0.5522100000000  0.5035250000000  0.4999280000000 1.0
C      1  0.4487820000000  0.4444570000000  0.4237020000000 1.0
C      1  0.4641300000000  0.5231840000000  0.5550690000000 1.0
C      1  0.4601510000000  0.4752430000000  0.5542630000000 1.0
C      1  0.4466980000000  0.5582890000000  0.4381230000000 1.0
C      1  0.4788940000000  0.5643940000000  0.4782200000000 1.0
C      1  0.5395830000000  0.5638100000000  0.5950520000000 1.0
C      1  0.4992600000000  0.5537220000000  0.5166190000000 1.0
C      1  0.5344930000000  0.5567350000000  0.4196410000000 1.0
C      1  0.5094590000000  0.4175720000000  0.5831700000000 1.0
C      1  0.4952840000000  0.5142950000000  0.5114450000000 1.0
C      1  0.5215270000000  0.5407580000000  0.5862060000000 1.0
C      1  0.4495130000000  0.5272880000000  0.4244440000000 1.0
C      1  0.5403040000000  0.5942340000000  0.4496340000000 1.0
C      1  0.4169900000000  0.5110590000000  0.4683940000000 1.0
C      1  0.5480560000000  0.4602410000000  0.5871260000000 1.0
C      1  0.4278510000000  0.4684830000000  0.4787990000000 1.0
C      1  0.5403520000000  0.4963420000000  0.5404770000000 1.0
C      1  0.4924730000000  0.4602240000000  0.4443640000000 1.0
C      1  0.4653950000000  0.5807450000000  0.4282590000000 1.0
C      1  0.3951730000000  0.4633160000000  0.4849420000000 1.0
C      1  0.4866780000000  0.4200410000000  0.4507470000000 1.0
C      1  0.4695030000000  0.4647080000000  0.4127240000000 1.0
C      1  0.5531680000000  0.5714290000000  0.4379270000000 1.0
C      1  0.5263630000000  0.5253870000000  0.5032420000000 1.0
C      1  0.5233540000000  0.5072920000000  0.5850280000000 1.0
C      1  0.5374790000000  0.4908790000000  0.4549760000000 1.0
C      1  0.4310350000000  0.4299290000000  0.5520040000000 1.0
C      1  0.4235380000000  0.5201610000000  0.5279460000000 1.0
C      1  0.4812890000000  0.3833990000000  0.5018230000000 1.0
C      1  0.4215000000000  0.4765930000000  0.4487310000000 1.0
C      1  0.4966170000000  0.5074260000000  0.4427250000000 1.0
C      1  0.5362280000000  0.5104410000000  0.4203780000000 1.0
C      1  0.5632800000000  0.5548850000000  0.4585300000000 1.0
C      1  0.4911900000000  0.5057460000000  0.5613830000000 1.0
C      1  0.4730410000000  0.4032850000000  0.5212520000000 1.0
C      1  0.5046950000000  0.4536870000000  0.5674930000000 1.0
C      1  0.5612050000000  0.4738610000000  0.5269140000000 1.0
C      1  0.4773290000000  0.4301160000000  0.5069150000000 1.0
C      1  0.5113590000000  0.4592930000000  0.4093960000000 1.0
C      1  0.4854420000000  0.6240590000000  0.4237100000000 1.0
C      1  0.4818280000000  0.4297980000000  0.5700720000000 1.0
C      1  0.5391690000000  0.5361020000000  0.4734390000000 1.0
C      1  0.5763380000000  0.5011390000000  0.5769180000000 1.0
C      1  0.5204280000000  0.5592480000000  0.4569980000000 1.0
C      1  0.5180970000000  0.5385690000000  0.5334980000000 1.0
C      1  0.5878380000000  0.5133350000000  0.5156370000000 1.0
C      1  0.5381260000000  0.5668040000000  0.5608290000000 1.0
C      1  0.4308770000000  0.5639970000000  0.4648850000000 1.0
C      1  0.5729470000000  0.4863750000000  0.4853060000000 1.0
C      1  0.5606400000000  0.5506150000000  0.5073110000000 1.0
C      1  0.5455150000000  0.4155530000000  0.5236760000000 1.0
C      1  0.4838720000000  0.4802460000000  0.6069270000000 1.0
C      1  0.5465370000000  0.4602010000000  0.4995260000000 1.0
C      1  0.4511590000000  0.5525990000000  0.5620300000000 1.0
C      1  0.4487470000000  0.4647000000000  0.5153330000000 1.0
C      1  0.5432550000000  0.4448800000000  0.5278730000000 1.0
C      1  0.4907420000000  0.5888400000000  0.5334930000000 1.0
C      1  0.5250990000000  0.5953990000000  0.4800310000000 1.0
C      1  0.4820140000000  0.4837210000000  0.4741020000000 1.0
C      1  0.4137460000000  0.4439910000000  0.5262840000000 1.0
C      1  0.5102550000000  0.5371210000000  0.4332490000000 1.0
C      1  0.4727130000000  0.5143440000000  0.4066240000000 1.0
C      1  0.5138250000000  0.4532240000000  0.5385880000000 1.0
C      1  0.5601850000000  0.4667170000000  0.4625110000000 1.0
C      1  0.5069740000000  0.5900370000000  0.4516080000000 1.0
C      1  0.5329340000000  0.4502340000000  0.4727910000000 1.0
C      1  0.4549110000000  0.4422340000000  0.5605100000000 1.0
C      1  0.5759530000000  0.5281980000000  0.5778130000000 1.0
C      1  0.4334100000000  0.5768690000000  0.4963640000000 1.0
C      1  0.4310570000000  0.4684550000000  0.5423480000000 1.0
C      1  0.4783050000000  0.5728460000000  0.5652710000000 1.0
C      1  0.4253320000000  0.5317040000000  0.5591970000000 1.0
C      1  0.4613780000000  0.5062620000000  0.4747870000000 1.0
C      1  0.4595810000000  0.4866850000000  0.6035370000000 1.0
C      1  0.5068490000000  0.4258020000000  0.5232370000000 1.0
C      1  0.4023580000000  0.5434530000000  0.5183900000000 1.0
C      1  0.4530790000000  0.5368040000000  0.5254050000000 1.0
C      1  0.5041880000000  0.3908740000000  0.4857160000000 1.0
C      1  0.5114990000000  0.5994770000000  0.5102190000000 1.0
C      1  0.4927440000000  0.4869350000000  0.4016760000000 1.0
C      1  0.5681200000000  0.4687660000000  0.4296860000000 1.0
C      1  0.4540690000000  0.5528100000000  0.4953830000000 1.0
C      1  0.5610890000000  0.5423410000000  0.5550650000000 1.0
C      1  0.4105120000000  0.5407070000000  0.4700010000000 1.0
C      1  0.4081380000000  0.4389000000000  0.4969490000000 1.0
C      1  0.4361590000000  0.5931200000000  0.5236630000000 1.0
C      1  0.4795830000000  0.4924920000000  0.5323010000000 1.0
C      1  0.5592040000000  0.5891480000000  0.5211800000000 1.0
C      1  0.5106920000000  0.5593460000000  0.4891570000000 1.0
C      1  0.5065240000000  0.5177890000000  0.4055140000000 1.0
C      1  0.4074710000000  0.5566370000000  0.4957500000000 1.0
C      1  0.5113360000000  0.4986430000000  0.4720940000000 1.0
C      1  0.5945770000000  0.4719260000000  0.5050790000000 1.0
C      1  0.4732420000000  0.5607430000000  0.5294150000000 1.0
C      1  0.5767670000000  0.5456600000000  0.4831270000000 1.0
C      1  0.4357770000000  0.5016680000000  0.4407370000000 1.0
C      1  0.4996720000000  0.5304550000000  0.4749990000000 1.0
C      1  0.5299630000000  0.4800150000000  0.4264300000000 1.0
C      1  0.5242470000000  0.4858720000000  0.4999480000000 1.0
C      1  0.5311040000000  0.4057230000000  0.4478720000000 1.0
C      1  0.5397110000000  0.5734160000000  0.5000860000000 1.0
C      1  0.5488530000000  0.4890600000000  0.5731580000000 1.0
C      1  0.4223960000000  0.4249140000000  0.4781960000000 1.0
C      1  0.6057050000000  0.4811770000000  0.4768920000000 1.0
C      1  0.5850980000000  0.4893210000000  0.4250200000000 1.0
C      1  0.4675900000000  0.4925360000000  0.4322120000000 1.0
C      1  0.4479640000000  0.4975820000000  0.5208170000000 1.0
C      1  0.4558010000000  0.5317130000000  0.4575640000000 1.0
C      1  0.5799000000000  0.4411420000000  0.4692660000000 1.0
C      1  0.5960700000000  0.4885330000000  0.5629800000000 1.0
C      1  0.5054850000000  0.4590990000000  0.4732040000000 1.0
C      1  0.4829120000000  0.5475340000000  0.4504490000000 1.0
C      1  0.5835480000000  0.5106160000000  0.4442480000000 1.0
C      1  0.4257590000000  0.5109160000000  0.5773770000000 1.0
C      1  0.5051460000000  0.3994970000000  0.4578460000000 1.0
C      1  0.4693670000000  0.4071710000000  0.5479630000000 1.0
C      1  0.6004470000000  0.5087170000000  0.4670080000000 1.0
C      1  0.5225520000000  0.4010320000000  0.5411130000000 1.0
C      1  0.5184960000000  0.3960790000000  0.5670740000000 1.0
C      1  0.5008390000000  0.4819170000000  0.5816320000000 1.0
C      1  0.4007850000000  0.4746230000000  0.5342550000000 1.0
C      1  0.3983030000000  0.4928170000000  0.4902520000000 1.0
C      1  0.4881380000000  0.4376870000000  0.4216420000000 1.0
C      1  0.4533970000000  0.4480090000000  0.4880060000000 1.0
C      1  0.5226230000000  0.4042470000000  0.5021970000000 1.0
C      1  0.5286840000000  0.4418380000000  0.5847190000000 1.0
C      1  0.5914900000000  0.4851980000000  0.5331850000000 1.0
C      1  0.5711180000000  0.4048290000000  0.5223690000000 1.0
C      1  0.5934980000000  0.5245040000000  0.4893870000000 1.0
C      1  0.5417660000000  0.4495620000000  0.4220030000000 1.0
C      1  0.5117520000000  0.4819370000000  0.5289690000000 1.0
END
