TITL C-3371504-3437-51 -0.000769980947744943 125000 -427.587566445489 0 0 81 (C1) n - 1
REM
REM in /nfs/bkarasulu/CARBON/AIRSS/Generating-Clusters/AIREBO/with-SteepDescent/Only-C1/SD-CG-opt/Try1-1.4A-POS3A/HFTN-CG
REM
REM
REM
REM
REM
REM ./C.cell (11c1c37f851c82e70ff6c80c92926a4b)
REM
REM compiler GCC version 9.2.1 20190827 (Red Hat 9.2.1-1)
REM options -cpp -mtune=generic -march=x86-64 -g -O0 -fpre-include=/usr/include/finclude/math-vector-fortran.h
REM seed 1752481806 -1385466332 -1757871087 -458878830 -1418044233 -311011133 -1750558152 -141267276 -1553095839 1493153496 -1123097365 1058258353 1128634578 -626386858 1654235285 -1213760635 1653418943 1762664327 1734226434 -1598066705 -444328055 1326327821 -1064103920 -1204022380 1293771332 -966667913 8817261 -2025358854 -52477099 302925481 -806310241 330604743 -668818406
REM
CELL 1.54180   50.00000   50.00000   50.00000   90.00000   90.00000   90.00000
LATT -1
SFAC C  
C      1  0.4968930000000  0.4518620000000  0.4591600000000 1.0
C      1  0.4421260000000  0.5293710000000  0.4838770000000 1.0
C      1  0.4528620000000  0.4818970000000  0.4863220000000 1.0
C      1  0.4906170000000  0.4657310000000  0.4088250000000 1.0
C      1  0.4969870000000  0.4320400000000  0.5270380000000 1.0
C      1  0.5356430000000  0.5606620000000  0.5064520000000 1.0
C      1  0.5266570000000  0.4564300000000  0.4596640000000 1.0
C      1  0.4526070000000  0.4795350000000  0.4426830000000 1.0
C      1  0.5067140000000  0.5504010000000  0.5544530000000 1.0
C      1  0.5129400000000  0.5357570000000  0.4540730000000 1.0
C      1  0.4881050000000  0.5023320000000  0.4515220000000 1.0
C      1  0.5405900000000  0.4284210000000  0.5004230000000 1.0
C      1  0.5636390000000  0.5420400000000  0.5068780000000 1.0
C      1  0.4947710000000  0.5865230000000  0.4932740000000 1.0
C      1  0.4621400000000  0.5236800000000  0.5765400000000 1.0
C      1  0.5219620000000  0.5055060000000  0.4522840000000 1.0
C      1  0.5407680000000  0.5213300000000  0.5089990000000 1.0
C      1  0.4417160000000  0.5652700000000  0.5317030000000 1.0
C      1  0.5427000000000  0.4760450000000  0.4823370000000 1.0
C      1  0.5381690000000  0.4859970000000  0.4356740000000 1.0
C      1  0.4754720000000  0.4301310000000  0.4749900000000 1.0
C      1  0.5588230000000  0.4208810000000  0.5529860000000 1.0
C      1  0.4734180000000  0.5713660000000  0.4533940000000 1.0
C      1  0.5360020000000  0.4086890000000  0.4746300000000 1.0
C      1  0.4659390000000  0.5467600000000  0.4945210000000 1.0
C      1  0.4514780000000  0.4532150000000  0.4680730000000 1.0
C      1  0.4564010000000  0.5059650000000  0.4637340000000 1.0
C      1  0.5357780000000  0.4864310000000  0.4094200000000 1.0
C      1  0.4670470000000  0.4793640000000  0.5537080000000 1.0
C      1  0.5695610000000  0.4832450000000  0.5242460000000 1.0
C      1  0.5177910000000  0.5776420000000  0.4318490000000 1.0
C      1  0.4908900000000  0.4706710000000  0.5758640000000 1.0
C      1  0.4638520000000  0.5512260000000  0.5245300000000 1.0
C      1  0.5885620000000  0.5016410000000  0.5129070000000 1.0
C      1  0.4247970000000  0.5116970000000  0.5320390000000 1.0
C      1  0.4839180000000  0.5331600000000  0.5377280000000 1.0
C      1  0.4837800000000  0.4715420000000  0.4377470000000 1.0
C      1  0.5123540000000  0.5218260000000  0.5273180000000 1.0
C      1  0.5062010000000  0.4447310000000  0.5576350000000 1.0
C      1  0.4863100000000  0.4192810000000  0.5030360000000 1.0
C      1  0.5593090000000  0.4917530000000  0.5492000000000 1.0
C      1  0.4683990000000  0.5068430000000  0.5030960000000 1.0
C      1  0.5583490000000  0.4623840000000  0.4488540000000 1.0
C      1  0.5843450000000  0.4665260000000  0.4394120000000 1.0
C      1  0.5512260000000  0.4686220000000  0.5087660000000 1.0
C      1  0.5401510000000  0.5170060000000  0.5425420000000 1.0
C      1  0.5010950000000  0.4767140000000  0.5246570000000 1.0
C      1  0.5438240000000  0.4291900000000  0.5342610000000 1.0
C      1  0.4748230000000  0.4469070000000  0.5481080000000 1.0
C      1  0.5593640000000  0.4406730000000  0.4752620000000 1.0
C      1  0.4360730000000  0.5295050000000  0.4499920000000 1.0
C      1  0.4736150000000  0.5727360000000  0.4806380000000 1.0
C      1  0.4951950000000  0.5560320000000  0.4363310000000 1.0
C      1  0.5392530000000  0.5027630000000  0.5721960000000 1.0
C      1  0.5149830000000  0.4773500000000  0.5539880000000 1.0
C      1  0.5874400000000  0.5292870000000  0.5079470000000 1.0
C      1  0.5337910000000  0.5049120000000  0.4819690000000 1.0
C      1  0.5081160000000  0.5003290000000  0.5780880000000 1.0
C      1  0.5172200000000  0.5695230000000  0.5317460000000 1.0
C      1  0.5228730000000  0.5788550000000  0.4807210000000 1.0
C      1  0.4714210000000  0.4613150000000  0.5183680000000 1.0
C      1  0.4213590000000  0.5292090000000  0.5106440000000 1.0
C      1  0.4917200000000  0.5291860000000  0.4924510000000 1.0
C      1  0.4786420000000  0.5010500000000  0.5324550000000 1.0
C      1  0.5005800000000  0.5898170000000  0.5214970000000 1.0
C      1  0.4936580000000  0.5269330000000  0.5758560000000 1.0
C      1  0.4409650000000  0.4654740000000  0.5206400000000 1.0
C      1  0.5063470000000  0.5560550000000  0.5879770000000 1.0
C      1  0.5076910000000  0.5004860000000  0.5012490000000 1.0
C      1  0.4297930000000  0.4816830000000  0.5394630000000 1.0
C      1  0.4920630000000  0.4853750000000  0.4796540000000 1.0
C      1  0.4180590000000  0.5560570000000  0.5201710000000 1.0
C      1  0.5232290000000  0.4517290000000  0.5180900000000 1.0
C      1  0.4316900000000  0.4556540000000  0.4427990000000 1.0
C      1  0.5292910000000  0.5875800000000  0.4521590000000 1.0
C      1  0.4465880000000  0.5046170000000  0.5575710000000 1.0
C      1  0.4842280000000  0.4574670000000  0.4902220000000 1.0
C      1  0.5157190000000  0.5464650000000  0.4827680000000 1.0
C      1  0.5406270000000  0.4268410000000  0.4510460000000 1.0
C      1  0.4265780000000  0.4624170000000  0.4955840000000 1.0
C      1  0.4833270000000  0.5263850000000  0.4290250000000 1.0
END
