TITL C-3371511-147-1 4.13749944299134e-09 125000 -22.3962976963472 0 0 5 (C2) n - 1
REM
REM in /nfs/bkarasulu/CARBON/AIRSS/Generating-Clusters/AIREBO/with-SteepDescent/Only-C1/SD-CG-opt/Try1-1.4A-POS3A/HFTN-CG
REM
REM
REM
REM
REM
REM ./C.cell (11c1c37f851c82e70ff6c80c92926a4b)
REM
REM compiler GCC version 9.2.1 20190827 (Red Hat 9.2.1-1)
REM options -cpp -mtune=generic -march=x86-64 -g -O0 -fpre-include=/usr/include/finclude/math-vector-fortran.h
REM seed -489760763 21351824 1858859455 -1521698587 684897153 857294498 444362350 -1211450660 1880376649 -1907655149 771298137 -1966811595 1081248063 -294018108 -358783150 2127691081 -1605821768 920993196 -447520536 403490001 2016208648 597529936 -531223935 1187473529 -1893091789 1765437467 -1415860409 -1809956336 735202732 -491964265 -1723140231 -743609855 1314349711
REM
CELL 1.54180   50.00000   50.00000   50.00000   90.00000   90.00000   90.00000
LATT -1
SFAC C  
C      1  0.4941270000000  0.5152020000000  0.4622180000000 1.0
C      1  0.4936100000000  0.5074330000000  0.4871590000000 1.0
C      1  0.5227680000000  0.4732900000000  0.5214770000000 1.0
C      1  0.4823210000000  0.5120430000000  0.5170610000000 1.0
C      1  0.5071740000000  0.4920330000000  0.5120840000000 1.0
END
