TITL C-3371506-7941-36 -0.000787328887211756 125000 -558.412881695013 0 0 106 (C1) n - 1
REM
REM in /nfs/bkarasulu/CARBON/AIRSS/Generating-Clusters/AIREBO/with-SteepDescent/Only-C1/SD-CG-opt/Try1-1.4A-POS3A/HFTN-CG
REM
REM
REM
REM
REM
REM ./C.cell (11c1c37f851c82e70ff6c80c92926a4b)
REM
REM compiler GCC version 9.2.1 20190827 (Red Hat 9.2.1-1)
REM options -cpp -mtune=generic -march=x86-64 -g -O0 -fpre-include=/usr/include/finclude/math-vector-fortran.h
REM seed -1783103186 1829413209 25640505 650844871 -551788370 -813115511 -1672396443 222519646 1861402825 1725713078 -1568918640 878136317 400407547 1761126705 -812484874 1562246856 2115428012 -137195344 -1942853638 655721647 2145653914 -1587716678 -116926723 354099826 1088890788 -168611031 1098569976 -1154381339 -617547693 -1470098645 -1539955547 -1375076836 611313172
REM
CELL 1.54180   50.00000   50.00000   50.00000   90.00000   90.00000   90.00000
LATT -1
SFAC C  
C      1  0.4918790000000  0.4555670000000  0.4777890000000 1.0
C      1  0.4630260000000  0.5771110000000  0.5299400000000 1.0
C      1  0.5614490000000  0.5578750000000  0.4475010000000 1.0
C      1  0.4806350000000  0.3832310000000  0.4991390000000 1.0
C      1  0.5736990000000  0.5609610000000  0.5003660000000 1.0
C      1  0.4391430000000  0.5456070000000  0.5243620000000 1.0
C      1  0.4839210000000  0.4523060000000  0.4210240000000 1.0
C      1  0.5733930000000  0.4774410000000  0.4809420000000 1.0
C      1  0.5676050000000  0.5401520000000  0.5162080000000 1.0
C      1  0.4944060000000  0.5025540000000  0.5275880000000 1.0
C      1  0.5102810000000  0.5266540000000  0.4803310000000 1.0
C      1  0.4513420000000  0.4338130000000  0.5645250000000 1.0
C      1  0.5803120000000  0.4832670000000  0.5067880000000 1.0
C      1  0.5356460000000  0.5772890000000  0.4710740000000 1.0
C      1  0.5046190000000  0.4326350000000  0.4222400000000 1.0
C      1  0.5243560000000  0.4511260000000  0.4880440000000 1.0
C      1  0.4720480000000  0.5418720000000  0.5693510000000 1.0
C      1  0.5659070000000  0.4677490000000  0.5235440000000 1.0
C      1  0.4443420000000  0.4820980000000  0.4721610000000 1.0
C      1  0.4440460000000  0.5291950000000  0.4807980000000 1.0
C      1  0.4450150000000  0.4302810000000  0.5372520000000 1.0
C      1  0.5086200000000  0.4724930000000  0.5350580000000 1.0
C      1  0.5438510000000  0.5582680000000  0.5469880000000 1.0
C      1  0.5342060000000  0.5220720000000  0.4570120000000 1.0
C      1  0.5405070000000  0.4867390000000  0.5728670000000 1.0
C      1  0.4714950000000  0.4774210000000  0.5567100000000 1.0
C      1  0.4340480000000  0.4792550000000  0.4448010000000 1.0
C      1  0.5359420000000  0.4913050000000  0.4209170000000 1.0
C      1  0.5112950000000  0.4073590000000  0.4692150000000 1.0
C      1  0.5399690000000  0.5299900000000  0.5285080000000 1.0
C      1  0.5071300000000  0.5326830000000  0.5369420000000 1.0
C      1  0.4963300000000  0.5880280000000  0.4956840000000 1.0
C      1  0.4355500000000  0.5736730000000  0.5416290000000 1.0
C      1  0.5572100000000  0.5431540000000  0.4234680000000 1.0
C      1  0.4642990000000  0.5047520000000  0.4777500000000 1.0
C      1  0.4392640000000  0.4902440000000  0.5211640000000 1.0
C      1  0.4986220000000  0.4390030000000  0.5814600000000 1.0
C      1  0.5138170000000  0.5972550000000  0.5148940000000 1.0
C      1  0.4509510000000  0.5844000000000  0.4692160000000 1.0
C      1  0.4833140000000  0.5567430000000  0.5418700000000 1.0
C      1  0.5469850000000  0.4502400000000  0.4626800000000 1.0
C      1  0.4440500000000  0.5338330000000  0.5675310000000 1.0
C      1  0.4854330000000  0.4714620000000  0.4483970000000 1.0
C      1  0.4911020000000  0.4788950000000  0.6002390000000 1.0
C      1  0.4593590000000  0.4457120000000  0.4762790000000 1.0
C      1  0.5333040000000  0.4670300000000  0.5156480000000 1.0
C      1  0.4991470000000  0.4401740000000  0.5301990000000 1.0
C      1  0.4864250000000  0.4329440000000  0.5025980000000 1.0
C      1  0.5411900000000  0.5202470000000  0.4291980000000 1.0
C      1  0.5616510000000  0.4400520000000  0.5305570000000 1.0
C      1  0.4423710000000  0.4652210000000  0.4983520000000 1.0
C      1  0.4864570000000  0.4845810000000  0.4929890000000 1.0
C      1  0.4138150000000  0.5268890000000  0.5192670000000 1.0
C      1  0.4298920000000  0.5127820000000  0.5448440000000 1.0
C      1  0.5284110000000  0.5762930000000  0.5305880000000 1.0
C      1  0.5575750000000  0.5127250000000  0.4714530000000 1.0
C      1  0.4617090000000  0.5050470000000  0.5504920000000 1.0
C      1  0.5185550000000  0.4959490000000  0.4923800000000 1.0
C      1  0.4977900000000  0.5611490000000  0.4244410000000 1.0
C      1  0.4917380000000  0.5638240000000  0.4504760000000 1.0
C      1  0.4259070000000  0.4127930000000  0.5283120000000 1.0
C      1  0.5791900000000  0.5171500000000  0.4858070000000 1.0
C      1  0.5190890000000  0.4757420000000  0.4460170000000 1.0
C      1  0.4483740000000  0.5564200000000  0.4971570000000 1.0
C      1  0.3923490000000  0.5052320000000  0.5079020000000 1.0
C      1  0.5546750000000  0.4651250000000  0.4329060000000 1.0
C      1  0.5430270000000  0.4358160000000  0.5565370000000 1.0
C      1  0.4132200000000  0.5203860000000  0.4858330000000 1.0
C      1  0.4488250000000  0.5253890000000  0.4473070000000 1.0
C      1  0.5279620000000  0.4552600000000  0.5757020000000 1.0
C      1  0.4661460000000  0.5853680000000  0.4990120000000 1.0
C      1  0.5094580000000  0.5610960000000  0.4795840000000 1.0
C      1  0.4626930000000  0.4952310000000  0.4391350000000 1.0
C      1  0.4945770000000  0.4223730000000  0.5578010000000 1.0
C      1  0.4884320000000  0.5387780000000  0.4117850000000 1.0
C      1  0.5871960000000  0.5132670000000  0.5185070000000 1.0
C      1  0.5574830000000  0.5357830000000  0.5637620000000 1.0
C      1  0.5273020000000  0.4477570000000  0.4285240000000 1.0
C      1  0.4888400000000  0.5139160000000  0.4598220000000 1.0
C      1  0.5257080000000  0.4241850000000  0.5335300000000 1.0
C      1  0.4778970000000  0.5497570000000  0.4851830000000 1.0
C      1  0.5129770000000  0.5561780000000  0.5130570000000 1.0
C      1  0.5042720000000  0.5311020000000  0.5706940000000 1.0
C      1  0.4907380000000  0.4716970000000  0.4007850000000 1.0
C      1  0.5479900000000  0.5878420000000  0.4440490000000 1.0
C      1  0.5356340000000  0.5203460000000  0.5799470000000 1.0
C      1  0.4663350000000  0.5303910000000  0.5314040000000 1.0
C      1  0.5023420000000  0.4762750000000  0.5680720000000 1.0
C      1  0.4895230000000  0.5117210000000  0.4263190000000 1.0
C      1  0.5721370000000  0.5158940000000  0.5474890000000 1.0
C      1  0.5350850000000  0.4200310000000  0.4654390000000 1.0
C      1  0.4920830000000  0.4062130000000  0.4897150000000 1.0
C      1  0.4472980000000  0.4282110000000  0.4612410000000 1.0
C      1  0.5413980000000  0.4828170000000  0.4706960000000 1.0
C      1  0.4608480000000  0.5559150000000  0.4564180000000 1.0
C      1  0.5664790000000  0.5730560000000  0.4760210000000 1.0
C      1  0.4712260000000  0.4781330000000  0.5227090000000 1.0
C      1  0.5506940000000  0.4962530000000  0.5469380000000 1.0
C      1  0.4718000000000  0.4510880000000  0.5735720000000 1.0
C      1  0.4167770000000  0.5253610000000  0.4525540000000 1.0
C      1  0.4858870000000  0.5255250000000  0.5040020000000 1.0
C      1  0.5057970000000  0.4918720000000  0.4109750000000 1.0
C      1  0.4615540000000  0.4459720000000  0.5173810000000 1.0
C      1  0.5411620000000  0.4288280000000  0.5078060000000 1.0
C      1  0.5076730000000  0.5039920000000  0.5870360000000 1.0
C      1  0.5334950000000  0.4997930000000  0.5198240000000 1.0
END
