TITL C-3371509-8222-14 286.336081834288 125000 -834.285469067896 0 0 154 (C1) n - 1
REM
REM in /nfs/bkarasulu/CARBON/AIRSS/Generating-Clusters/AIREBO/with-SteepDescent/Only-C1/SD-CG-opt/Try1-1.4A-POS3A/HFTN-CG
REM
REM
REM
REM
REM
REM ./C.cell (11c1c37f851c82e70ff6c80c92926a4b)
REM
REM compiler GCC version 9.2.1 20190827 (Red Hat 9.2.1-1)
REM options -cpp -mtune=generic -march=x86-64 -g -O0 -fpre-include=/usr/include/finclude/math-vector-fortran.h
REM seed -1171196374 1941544680 257508503 1477712633 -2136034052 -686135861 1967174690 -67900046 1007149827 -1318402882 1583600182 -598760565 1615441752 -1018002843 -1543840956 2091212630 -1212740537 -1582198933 1040120413 -2074395790 70015197 -585893377 407381201 1782423035 -494671924 -764837655 -2070666873 36879849 -2090460507 -238182874 -1301767199 -1813642188 -572471266
REM
CELL 1.54180   50.00000   50.00000   50.00000   90.00000   90.00000   90.00000
LATT -1
SFAC C  
C      1  0.5917190000000  0.4820080000000  0.4688860000000 1.0
C      1  0.5543770000000  0.5204770000000  0.4125590000000 1.0
C      1  0.5089360000000  0.4691690000000  0.4951770000000 1.0
C      1  0.4338500000000  0.5105660000000  0.5630070000000 1.0
C      1  0.5480330000000  0.5535890000000  0.5285440000000 1.0
C      1  0.4419620000000  0.4814050000000  0.4716590000000 1.0
C      1  0.5473460000000  0.4654260000000  0.4821150000000 1.0
C      1  0.5098040000000  0.5067820000000  0.6132010000000 1.0
C      1  0.4997750000000  0.5466950000000  0.5456610000000 1.0
C      1  0.4798680000000  0.5605120000000  0.4128060000000 1.0
C      1  0.5075100000000  0.5021390000000  0.4051780000000 1.0
C      1  0.5488590000000  0.5614780000000  0.4447460000000 1.0
C      1  0.4139770000000  0.5303010000000  0.4750340000000 1.0
C      1  0.5579600000000  0.4910220000000  0.4263650000000 1.0
C      1  0.5858750000000  0.4640960000000  0.5153810000000 1.0
C      1  0.4991750000000  0.5826660000000  0.6053430000000 1.0
C      1  0.4779200000000  0.4614500000000  0.4142380000000 1.0
C      1  0.4492460000000  0.5919510000000  0.5121290000000 1.0
C      1  0.4257230000000  0.4351910000000  0.5243210000000 1.0
C      1  0.4469480000000  0.5470040000000  0.5312330000000 1.0
C      1  0.4580700000000  0.5055940000000  0.4579150000000 1.0
C      1  0.4075700000000  0.5690800000000  0.5093760000000 1.0
C      1  0.5832630000000  0.5400570000000  0.5551900000000 1.0
C      1  0.4911050000000  0.5792460000000  0.4860480000000 1.0
C      1  0.5501020000000  0.5280080000000  0.5739960000000 1.0
C      1  0.4038200000000  0.4723000000000  0.4954410000000 1.0
C      1  0.4060420000000  0.5163710000000  0.5165710000000 1.0
C      1  0.4311240000000  0.4597650000000  0.4477750000000 1.0
C      1  0.4655570000000  0.4437430000000  0.5841160000000 1.0
C      1  0.5226060000000  0.4491360000000  0.4098270000000 1.0
C      1  0.5473050000000  0.4673480000000  0.5307380000000 1.0
C      1  0.5170310000000  0.5457830000000  0.5161600000000 1.0
C      1  0.4707100000000  0.4329230000000  0.4109440000000 1.0
C      1  0.5788040000000  0.5008820000000  0.4514010000000 1.0
C      1  0.5197750000000  0.5378190000000  0.5708580000000 1.0
C      1  0.5797210000000  0.5658250000000  0.4920660000000 1.0
C      1  0.5232520000000  0.4302220000000  0.4663750000000 1.0
C      1  0.4215910000000  0.4973410000000  0.5349580000000 1.0
C      1  0.4255440000000  0.5414240000000  0.5053910000000 1.0
C      1  0.4344960000000  0.4361710000000  0.4954110000000 1.0
C      1  0.5836680000000  0.4336930000000  0.4841500000000 1.0
C      1  0.4918870000000  0.4093780000000  0.4531240000000 1.0
C      1  0.5069810000000  0.5553120000000  0.4065410000000 1.0
C      1  0.4981220000000  0.5426780000000  0.4715760000000 1.0
C      1  0.5873590000000  0.5356140000000  0.4999440000000 1.0
C      1  0.4964030000000  0.5727210000000  0.4557000000000 1.0
C      1  0.5095120000000  0.4630990000000  0.5683960000000 1.0
C      1  0.5044670000000  0.4920590000000  0.5544110000000 1.0
C      1  0.3974970000000  0.5033340000000  0.4876270000000 1.0
C      1  0.4217940000000  0.5091850000000  0.4298920000000 1.0
C      1  0.4991490000000  0.4014030000000  0.4840740000000 1.0
C      1  0.4499470000000  0.4663200000000  0.4954180000000 1.0
C      1  0.5245240000000  0.5265530000000  0.4043830000000 1.0
C      1  0.4729620000000  0.5033100000000  0.5605390000000 1.0
C      1  0.4687550000000  0.4520130000000  0.4587690000000 1.0
C      1  0.5342720000000  0.4904710000000  0.5966690000000 1.0
C      1  0.5533890000000  0.5376700000000  0.5017250000000 1.0
C      1  0.4221990000000  0.5913190000000  0.5163480000000 1.0
C      1  0.5305660000000  0.5756300000000  0.5640170000000 1.0
C      1  0.4883010000000  0.4855780000000  0.5252040000000 1.0
C      1  0.4756500000000  0.5773670000000  0.4345790000000 1.0
C      1  0.4630490000000  0.4839800000000  0.4101930000000 1.0
C      1  0.4946500000000  0.5073640000000  0.4998820000000 1.0
C      1  0.5730030000000  0.4581350000000  0.4670400000000 1.0
C      1  0.4151650000000  0.4526780000000  0.4771750000000 1.0
C      1  0.4661700000000  0.5335070000000  0.4171810000000 1.0
C      1  0.4402270000000  0.4580060000000  0.5805530000000 1.0
C      1  0.4694310000000  0.4212010000000  0.5377280000000 1.0
C      1  0.5306880000000  0.4944610000000  0.4886010000000 1.0
C      1  0.5103340000000  0.5790580000000  0.5140890000000 1.0
C      1  0.4805130000000  0.5433800000000  0.5740320000000 1.0
C      1  0.5692810000000  0.5216770000000  0.4672940000000 1.0
C      1  0.4747250000000  0.5660230000000  0.5373380000000 1.0
C      1  0.4350790000000  0.5736360000000  0.4596310000000 1.0
C      1  0.5469910000000  0.4317040000000  0.5532870000000 1.0
C      1  0.5992800000000  0.5131890000000  0.5113700000000 1.0
C      1  0.5001310000000  0.4286990000000  0.4088300000000 1.0
C      1  0.5627650000000  0.5762240000000  0.5129750000000 1.0
C      1  0.5347420000000  0.4511040000000  0.5079740000000 1.0
C      1  0.5371680000000  0.5789190000000  0.4723720000000 1.0
C      1  0.5847810000000  0.5088320000000  0.5418200000000 1.0
C      1  0.5232310000000  0.5837200000000  0.4424930000000 1.0
C      1  0.5399140000000  0.4586330000000  0.6071890000000 1.0
C      1  0.4462320000000  0.5557530000000  0.4825190000000 1.0
C      1  0.4324170000000  0.5590020000000  0.5589560000000 1.0
C      1  0.4972760000000  0.5091540000000  0.4658660000000 1.0
C      1  0.4690730000000  0.5656070000000  0.5038090000000 1.0
C      1  0.5662610000000  0.5444810000000  0.4209870000000 1.0
C      1  0.4887060000000  0.5919050000000  0.5447830000000 1.0
C      1  0.4515630000000  0.4358190000000  0.4369750000000 1.0
C      1  0.5627890000000  0.4592560000000  0.4377630000000 1.0
C      1  0.4977950000000  0.4666080000000  0.4357930000000 1.0
C      1  0.4340440000000  0.4631400000000  0.5515220000000 1.0
C      1  0.4773870000000  0.5331670000000  0.5097710000000 1.0
C      1  0.5232280000000  0.5123360000000  0.5165540000000 1.0
C      1  0.4510010000000  0.4128220000000  0.4852170000000 1.0
C      1  0.4108860000000  0.4655590000000  0.5280380000000 1.0
C      1  0.5693870000000  0.5495060000000  0.4671060000000 1.0
C      1  0.5454490000000  0.5980140000000  0.5158650000000 1.0
C      1  0.5223880000000  0.5430300000000  0.4339920000000 1.0
C      1  0.4425360000000  0.4194380000000  0.5385180000000 1.0
C      1  0.4986160000000  0.4131800000000  0.5221960000000 1.0
C      1  0.4873390000000  0.4635740000000  0.5906220000000 1.0
C      1  0.5664590000000  0.4917470000000  0.5188300000000 1.0
C      1  0.5050190000000  0.5658700000000  0.5811360000000 1.0
C      1  0.4483750000000  0.4883470000000  0.5789770000000 1.0
C      1  0.4849880000000  0.4322520000000  0.4773170000000 1.0
C      1  0.4617410000000  0.5165900000000  0.5350020000000 1.0
C      1  0.5603350000000  0.4770780000000  0.5806740000000 1.0
C      1  0.4517030000000  0.5886530000000  0.4433020000000 1.0
C      1  0.5371260000000  0.4003960000000  0.4650050000000 1.0
C      1  0.4581170000000  0.4114380000000  0.4568110000000 1.0
C      1  0.4658480000000  0.5327230000000  0.4716820000000 1.0
C      1  0.4773400000000  0.4928870000000  0.5926070000000 1.0
C      1  0.5412910000000  0.4429240000000  0.4331360000000 1.0
C      1  0.4779450000000  0.4553490000000  0.4973550000000 1.0
C      1  0.5228950000000  0.4905230000000  0.4557390000000 1.0
C      1  0.5224290000000  0.5936480000000  0.5405390000000 1.0
C      1  0.4341500000000  0.5350820000000  0.4284210000000 1.0
C      1  0.5729130000000  0.4657370000000  0.5530800000000 1.0
C      1  0.4931260000000  0.5257480000000  0.4364630000000 1.0
C      1  0.5041360000000  0.6073730000000  0.4946060000000 1.0
C      1  0.5012060000000  0.4203030000000  0.5614370000000 1.0
C      1  0.4615070000000  0.4698400000000  0.5391410000000 1.0
C      1  0.4983170000000  0.4530940000000  0.5244850000000 1.0
C      1  0.4787460000000  0.5062490000000  0.4048270000000 1.0
C      1  0.4475670000000  0.5360750000000  0.5694750000000 1.0
C      1  0.5275390000000  0.5505600000000  0.4841730000000 1.0
C      1  0.4834910000000  0.5238170000000  0.6000240000000 1.0
C      1  0.4177220000000  0.5002370000000  0.4612360000000 1.0
C      1  0.5997230000000  0.4804770000000  0.5518250000000 1.0
C      1  0.5230380000000  0.4204730000000  0.4989660000000 1.0
C      1  0.5244970000000  0.4163950000000  0.5442060000000 1.0
C      1  0.5377860000000  0.4526150000000  0.5736570000000 1.0
C      1  0.5592560000000  0.5078360000000  0.4938880000000 1.0
C      1  0.5993220000000  0.4869920000000  0.4968580000000 1.0
C      1  0.5727620000000  0.4226710000000  0.5066830000000 1.0
C      1  0.4494660000000  0.4906890000000  0.5166820000000 1.0
C      1  0.5512610000000  0.4059070000000  0.5040110000000 1.0
C      1  0.4495000000000  0.5184500000000  0.4970520000000 1.0
C      1  0.5327100000000  0.4957270000000  0.5398330000000 1.0
C      1  0.5124140000000  0.4581900000000  0.4641350000000 1.0
C      1  0.4437480000000  0.4874670000000  0.4326090000000 1.0
C      1  0.4226960000000  0.5491460000000  0.4508940000000 1.0
C      1  0.5178810000000  0.4182910000000  0.4349880000000 1.0
C      1  0.5258580000000  0.4801180000000  0.4234950000000 1.0
C      1  0.4826330000000  0.4478610000000  0.5541960000000 1.0
C      1  0.4795820000000  0.4811200000000  0.4583120000000 1.0
C      1  0.5332960000000  0.6023900000000  0.4912180000000 1.0
C      1  0.5566060000000  0.5025370000000  0.5597850000000 1.0
C      1  0.5743080000000  0.4381530000000  0.5340800000000 1.0
C      1  0.5143500000000  0.5093240000000  0.5795380000000 1.0
C      1  0.5532020000000  0.5556710000000  0.5581310000000 1.0
C      1  0.4726260000000  0.4038010000000  0.5023510000000 1.0
END
