TITL C-3371504-3437-74 0.000109077998904015 125000 -811.559666849803 0 0 151 (C1) n - 1
REM
REM in /nfs/bkarasulu/CARBON/AIRSS/Generating-Clusters/AIREBO/with-SteepDescent/Only-C1/SD-CG-opt/Try1-1.4A-POS3A/HFTN-CG
REM
REM
REM
REM
REM
REM ./C.cell (11c1c37f851c82e70ff6c80c92926a4b)
REM
REM compiler GCC version 9.2.1 20190827 (Red Hat 9.2.1-1)
REM options -cpp -mtune=generic -march=x86-64 -g -O0 -fpre-include=/usr/include/finclude/math-vector-fortran.h
REM seed 1447925339 1247509605 1641579236 367584176 806885176 -1773143079 -225001612 2027059223 -1218987719 -1278326749 -1855453995 1817156174 1779848418 -328795045 934117002 -1988681644 -1475005526 -1255187727 620479447 315798437 -249282325 -2035923257 -306132848 1375870049 -1551251791 1370944355 -1852896239 -1623735147 -1559253106 1670023973 657079919 920705062 2074842399
REM
CELL 1.54180   50.00000   50.00000   50.00000   90.00000   90.00000   90.00000
LATT -1
SFAC C  
C      1  0.4425530000000  0.4357590000000  0.5779550000000 1.0
C      1  0.4916050000000  0.4338280000000  0.4331700000000 1.0
C      1  0.5252650000000  0.5866490000000  0.4288810000000 1.0
C      1  0.5575560000000  0.5265040000000  0.5009320000000 1.0
C      1  0.4845090000000  0.5795220000000  0.5539490000000 1.0
C      1  0.4765090000000  0.4977470000000  0.4479520000000 1.0
C      1  0.4294140000000  0.4567150000000  0.5814990000000 1.0
C      1  0.4792200000000  0.5319240000000  0.5173660000000 1.0
C      1  0.4614020000000  0.4986080000000  0.4195570000000 1.0
C      1  0.5154490000000  0.5002500000000  0.5445750000000 1.0
C      1  0.5762050000000  0.4613710000000  0.4855280000000 1.0
C      1  0.4792560000000  0.4927500000000  0.5252650000000 1.0
C      1  0.4629640000000  0.5382660000000  0.4216470000000 1.0
C      1  0.5508670000000  0.5552270000000  0.4022760000000 1.0
C      1  0.5425270000000  0.4928490000000  0.5566320000000 1.0
C      1  0.4134620000000  0.4827620000000  0.4561780000000 1.0
C      1  0.5599580000000  0.4691550000000  0.4356470000000 1.0
C      1  0.4084510000000  0.5336180000000  0.5356790000000 1.0
C      1  0.4097560000000  0.4242520000000  0.4497960000000 1.0
C      1  0.4742220000000  0.4686000000000  0.4592120000000 1.0
C      1  0.4950910000000  0.5945730000000  0.4377980000000 1.0
C      1  0.4271370000000  0.5529390000000  0.5415000000000 1.0
C      1  0.5364300000000  0.5940180000000  0.4593210000000 1.0
C      1  0.4725530000000  0.5010930000000  0.4933370000000 1.0
C      1  0.5441690000000  0.4759530000000  0.5271340000000 1.0
C      1  0.4987620000000  0.5359700000000  0.5796490000000 1.0
C      1  0.5131030000000  0.5611650000000  0.4999330000000 1.0
C      1  0.5909200000000  0.5202470000000  0.5355780000000 1.0
C      1  0.4533010000000  0.5138520000000  0.5307740000000 1.0
C      1  0.4299530000000  0.4587180000000  0.4385670000000 1.0
C      1  0.5281410000000  0.4151160000000  0.4695750000000 1.0
C      1  0.4738630000000  0.5536930000000  0.4690070000000 1.0
C      1  0.5107200000000  0.5990410000000  0.5444490000000 1.0
C      1  0.5687830000000  0.4557350000000  0.5151680000000 1.0
C      1  0.5758270000000  0.5462990000000  0.5345690000000 1.0
C      1  0.4527410000000  0.4744860000000  0.4920070000000 1.0
C      1  0.4469420000000  0.4876590000000  0.6010080000000 1.0
C      1  0.4610110000000  0.4261490000000  0.4990340000000 1.0
C      1  0.5005760000000  0.4514310000000  0.4592740000000 1.0
C      1  0.5423690000000  0.5906280000000  0.5012050000000 1.0
C      1  0.5191480000000  0.4622290000000  0.5201900000000 1.0
C      1  0.5444290000000  0.5519820000000  0.4730630000000 1.0
C      1  0.5834310000000  0.5535610000000  0.4812670000000 1.0
C      1  0.4971340000000  0.4673660000000  0.4984700000000 1.0
C      1  0.4915580000000  0.5637760000000  0.5810810000000 1.0
C      1  0.5536010000000  0.4917050000000  0.4151500000000 1.0
C      1  0.5445970000000  0.4493160000000  0.4821070000000 1.0
C      1  0.5063870000000  0.4567220000000  0.5483410000000 1.0
C      1  0.4947190000000  0.4311220000000  0.5900950000000 1.0
C      1  0.4253480000000  0.5319650000000  0.4553970000000 1.0
C      1  0.5721950000000  0.5175500000000  0.4050580000000 1.0
C      1  0.5243470000000  0.5581320000000  0.4472300000000 1.0
C      1  0.4511990000000  0.5761790000000  0.5478800000000 1.0
C      1  0.4949600000000  0.5490530000000  0.4427290000000 1.0
C      1  0.5505390000000  0.4121700000000  0.4953050000000 1.0
C      1  0.4041240000000  0.4939480000000  0.4865030000000 1.0
C      1  0.6042020000000  0.4890270000000  0.4675780000000 1.0
C      1  0.4098410000000  0.5114990000000  0.5543580000000 1.0
C      1  0.5490820000000  0.5032660000000  0.4787180000000 1.0
C      1  0.5262850000000  0.5244360000000  0.4431040000000 1.0
C      1  0.4707710000000  0.5941340000000  0.5081670000000 1.0
C      1  0.4832780000000  0.5222500000000  0.4019320000000 1.0
C      1  0.4628320000000  0.5271690000000  0.4507790000000 1.0
C      1  0.5615410000000  0.4243320000000  0.5197620000000 1.0
C      1  0.4405300000000  0.4962230000000  0.4701260000000 1.0
C      1  0.5691950000000  0.4303870000000  0.5750520000000 1.0
C      1  0.5104850000000  0.4940630000000  0.4830400000000 1.0
C      1  0.4904230000000  0.5289250000000  0.4854010000000 1.0
C      1  0.5076330000000  0.5041090000000  0.5131800000000 1.0
C      1  0.6040820000000  0.5052320000000  0.4859660000000 1.0
C      1  0.4686760000000  0.4546260000000  0.5122000000000 1.0
C      1  0.4971350000000  0.5288610000000  0.5461040000000 1.0
C      1  0.4269350000000  0.4884550000000  0.5734160000000 1.0
C      1  0.5521250000000  0.5440030000000  0.5498000000000 1.0
C      1  0.3760570000000  0.5354270000000  0.4630190000000 1.0
C      1  0.5155530000000  0.4519020000000  0.5868340000000 1.0
C      1  0.5467510000000  0.5234340000000  0.5955670000000 1.0
C      1  0.4478260000000  0.4636860000000  0.5368030000000 1.0
C      1  0.4737560000000  0.5620820000000  0.5026380000000 1.0
C      1  0.5335940000000  0.5293210000000  0.6237110000000 1.0
C      1  0.5147260000000  0.5155270000000  0.5988390000000 1.0
C      1  0.5876010000000  0.4341510000000  0.4585870000000 1.0
C      1  0.5066690000000  0.4997450000000  0.4512250000000 1.0
C      1  0.4070810000000  0.4846160000000  0.5190640000000 1.0
C      1  0.5555160000000  0.5199570000000  0.5680230000000 1.0
C      1  0.5388700000000  0.4754010000000  0.5836560000000 1.0
C      1  0.5141430000000  0.4286090000000  0.5211260000000 1.0
C      1  0.4899340000000  0.4828140000000  0.5548100000000 1.0
C      1  0.4742760000000  0.4325550000000  0.5683440000000 1.0
C      1  0.5675580000000  0.4574190000000  0.5869170000000 1.0
C      1  0.5231580000000  0.5252060000000  0.4769560000000 1.0
C      1  0.4059120000000  0.5235300000000  0.5032620000000 1.0
C      1  0.5461570000000  0.4769340000000  0.4649270000000 1.0
C      1  0.5240730000000  0.5483020000000  0.5388560000000 1.0
C      1  0.5413690000000  0.4415600000000  0.4284430000000 1.0
C      1  0.5013370000000  0.5457800000000  0.4139810000000 1.0
C      1  0.4931080000000  0.6079280000000  0.5005810000000 1.0
C      1  0.5695030000000  0.5413000000000  0.4527200000000 1.0
C      1  0.4893710000000  0.5832550000000  0.4625020000000 1.0
C      1  0.5549390000000  0.5192380000000  0.4332060000000 1.0
C      1  0.5088550000000  0.4837760000000  0.5973960000000 1.0
C      1  0.4004950000000  0.5309310000000  0.4720250000000 1.0
C      1  0.4477970000000  0.5495510000000  0.5665270000000 1.0
C      1  0.4871330000000  0.4171910000000  0.4836250000000 1.0
C      1  0.4413080000000  0.5591250000000  0.4607980000000 1.0
C      1  0.5229000000000  0.4878960000000  0.4004350000000 1.0
C      1  0.5522750000000  0.5598190000000  0.5052210000000 1.0
C      1  0.4746090000000  0.3915460000000  0.4843240000000 1.0
C      1  0.4456460000000  0.4568660000000  0.4661850000000 1.0
C      1  0.4293280000000  0.4188860000000  0.4949930000000 1.0
C      1  0.5201360000000  0.4720200000000  0.4473350000000 1.0
C      1  0.4835640000000  0.5058600000000  0.5757950000000 1.0
C      1  0.4539670000000  0.6002310000000  0.5287290000000 1.0
C      1  0.5809150000000  0.5040480000000  0.5571360000000 1.0
C      1  0.5871140000000  0.4661370000000  0.4542530000000 1.0
C      1  0.4310370000000  0.5833010000000  0.4581610000000 1.0
C      1  0.5701640000000  0.5543190000000  0.4220510000000 1.0
C      1  0.4254650000000  0.4329190000000  0.4687160000000 1.0
C      1  0.5251700000000  0.5311420000000  0.5103750000000 1.0
C      1  0.5247640000000  0.4645300000000  0.4175560000000 1.0
C      1  0.5128400000000  0.4389220000000  0.4884320000000 1.0
C      1  0.5338410000000  0.4444420000000  0.5591470000000 1.0
C      1  0.4657410000000  0.5269870000000  0.5590500000000 1.0
C      1  0.4953550000000  0.4124580000000  0.6082880000000 1.0
C      1  0.4760730000000  0.4730420000000  0.4050030000000 1.0
C      1  0.5237780000000  0.5624060000000  0.4075820000000 1.0
C      1  0.4423350000000  0.4435350000000  0.4197770000000 1.0
C      1  0.5632810000000  0.5803020000000  0.4731900000000 1.0
C      1  0.5286260000000  0.6020880000000  0.5272450000000 1.0
C      1  0.3819700000000  0.4737370000000  0.5027140000000 1.0
C      1  0.4509770000000  0.5238190000000  0.4824130000000 1.0
C      1  0.4964340000000  0.5658100000000  0.5277340000000 1.0
C      1  0.4086470000000  0.4196910000000  0.5133510000000 1.0
C      1  0.4747820000000  0.4869580000000  0.5983230000000 1.0
C      1  0.5311570000000  0.4148700000000  0.5437190000000 1.0
C      1  0.5896930000000  0.5270200000000  0.5022640000000 1.0
C      1  0.4331500000000  0.5038790000000  0.4378310000000 1.0
C      1  0.5664110000000  0.4251800000000  0.4721410000000 1.0
C      1  0.5134330000000  0.5896220000000  0.4833750000000 1.0
C      1  0.4483710000000  0.3918920000000  0.4953170000000 1.0
C      1  0.5841700000000  0.5649410000000  0.5133010000000 1.0
C      1  0.4364760000000  0.5284160000000  0.5078880000000 1.0
C      1  0.4845690000000  0.4363510000000  0.5360760000000 1.0
C      1  0.5797250000000  0.4777260000000  0.5652470000000 1.0
C      1  0.4957130000000  0.4947040000000  0.3979080000000 1.0
C      1  0.4710510000000  0.4468830000000  0.4159350000000 1.0
C      1  0.5620310000000  0.4177890000000  0.5499700000000 1.0
C      1  0.5611640000000  0.4585590000000  0.5478660000000 1.0
C      1  0.4312570000000  0.4895340000000  0.5396880000000 1.0
C      1  0.4663340000000  0.4624290000000  0.5602410000000 1.0
C      1  0.5228250000000  0.4233400000000  0.4416140000000 1.0
END
