TITL C-3371508-3820-47 -0.00139225075382934 125000 -729.18331603153 0 0 131 (C1) n - 1
REM
REM in /nfs/bkarasulu/CARBON/AIRSS/Generating-Clusters/AIREBO/with-SteepDescent/Only-C1/SD-CG-opt/Try1-1.4A-POS3A/HFTN-CG
REM
REM
REM
REM
REM
REM ./C.cell (11c1c37f851c82e70ff6c80c92926a4b)
REM
REM compiler GCC version 9.2.1 20190827 (Red Hat 9.2.1-1)
REM options -cpp -mtune=generic -march=x86-64 -g -O0 -fpre-include=/usr/include/finclude/math-vector-fortran.h
REM seed 1971230444 307062911 -642646296 360984664 1790351045 2085250918 -934591802 -1333773247 -1714246488 591599269 447410889 1799402713 1757420440 -341666029 1635417535 326064615 -1358862439 165179691 100096921 -1213670986 1137849210 -1222439618 1261328511 -717007365 -224704521 -1512710471 1002512120 -820924839 -1778534063 177688463 -890696819 658616224 971430822
REM
CELL 1.54180   50.00000   50.00000   50.00000   90.00000   90.00000   90.00000
LATT -1
SFAC C  
C      1  0.4891710000000  0.5467030000000  0.5271250000000 1.0
C      1  0.5268540000000  0.5403880000000  0.4168790000000 1.0
C      1  0.5944280000000  0.5024600000000  0.5106570000000 1.0
C      1  0.5160200000000  0.6007740000000  0.5250080000000 1.0
C      1  0.5169050000000  0.4987350000000  0.5238340000000 1.0
C      1  0.5993120000000  0.5324540000000  0.4948820000000 1.0
C      1  0.5517460000000  0.4240010000000  0.5194340000000 1.0
C      1  0.5621210000000  0.4973540000000  0.5024390000000 1.0
C      1  0.4200880000000  0.4728130000000  0.4624280000000 1.0
C      1  0.4281510000000  0.5117630000000  0.5695320000000 1.0
C      1  0.5710250000000  0.5345650000000  0.5136310000000 1.0
C      1  0.5176970000000  0.4327420000000  0.5677030000000 1.0
C      1  0.5472440000000  0.5753890000000  0.4520840000000 1.0
C      1  0.4115590000000  0.5268350000000  0.4590230000000 1.0
C      1  0.4510630000000  0.4142100000000  0.4783320000000 1.0
C      1  0.5679120000000  0.4724360000000  0.4576310000000 1.0
C      1  0.5384300000000  0.5278510000000  0.4688990000000 1.0
C      1  0.4623070000000  0.5349720000000  0.5443750000000 1.0
C      1  0.4694990000000  0.5818870000000  0.5189530000000 1.0
C      1  0.4702680000000  0.5142240000000  0.5931510000000 1.0
C      1  0.5781490000000  0.4832560000000  0.4282650000000 1.0
C      1  0.5003950000000  0.4302670000000  0.5437360000000 1.0
C      1  0.4744080000000  0.5584770000000  0.4287630000000 1.0
C      1  0.4131450000000  0.4741960000000  0.5097430000000 1.0
C      1  0.5336600000000  0.5438400000000  0.5518090000000 1.0
C      1  0.5416060000000  0.5696280000000  0.4257020000000 1.0
C      1  0.5480930000000  0.4716520000000  0.5421190000000 1.0
C      1  0.5740810000000  0.5238310000000  0.4515290000000 1.0
C      1  0.4921710000000  0.5167460000000  0.4843320000000 1.0
C      1  0.4074670000000  0.4977140000000  0.4706570000000 1.0
C      1  0.5333130000000  0.5851150000000  0.5030620000000 1.0
C      1  0.5940890000000  0.4822990000000  0.4762000000000 1.0
C      1  0.4482140000000  0.5608610000000  0.4405400000000 1.0
C      1  0.4632260000000  0.4774780000000  0.5600560000000 1.0
C      1  0.5374060000000  0.4360230000000  0.4523720000000 1.0
C      1  0.4920560000000  0.5849780000000  0.5384850000000 1.0
C      1  0.4744500000000  0.4685980000000  0.4238560000000 1.0
C      1  0.5974880000000  0.5107070000000  0.4713760000000 1.0
C      1  0.5106880000000  0.5037060000000  0.5668670000000 1.0
C      1  0.4859530000000  0.4609240000000  0.5409200000000 1.0
C      1  0.5525280000000  0.4741870000000  0.5816280000000 1.0
C      1  0.4710820000000  0.4304360000000  0.4561400000000 1.0
C      1  0.5565050000000  0.5018490000000  0.5756500000000 1.0
C      1  0.4745300000000  0.5215980000000  0.5091650000000 1.0
C      1  0.5639500000000  0.4999080000000  0.5364180000000 1.0
C      1  0.5409690000000  0.5095640000000  0.4142820000000 1.0
C      1  0.4532800000000  0.4844670000000  0.4841280000000 1.0
C      1  0.5374200000000  0.4532720000000  0.4230260000000 1.0
C      1  0.4801700000000  0.4149340000000  0.4916760000000 1.0
C      1  0.5672360000000  0.5088490000000  0.4250030000000 1.0
C      1  0.5215140000000  0.4625330000000  0.5797310000000 1.0
C      1  0.4590290000000  0.5239360000000  0.4502010000000 1.0
C      1  0.4228780000000  0.5293110000000  0.4896830000000 1.0
C      1  0.4932840000000  0.4623970000000  0.5089150000000 1.0
C      1  0.4464120000000  0.5573370000000  0.5242560000000 1.0
C      1  0.5585940000000  0.5598940000000  0.5418840000000 1.0
C      1  0.5103210000000  0.5668620000000  0.4889690000000 1.0
C      1  0.4582850000000  0.4375560000000  0.5821330000000 1.0
C      1  0.5202880000000  0.5000390000000  0.4615510000000 1.0
C      1  0.5618930000000  0.5520780000000  0.4645940000000 1.0
C      1  0.4577570000000  0.4465670000000  0.4346110000000 1.0
C      1  0.4129790000000  0.4650580000000  0.4147690000000 1.0
C      1  0.4188140000000  0.5023080000000  0.5382310000000 1.0
C      1  0.4191650000000  0.5477430000000  0.4412010000000 1.0
C      1  0.4496850000000  0.5145740000000  0.4946110000000 1.0
C      1  0.4701150000000  0.4451760000000  0.4941190000000 1.0
C      1  0.4431390000000  0.4795590000000  0.5162210000000 1.0
C      1  0.4551420000000  0.5661500000000  0.4925180000000 1.0
C      1  0.5596630000000  0.4501750000000  0.5607070000000 1.0
C      1  0.5588840000000  0.5010940000000  0.4735710000000 1.0
C      1  0.4821620000000  0.5310650000000  0.4184290000000 1.0
C      1  0.5812900000000  0.5140890000000  0.5615650000000 1.0
C      1  0.5401130000000  0.5309020000000  0.5026940000000 1.0
C      1  0.4521420000000  0.4938330000000  0.4524560000000 1.0
C      1  0.4675400000000  0.4271690000000  0.5516810000000 1.0
C      1  0.5047520000000  0.5589480000000  0.4349120000000 1.0
C      1  0.5088350000000  0.5192790000000  0.4359350000000 1.0
C      1  0.4835350000000  0.5830370000000  0.4881080000000 1.0
C      1  0.4354840000000  0.4722550000000  0.4321150000000 1.0
C      1  0.4525940000000  0.5027640000000  0.5392200000000 1.0
C      1  0.4833680000000  0.5181590000000  0.5651210000000 1.0
C      1  0.5341860000000  0.5178120000000  0.5706940000000 1.0
C      1  0.5581030000000  0.5721110000000  0.5151070000000 1.0
C      1  0.4292470000000  0.4787560000000  0.5604340000000 1.0
C      1  0.4815650000000  0.5726590000000  0.5683880000000 1.0
C      1  0.4381090000000  0.4465470000000  0.5576890000000 1.0
C      1  0.5072840000000  0.5576460000000  0.5517910000000 1.0
C      1  0.5650150000000  0.4361010000000  0.4951680000000 1.0
C      1  0.4872390000000  0.4831160000000  0.4831100000000 1.0
C      1  0.4313890000000  0.4272130000000  0.5003180000000 1.0
C      1  0.4015680000000  0.4967610000000  0.4984950000000 1.0
C      1  0.4396670000000  0.4534770000000  0.4809140000000 1.0
C      1  0.5906420000000  0.4698320000000  0.5044800000000 1.0
C      1  0.4408070000000  0.4260190000000  0.5307020000000 1.0
C      1  0.5256650000000  0.4565560000000  0.5025490000000 1.0
C      1  0.4897640000000  0.4587900000000  0.4594820000000 1.0
C      1  0.5573900000000  0.4649370000000  0.5114890000000 1.0
C      1  0.4776100000000  0.4916130000000  0.6060210000000 1.0
C      1  0.5190310000000  0.4889040000000  0.4937070000000 1.0
C      1  0.5817600000000  0.5471590000000  0.5527360000000 1.0
C      1  0.5766870000000  0.5579690000000  0.4909670000000 1.0
C      1  0.4580420000000  0.5558310000000  0.5707060000000 1.0
C      1  0.5644060000000  0.4406180000000  0.4672240000000 1.0
C      1  0.4061260000000  0.5232440000000  0.5177340000000 1.0
C      1  0.4474950000000  0.5286310000000  0.5809590000000 1.0
C      1  0.4898910000000  0.5083100000000  0.5332360000000 1.0
C      1  0.5172030000000  0.4501720000000  0.4719560000000 1.0
C      1  0.4942680000000  0.4100070000000  0.4473650000000 1.0
C      1  0.4179050000000  0.5524810000000  0.5252430000000 1.0
C      1  0.5625900000000  0.4262040000000  0.5461030000000 1.0
C      1  0.4697380000000  0.4647280000000  0.5894070000000 1.0
C      1  0.5096320000000  0.5386520000000  0.5022720000000 1.0
C      1  0.5050820000000  0.4725600000000  0.4327160000000 1.0
C      1  0.5282370000000  0.4834570000000  0.4103110000000 1.0
C      1  0.5058840000000  0.6022170000000  0.4711180000000 1.0
C      1  0.4591680000000  0.5142260000000  0.4168120000000 1.0
C      1  0.4070480000000  0.4484560000000  0.5034510000000 1.0
C      1  0.5354330000000  0.4760160000000  0.4482250000000 1.0
C      1  0.5962030000000  0.5236950000000  0.5337310000000 1.0
C      1  0.5077170000000  0.4115790000000  0.4911980000000 1.0
C      1  0.5133700000000  0.5488680000000  0.4638670000000 1.0
C      1  0.4571600000000  0.4883250000000  0.4114280000000 1.0
C      1  0.4871790000000  0.5292820000000  0.4579640000000 1.0
C      1  0.5200870000000  0.4259610000000  0.5163030000000 1.0
C      1  0.5389940000000  0.5182840000000  0.5310350000000 1.0
C      1  0.4574700000000  0.4534510000000  0.5234330000000 1.0
C      1  0.5007060000000  0.4698960000000  0.5995280000000 1.0
C      1  0.5169240000000  0.4113580000000  0.4637100000000 1.0
C      1  0.5337610000000  0.5928170000000  0.4699160000000 1.0
C      1  0.5151630000000  0.4762220000000  0.5492540000000 1.0
C      1  0.4452070000000  0.5467100000000  0.4713390000000 1.0
END
