TITL C-3371510-9333-15 801.915814214571 125000 -686.531857539896 0 0 128 (C1) n - 1
REM
REM in /nfs/bkarasulu/CARBON/AIRSS/Generating-Clusters/AIREBO/with-SteepDescent/Only-C1/SD-CG-opt/Try1-1.4A-POS3A/HFTN-CG
REM
REM
REM
REM
REM
REM ./C.cell (11c1c37f851c82e70ff6c80c92926a4b)
REM
REM compiler GCC version 9.2.1 20190827 (Red Hat 9.2.1-1)
REM options -cpp -mtune=generic -march=x86-64 -g -O0 -fpre-include=/usr/include/finclude/math-vector-fortran.h
REM seed -437536693 2089334388 1290832729 -2025455930 1680480044 -1410418147 -959330413 -1187711914 1777050910 -1793475450 1451421447 -766640297 1342246422 26849258 -184000126 -1851208627 -418045147 -1145755912 168769701 -1659204911 1581776347 1661733339 -1171476685 -1892144135 1694555150 -1705542627 -2076804068 -1925617649 -1647888744 1161257202 -1147706180 191330880 -342855504
REM
CELL 1.54180   50.00000   50.00000   50.00000   90.00000   90.00000   90.00000
LATT -1
SFAC C  
C      1  0.5384190000000  0.4459620000000  0.5456360000000 1.0
C      1  0.4734920000000  0.5680590000000  0.5202810000000 1.0
C      1  0.4970470000000  0.5356690000000  0.6211630000000 1.0
C      1  0.4658630000000  0.5412000000000  0.5350680000000 1.0
C      1  0.4994640000000  0.4334340000000  0.5136630000000 1.0
C      1  0.4554530000000  0.4812520000000  0.4433110000000 1.0
C      1  0.6010650000000  0.5363040000000  0.5045420000000 1.0
C      1  0.4993470000000  0.4842270000000  0.4709500000000 1.0
C      1  0.3933980000000  0.4889950000000  0.4767720000000 1.0
C      1  0.5014450000000  0.5517170000000  0.5734570000000 1.0
C      1  0.5363870000000  0.5241260000000  0.5644700000000 1.0
C      1  0.5755460000000  0.4847820000000  0.4488180000000 1.0
C      1  0.5549300000000  0.5492910000000  0.5360720000000 1.0
C      1  0.5086010000000  0.4392460000000  0.5459910000000 1.0
C      1  0.4674740000000  0.5084360000000  0.5576780000000 1.0
C      1  0.4909610000000  0.5659480000000  0.4349220000000 1.0
C      1  0.5585660000000  0.5053130000000  0.5769750000000 1.0
C      1  0.4103230000000  0.5186080000000  0.5225860000000 1.0
C      1  0.4303490000000  0.4655520000000  0.5033220000000 1.0
C      1  0.5087700000000  0.4563510000000  0.4568520000000 1.0
C      1  0.4716160000000  0.4183860000000  0.5757260000000 1.0
C      1  0.5484820000000  0.5838560000000  0.4718470000000 1.0
C      1  0.4113590000000  0.5288690000000  0.4629750000000 1.0
C      1  0.4977860000000  0.4800020000000  0.4115930000000 1.0
C      1  0.4504280000000  0.4217900000000  0.4661240000000 1.0
C      1  0.4519250000000  0.4360790000000  0.5655170000000 1.0
C      1  0.5359440000000  0.4585910000000  0.4741640000000 1.0
C      1  0.4399410000000  0.5009230000000  0.4874050000000 1.0
C      1  0.4791090000000  0.4110160000000  0.4698220000000 1.0
C      1  0.5783330000000  0.4290290000000  0.4913650000000 1.0
C      1  0.5535460000000  0.4117380000000  0.4906700000000 1.0
C      1  0.4328580000000  0.4943610000000  0.4218470000000 1.0
C      1  0.4563610000000  0.4645380000000  0.4858830000000 1.0
C      1  0.4844650000000  0.5211610000000  0.4941440000000 1.0
C      1  0.4164100000000  0.4380810000000  0.4981280000000 1.0
C      1  0.5523860000000  0.4264340000000  0.5215430000000 1.0
C      1  0.4956650000000  0.4648230000000  0.5555750000000 1.0
C      1  0.4262710000000  0.5410360000000  0.4362540000000 1.0
C      1  0.4693020000000  0.4224700000000  0.5234430000000 1.0
C      1  0.5082420000000  0.5327300000000  0.4489130000000 1.0
C      1  0.4353840000000  0.5064740000000  0.4541670000000 1.0
C      1  0.4750000000000  0.4746640000000  0.5775940000000 1.0
C      1  0.4520860000000  0.4379070000000  0.5374160000000 1.0
C      1  0.4646320000000  0.4914150000000  0.5292630000000 1.0
C      1  0.4486930000000  0.4639160000000  0.5738740000000 1.0
C      1  0.4653790000000  0.5910080000000  0.5455140000000 1.0
C      1  0.5043460000000  0.4233970000000  0.4506820000000 1.0
C      1  0.5323920000000  0.5543770000000  0.5595930000000 1.0
C      1  0.5266360000000  0.5020550000000  0.3951880000000 1.0
C      1  0.5029210000000  0.4121810000000  0.4886460000000 1.0
C      1  0.4547330000000  0.5338190000000  0.4186460000000 1.0
C      1  0.5674880000000  0.5393140000000  0.4513010000000 1.0
C      1  0.5462310000000  0.4783960000000  0.5070790000000 1.0
C      1  0.5209430000000  0.4735640000000  0.3875400000000 1.0
C      1  0.4054900000000  0.4902470000000  0.4543880000000 1.0
C      1  0.5138730000000  0.5814580000000  0.5557410000000 1.0
C      1  0.4956130000000  0.4545040000000  0.4279950000000 1.0
C      1  0.5008620000000  0.5955980000000  0.5112660000000 1.0
C      1  0.4620190000000  0.5825580000000  0.4790820000000 1.0
C      1  0.5835220000000  0.4602070000000  0.5386760000000 1.0
C      1  0.5509650000000  0.4576190000000  0.5749890000000 1.0
C      1  0.5868130000000  0.5603990000000  0.5014520000000 1.0
C      1  0.5952890000000  0.5313910000000  0.4415860000000 1.0
C      1  0.4412230000000  0.5728620000000  0.5298850000000 1.0
C      1  0.5249340000000  0.5463370000000  0.4993130000000 1.0
C      1  0.5787520000000  0.4524890000000  0.5659240000000 1.0
C      1  0.4902510000000  0.5211450000000  0.5366530000000 1.0
C      1  0.5694120000000  0.4537820000000  0.5106520000000 1.0
C      1  0.4548180000000  0.4295890000000  0.4347040000000 1.0
C      1  0.5197900000000  0.5032270000000  0.5855440000000 1.0
C      1  0.4563320000000  0.5191630000000  0.5114200000000 1.0
C      1  0.5196970000000  0.5100180000000  0.4797340000000 1.0
C      1  0.4256970000000  0.4193260000000  0.4840640000000 1.0
C      1  0.5126700000000  0.4777740000000  0.5015840000000 1.0
C      1  0.4216000000000  0.5065960000000  0.5510150000000 1.0
C      1  0.4968290000000  0.5946270000000  0.5388400000000 1.0
C      1  0.4090170000000  0.5307980000000  0.4908400000000 1.0
C      1  0.5473740000000  0.5379700000000  0.4286050000000 1.0
C      1  0.5316740000000  0.5084680000000  0.4498830000000 1.0
C      1  0.5416830000000  0.5742290000000  0.4992210000000 1.0
C      1  0.4974050000000  0.5096840000000  0.3946640000000 1.0
C      1  0.5448690000000  0.4812090000000  0.5885260000000 1.0
C      1  0.4945890000000  0.4829180000000  0.5280900000000 1.0
C      1  0.5093660000000  0.4945920000000  0.5564160000000 1.0
C      1  0.4715130000000  0.4936290000000  0.4848240000000 1.0
C      1  0.5312960000000  0.4168800000000  0.4705100000000 1.0
C      1  0.5634170000000  0.5686600000000  0.5173550000000 1.0
C      1  0.4972770000000  0.4171810000000  0.5654000000000 1.0
C      1  0.5432320000000  0.5061630000000  0.4192430000000 1.0
C      1  0.4351830000000  0.5434450000000  0.5037040000000 1.0
C      1  0.4470800000000  0.5479260000000  0.5711680000000 1.0
C      1  0.4515190000000  0.4545710000000  0.4567680000000 1.0
C      1  0.4120640000000  0.4923250000000  0.5010770000000 1.0
C      1  0.4553810000000  0.5346540000000  0.4526390000000 1.0
C      1  0.5677770000000  0.4067010000000  0.5367250000000 1.0
C      1  0.4141440000000  0.5521730000000  0.5278730000000 1.0
C      1  0.4814430000000  0.4280200000000  0.4257980000000 1.0
C      1  0.4991750000000  0.5280930000000  0.5944250000000 1.0
C      1  0.5430960000000  0.4389840000000  0.4473190000000 1.0
C      1  0.4851180000000  0.4585510000000  0.4980430000000 1.0
C      1  0.5299570000000  0.4421630000000  0.5014010000000 1.0
C      1  0.4811920000000  0.6008240000000  0.4890470000000 1.0
C      1  0.6102950000000  0.4909130000000  0.4872550000000 1.0
C      1  0.4291000000000  0.4796300000000  0.5546410000000 1.0
C      1  0.5129690000000  0.5172630000000  0.5122800000000 1.0
C      1  0.5613260000000  0.5067250000000  0.4958550000000 1.0
C      1  0.4445570000000  0.4665400000000  0.5296580000000 1.0
C      1  0.5231440000000  0.5585900000000  0.4343160000000 1.0
C      1  0.4417590000000  0.5230800000000  0.5618420000000 1.0
C      1  0.5337130000000  0.5035890000000  0.5355090000000 1.0
C      1  0.5512690000000  0.5349580000000  0.4810580000000 1.0
C      1  0.5513420000000  0.4884750000000  0.4689510000000 1.0
C      1  0.5564350000000  0.5233980000000  0.5250850000000 1.0
C      1  0.5616470000000  0.4798150000000  0.4248470000000 1.0
C      1  0.5748210000000  0.4962000000000  0.5562620000000 1.0
C      1  0.4818620000000  0.5210440000000  0.4362040000000 1.0
C      1  0.4742900000000  0.5617300000000  0.5597530000000 1.0
C      1  0.4934110000000  0.5432340000000  0.4749060000000 1.0
C      1  0.4849580000000  0.4908090000000  0.4407960000000 1.0
C      1  0.5531930000000  0.4759840000000  0.5395280000000 1.0
C      1  0.4715570000000  0.5617410000000  0.4605480000000 1.0
C      1  0.4422640000000  0.5742720000000  0.4962100000000 1.0
C      1  0.5353170000000  0.5844190000000  0.4484100000000 1.0
C      1  0.5523630000000  0.4524810000000  0.4255380000000 1.0
C      1  0.5706620000000  0.5616440000000  0.4747460000000 1.0
C      1  0.4975630000000  0.5655830000000  0.4985140000000 1.0
C      1  0.5932550000000  0.5102210000000  0.4963820000000 1.0
C      1  0.4804390000000  0.5030610000000  0.5848620000000 1.0
END
