TITL C-3371504-3437-80 0.00238668307829643 125000 -1119.49408598913 0 0 198 (C1) n - 1
REM
REM in /nfs/bkarasulu/CARBON/AIRSS/Generating-Clusters/AIREBO/with-SteepDescent/Only-C1/SD-CG-opt/Try1-1.4A-POS3A/HFTN-CG
REM
REM
REM
REM
REM
REM ./C.cell (11c1c37f851c82e70ff6c80c92926a4b)
REM
REM compiler GCC version 9.2.1 20190827 (Red Hat 9.2.1-1)
REM options -cpp -mtune=generic -march=x86-64 -g -O0 -fpre-include=/usr/include/finclude/math-vector-fortran.h
REM seed -193841337 -2040748676 -1521592490 1026599210 -1255936088 -686256000 -562465806 72275157 1037406710 1838574472 2085930344 -2076728344 -219711870 -1381675288 -1467851713 -2015836500 1656491610 -1723513764 939571339 16555324 -359623069 919253979 -1989611749 -1894834071 -645917919 -328631166 -189872957 -16237882 1030799066 1207668759 -1231967488 824363787 -1982133163
REM
CELL 1.54180   50.00000   50.00000   50.00000   90.00000   90.00000   90.00000
LATT -1
SFAC C  
C      1  0.4815670000000  0.5950440000000  0.4901420000000 1.0
C      1  0.4073540000000  0.4592580000000  0.5020800000000 1.0
C      1  0.5754200000000  0.5402600000000  0.5031650000000 1.0
C      1  0.4291600000000  0.4961260000000  0.4791960000000 1.0
C      1  0.4602810000000  0.5704520000000  0.5903260000000 1.0
C      1  0.3995990000000  0.5300120000000  0.4514550000000 1.0
C      1  0.5192180000000  0.4069250000000  0.4352870000000 1.0
C      1  0.5249900000000  0.5998920000000  0.4733760000000 1.0
C      1  0.4942210000000  0.6084630000000  0.5490980000000 1.0
C      1  0.4819340000000  0.5092790000000  0.5128320000000 1.0
C      1  0.5821720000000  0.4739530000000  0.5132120000000 1.0
C      1  0.4380490000000  0.4616700000000  0.4288820000000 1.0
C      1  0.5467640000000  0.4644300000000  0.4158930000000 1.0
C      1  0.5120420000000  0.5527420000000  0.5342460000000 1.0
C      1  0.5202530000000  0.3764010000000  0.5296760000000 1.0
C      1  0.4596180000000  0.4054620000000  0.4741440000000 1.0
C      1  0.5384510000000  0.4306790000000  0.4356450000000 1.0
C      1  0.5295080000000  0.5324560000000  0.4509420000000 1.0
C      1  0.5797000000000  0.5055360000000  0.5007930000000 1.0
C      1  0.5635400000000  0.6077400000000  0.4745660000000 1.0
C      1  0.4151030000000  0.4733320000000  0.5676470000000 1.0
C      1  0.5878480000000  0.5355700000000  0.5520040000000 1.0
C      1  0.4865960000000  0.4163140000000  0.4564250000000 1.0
C      1  0.6145760000000  0.4677110000000  0.5081030000000 1.0
C      1  0.4779410000000  0.4305010000000  0.4105810000000 1.0
C      1  0.5899200000000  0.5587640000000  0.5281800000000 1.0
C      1  0.6318900000000  0.4923950000000  0.4987700000000 1.0
C      1  0.4924370000000  0.4105120000000  0.4238520000000 1.0
C      1  0.5149240000000  0.4352830000000  0.5205920000000 1.0
C      1  0.4311100000000  0.4732510000000  0.5376090000000 1.0
C      1  0.4545020000000  0.4348820000000  0.5832360000000 1.0
C      1  0.5604620000000  0.4682550000000  0.5900210000000 1.0
C      1  0.4754290000000  0.4165380000000  0.5793060000000 1.0
C      1  0.4678070000000  0.5295930000000  0.4963770000000 1.0
C      1  0.5346480000000  0.4989730000000  0.5503530000000 1.0
C      1  0.4014670000000  0.4473510000000  0.5310160000000 1.0
C      1  0.4980760000000  0.4132840000000  0.5111230000000 1.0
C      1  0.4192210000000  0.5630270000000  0.5352550000000 1.0
C      1  0.5398570000000  0.4038770000000  0.5329560000000 1.0
C      1  0.6053340000000  0.4510140000000  0.4820910000000 1.0
C      1  0.4209230000000  0.5525790000000  0.4442690000000 1.0
C      1  0.5593340000000  0.4021870000000  0.4735310000000 1.0
C      1  0.4699800000000  0.4645420000000  0.4402080000000 1.0
C      1  0.4812840000000  0.4577320000000  0.5349510000000 1.0
C      1  0.3833020000000  0.4716810000000  0.4457830000000 1.0
C      1  0.5188990000000  0.5032620000000  0.3967130000000 1.0
C      1  0.5489020000000  0.4957410000000  0.4901920000000 1.0
C      1  0.5503720000000  0.5460160000000  0.5769860000000 1.0
C      1  0.3987040000000  0.5081260000000  0.4777690000000 1.0
C      1  0.6091630000000  0.4679370000000  0.5417210000000 1.0
C      1  0.4976420000000  0.4618300000000  0.5835760000000 1.0
C      1  0.4391070000000  0.5425090000000  0.4199610000000 1.0
C      1  0.5450220000000  0.4632220000000  0.4804460000000 1.0
C      1  0.5091870000000  0.5678120000000  0.5956890000000 1.0
C      1  0.5089640000000  0.5761530000000  0.4886450000000 1.0
C      1  0.4649560000000  0.5271060000000  0.5955660000000 1.0
C      1  0.5382910000000  0.5916910000000  0.5511900000000 1.0
C      1  0.4698090000000  0.4773510000000  0.4103710000000 1.0
C      1  0.4322060000000  0.4167830000000  0.4908700000000 1.0
C      1  0.5439010000000  0.5981890000000  0.5006340000000 1.0
C      1  0.4103420000000  0.5889000000000  0.4800380000000 1.0
C      1  0.5599610000000  0.5334040000000  0.5326720000000 1.0
C      1  0.4787510000000  0.6126370000000  0.5190950000000 1.0
C      1  0.5325950000000  0.5375850000000  0.5156510000000 1.0
C      1  0.4789840000000  0.4441910000000  0.4838890000000 1.0
C      1  0.5496880000000  0.4519390000000  0.5696880000000 1.0
C      1  0.6398980000000  0.4973530000000  0.4726440000000 1.0
C      1  0.4684800000000  0.5046630000000  0.4106480000000 1.0
C      1  0.5922520000000  0.4231320000000  0.4905050000000 1.0
C      1  0.4958250000000  0.5172330000000  0.4139860000000 1.0
C      1  0.5435380000000  0.3944270000000  0.5026370000000 1.0
C      1  0.6015310000000  0.5166730000000  0.4329320000000 1.0
C      1  0.4358350000000  0.4160080000000  0.5196420000000 1.0
C      1  0.5506620000000  0.5064400000000  0.4579520000000 1.0
C      1  0.4200520000000  0.5804500000000  0.5640940000000 1.0
C      1  0.5685990000000  0.5078700000000  0.4095650000000 1.0
C      1  0.4010280000000  0.4539430000000  0.4589660000000 1.0
C      1  0.5144850000000  0.5127600000000  0.6078580000000 1.0
C      1  0.4488450000000  0.5668850000000  0.4585240000000 1.0
C      1  0.5575610000000  0.5695160000000  0.5014930000000 1.0
C      1  0.4467620000000  0.5159610000000  0.4252640000000 1.0
C      1  0.5005130000000  0.4224160000000  0.5894810000000 1.0
C      1  0.4135620000000  0.5841650000000  0.4523050000000 1.0
C      1  0.5042360000000  0.4563630000000  0.5528290000000 1.0
C      1  0.5216390000000  0.4569280000000  0.5043160000000 1.0
C      1  0.5732320000000  0.5538720000000  0.4212760000000 1.0
C      1  0.4834140000000  0.5357550000000  0.4702730000000 1.0
C      1  0.4151180000000  0.5412290000000  0.5588950000000 1.0
C      1  0.4447620000000  0.5377360000000  0.5734040000000 1.0
C      1  0.4782780000000  0.5574350000000  0.4470480000000 1.0
C      1  0.4506810000000  0.5003480000000  0.5851800000000 1.0
C      1  0.5591010000000  0.4984240000000  0.5743930000000 1.0
C      1  0.5271020000000  0.4567480000000  0.4522750000000 1.0
C      1  0.4249130000000  0.4333700000000  0.5393740000000 1.0
C      1  0.4318310000000  0.4775280000000  0.5895460000000 1.0
C      1  0.4341590000000  0.4952430000000  0.5128390000000 1.0
C      1  0.5648140000000  0.5877040000000  0.4558780000000 1.0
C      1  0.4570030000000  0.5539460000000  0.5125550000000 1.0
C      1  0.5287620000000  0.5620010000000  0.4357210000000 1.0
C      1  0.5901210000000  0.5451520000000  0.4728880000000 1.0
C      1  0.4447730000000  0.6101910000000  0.5170950000000 1.0
C      1  0.5872310000000  0.4866250000000  0.5593160000000 1.0
C      1  0.4326110000000  0.5236450000000  0.5280700000000 1.0
C      1  0.4305600000000  0.4669100000000  0.4617060000000 1.0
C      1  0.5701990000000  0.4493720000000  0.5241690000000 1.0
C      1  0.4590960000000  0.5388700000000  0.5429990000000 1.0
C      1  0.3947780000000  0.4880570000000  0.5031560000000 1.0
C      1  0.4139200000000  0.4356480000000  0.4811260000000 1.0
C      1  0.4509120000000  0.4440760000000  0.4685250000000 1.0
C      1  0.5164350000000  0.3987970000000  0.4864380000000 1.0
C      1  0.4946650000000  0.5387610000000  0.6058320000000 1.0
C      1  0.5089240000000  0.5886830000000  0.5680780000000 1.0
C      1  0.5053630000000  0.5812500000000  0.4297870000000 1.0
C      1  0.4692270000000  0.3863680000000  0.4983550000000 1.0
C      1  0.4907950000000  0.5456410000000  0.4191630000000 1.0
C      1  0.5551110000000  0.5723590000000  0.4326010000000 1.0
C      1  0.5065580000000  0.4778290000000  0.4919810000000 1.0
C      1  0.4482150000000  0.4225120000000  0.4478050000000 1.0
C      1  0.4507790000000  0.4579640000000  0.6005800000000 1.0
C      1  0.5394270000000  0.4691170000000  0.6119150000000 1.0
C      1  0.5331870000000  0.4239250000000  0.5801860000000 1.0
C      1  0.5216680000000  0.5426250000000  0.5785370000000 1.0
C      1  0.4463150000000  0.5082530000000  0.4524570000000 1.0
C      1  0.5706440000000  0.5279740000000  0.5746650000000 1.0
C      1  0.5082590000000  0.5150910000000  0.5645740000000 1.0
C      1  0.5668850000000  0.4218980000000  0.4503050000000 1.0
C      1  0.4402360000000  0.5885170000000  0.5394910000000 1.0
C      1  0.4826490000000  0.6110430000000  0.4639530000000 1.0
C      1  0.5205120000000  0.4744600000000  0.4014560000000 1.0
C      1  0.5085930000000  0.4305840000000  0.4772600000000 1.0
C      1  0.4328690000000  0.5664190000000  0.5842820000000 1.0
C      1  0.5330930000000  0.4677770000000  0.5524010000000 1.0
C      1  0.5681640000000  0.4279600000000  0.5024900000000 1.0
C      1  0.4155470000000  0.5456030000000  0.5085010000000 1.0
C      1  0.5629770000000  0.5357980000000  0.4014410000000 1.0
C      1  0.5072040000000  0.5011130000000  0.5052760000000 1.0
C      1  0.5457010000000  0.4950470000000  0.4262850000000 1.0
C      1  0.5250490000000  0.5987710000000  0.5240150000000 1.0
C      1  0.5241370000000  0.4289720000000  0.5497000000000 1.0
C      1  0.4700040000000  0.5805860000000  0.5255290000000 1.0
C      1  0.4691310000000  0.4865560000000  0.5298340000000 1.0
C      1  0.6109460000000  0.5070830000000  0.5141190000000 1.0
C      1  0.4558560000000  0.5772180000000  0.4883090000000 1.0
C      1  0.4407460000000  0.5941740000000  0.4399190000000 1.0
C      1  0.5013830000000  0.5778710000000  0.5203170000000 1.0
C      1  0.4602540000000  0.4794720000000  0.4977800000000 1.0
C      1  0.5203540000000  0.3897460000000  0.4564660000000 1.0
C      1  0.3912800000000  0.4943020000000  0.5312230000000 1.0
C      1  0.5204370000000  0.4480870000000  0.6002460000000 1.0
C      1  0.4717440000000  0.4008070000000  0.5558000000000 1.0
C      1  0.4904070000000  0.5419420000000  0.5537000000000 1.0
C      1  0.4603080000000  0.5571980000000  0.4114800000000 1.0
C      1  0.5426970000000  0.5581790000000  0.5483060000000 1.0
C      1  0.5370030000000  0.5474470000000  0.4871940000000 1.0
C      1  0.5924620000000  0.5427020000000  0.4390440000000 1.0
C      1  0.5677990000000  0.4380570000000  0.4201440000000 1.0
C      1  0.4969320000000  0.4455190000000  0.4423300000000 1.0
C      1  0.3977810000000  0.5679320000000  0.4944600000000 1.0
C      1  0.4896250000000  0.4942310000000  0.5767570000000 1.0
C      1  0.5634800000000  0.5605590000000  0.4708840000000 1.0
C      1  0.5631340000000  0.4253710000000  0.5418910000000 1.0
C      1  0.6196750000000  0.5042280000000  0.4551600000000 1.0
C      1  0.4856270000000  0.5646990000000  0.5741690000000 1.0
C      1  0.5747330000000  0.4606840000000  0.4732570000000 1.0
C      1  0.5802520000000  0.4945830000000  0.4458760000000 1.0
C      1  0.5418250000000  0.4295180000000  0.4836630000000 1.0
C      1  0.4753850000000  0.4704450000000  0.6051190000000 1.0
C      1  0.4729230000000  0.5074280000000  0.4635680000000 1.0
C      1  0.5925100000000  0.4442550000000  0.4508420000000 1.0
C      1  0.4336730000000  0.5984090000000  0.4928900000000 1.0
C      1  0.5919740000000  0.5131430000000  0.4713690000000 1.0
C      1  0.4687140000000  0.4402960000000  0.5137780000000 1.0
C      1  0.4401720000000  0.4560680000000  0.5103990000000 1.0
C      1  0.4625200000000  0.4814570000000  0.5606780000000 1.0
C      1  0.5693510000000  0.5783040000000  0.5419020000000 1.0
C      1  0.4860220000000  0.5749290000000  0.4025420000000 1.0
C      1  0.4954810000000  0.4578850000000  0.4102550000000 1.0
C      1  0.5372030000000  0.4984350000000  0.6015410000000 1.0
C      1  0.3901790000000  0.4986480000000  0.4481840000000 1.0
C      1  0.3927300000000  0.4698140000000  0.5474730000000 1.0
C      1  0.5082080000000  0.4823870000000  0.4523740000000 1.0
C      1  0.5169980000000  0.5064040000000  0.4364500000000 1.0
C      1  0.4525280000000  0.4335340000000  0.4219530000000 1.0
C      1  0.5094910000000  0.6066310000000  0.4502720000000 1.0
C      1  0.4371880000000  0.5275160000000  0.4895070000000 1.0
C      1  0.5751280000000  0.4683240000000  0.4342380000000 1.0
C      1  0.5102370000000  0.5493910000000  0.4714820000000 1.0
C      1  0.4825490000000  0.5011710000000  0.6092800000000 1.0
C      1  0.4032220000000  0.5166370000000  0.5436860000000 1.0
C      1  0.5384530000000  0.5223220000000  0.3878670000000 1.0
C      1  0.4674350000000  0.4082040000000  0.5249570000000 1.0
C      1  0.4469330000000  0.4512820000000  0.5581770000000 1.0
C      1  0.4803920000000  0.4754950000000  0.4706740000000 1.0
C      1  0.6100300000000  0.5001620000000  0.5414490000000 1.0
C      1  0.4165370000000  0.4705230000000  0.4100140000000 1.0
C      1  0.4743530000000  0.5910540000000  0.4401440000000 1.0
C      1  0.5338970000000  0.5065430000000  0.5187890000000 1.0
C      1  0.4965940000000  0.3816530000000  0.5165760000000 1.0
END
