TITL C-3371499-8025-75 -0.0027709839257441 125000 -221.794464782517 0 0 40 (C1) n - 1
REM
REM in /nfs/bkarasulu/CARBON/AIRSS/Generating-Clusters/AIREBO/with-SteepDescent/Only-C1/SD-CG-opt/Try1-1.4A-POS3A/HFTN-CG
REM
REM
REM
REM
REM
REM ./C.cell (11c1c37f851c82e70ff6c80c92926a4b)
REM
REM compiler GCC version 9.2.1 20190827 (Red Hat 9.2.1-1)
REM options -cpp -mtune=generic -march=x86-64 -g -O0 -fpre-include=/usr/include/finclude/math-vector-fortran.h
REM seed 13842 1408404880 1139676401 -1285936562 -501831285 578005595 1092445552 740410464 1402107786 -871990917 -112014157 174267789 -825233479 517085653 -1864671696 304097022 2096655787 143684777 1571136876 429443623 -1408890606 -1260392071 959793743 -499362388 1298559767 -1144096639 -519479654 945349499 880263508 -2124480428 14063297 1938318523 -1418245786
REM
CELL 1.54180   50.00000   50.00000   50.00000   90.00000   90.00000   90.00000
LATT -1
SFAC C  
C      1  0.4935940000000  0.5572040000000  0.5000040000000 1.0
C      1  0.5010960000000  0.4571140000000  0.4621540000000 1.0
C      1  0.4959940000000  0.4767110000000  0.5698020000000 1.0
C      1  0.4641340000000  0.5263310000000  0.4413640000000 1.0
C      1  0.5337210000000  0.5125160000000  0.5752840000000 1.0
C      1  0.4933410000000  0.4452880000000  0.4862860000000 1.0
C      1  0.4741560000000  0.5420560000000  0.4803860000000 1.0
C      1  0.4405820000000  0.5465810000000  0.4773840000000 1.0
C      1  0.5108550000000  0.4524810000000  0.5137140000000 1.0
C      1  0.4794140000000  0.4452510000000  0.5233280000000 1.0
C      1  0.5000040000000  0.5020350000000  0.5084670000000 1.0
C      1  0.5388300000000  0.5388160000000  0.5299430000000 1.0
C      1  0.4514670000000  0.4956260000000  0.4824270000000 1.0
C      1  0.4398360000000  0.4714140000000  0.5263260000000 1.0
C      1  0.5179490000000  0.5299580000000  0.4527140000000 1.0
C      1  0.4716700000000  0.5151910000000  0.4977480000000 1.0
C      1  0.4761740000000  0.4942210000000  0.4616860000000 1.0
C      1  0.4720740000000  0.5204150000000  0.5303760000000 1.0
C      1  0.5159620000000  0.4930800000000  0.5537690000000 1.0
C      1  0.4593290000000  0.4567680000000  0.5411370000000 1.0
C      1  0.4463020000000  0.4709920000000  0.4981220000000 1.0
C      1  0.5591880000000  0.4954830000000  0.4904150000000 1.0
C      1  0.4646540000000  0.4489000000000  0.4948710000000 1.0
C      1  0.5615680000000  0.4559360000000  0.5231750000000 1.0
C      1  0.5171040000000  0.5269110000000  0.5495780000000 1.0
C      1  0.4452280000000  0.5212160000000  0.4624120000000 1.0
C      1  0.5429710000000  0.4717180000000  0.4812050000000 1.0
C      1  0.5202390000000  0.4779710000000  0.4665550000000 1.0
C      1  0.5459170000000  0.5308420000000  0.4574010000000 1.0
C      1  0.4794430000000  0.4700540000000  0.4481820000000 1.0
C      1  0.5097360000000  0.5297290000000  0.4935110000000 1.0
C      1  0.4913360000000  0.5619590000000  0.5266650000000 1.0
C      1  0.5508130000000  0.4852260000000  0.5180760000000 1.0
C      1  0.5186410000000  0.4839250000000  0.5241530000000 1.0
C      1  0.5545370000000  0.5226820000000  0.4837900000000 1.0
C      1  0.4902540000000  0.5378120000000  0.5415530000000 1.0
C      1  0.4893330000000  0.5382910000000  0.4517700000000 1.0
C      1  0.5379030000000  0.5344400000000  0.5032660000000 1.0
C      1  0.5400710000000  0.4508580000000  0.5013330000000 1.0
C      1  0.5045810000000  0.5059960000000  0.4696700000000 1.0
END
