TITL C-3371499-8025-28 -0.000886342439024715 125000 -251.595827493846 0 0 48 (C1) n - 1
REM
REM in /nfs/bkarasulu/CARBON/AIRSS/Generating-Clusters/AIREBO/with-SteepDescent/Only-C1/SD-CG-opt/Try1-1.4A-POS3A/HFTN-CG
REM
REM
REM
REM
REM
REM ./C.cell (11c1c37f851c82e70ff6c80c92926a4b)
REM
REM compiler GCC version 9.2.1 20190827 (Red Hat 9.2.1-1)
REM options -cpp -mtune=generic -march=x86-64 -g -O0 -fpre-include=/usr/include/finclude/math-vector-fortran.h
REM seed 666252343 -447234403 766587426 -1070944369 -146969573 1988758816 -1262056256 -467909557 6164613 1037520645 -379983936 -51182869 -1366899068 860212265 -235929680 -1477833334 26690783 1714574404 -958980718 -1268643759 -896972000 712043656 741663049 1473027879 1231922408 -1300308592 1246078666 -2138042557 -1492090308 -2122673538 -481394042 -1792341481 -1143404194
REM
CELL 1.54180   50.00000   50.00000   50.00000   90.00000   90.00000   90.00000
LATT -1
SFAC C  
C      1  0.5639360000000  0.5138240000000  0.5400620000000 1.0
C      1  0.4497840000000  0.4931110000000  0.5053090000000 1.0
C      1  0.4911570000000  0.5027250000000  0.4977580000000 1.0
C      1  0.4757170000000  0.4926100000000  0.5263570000000 1.0
C      1  0.4777600000000  0.4473290000000  0.4941540000000 1.0
C      1  0.4256510000000  0.5217660000000  0.4914810000000 1.0
C      1  0.5147740000000  0.4594100000000  0.4639930000000 1.0
C      1  0.4657740000000  0.5177000000000  0.5448470000000 1.0
C      1  0.5075520000000  0.5463030000000  0.5511720000000 1.0
C      1  0.5036220000000  0.4876090000000  0.5419610000000 1.0
C      1  0.5606120000000  0.4982380000000  0.5151670000000 1.0
C      1  0.5623430000000  0.5287380000000  0.5744700000000 1.0
C      1  0.4455190000000  0.4724380000000  0.4676640000000 1.0
C      1  0.4355180000000  0.5157180000000  0.5498450000000 1.0
C      1  0.5005400000000  0.5702040000000  0.4548390000000 1.0
C      1  0.4241170000000  0.4968900000000  0.5254900000000 1.0
C      1  0.5146740000000  0.4631580000000  0.5406750000000 1.0
C      1  0.4624660000000  0.5469590000000  0.5178120000000 1.0
C      1  0.5599330000000  0.4784690000000  0.4576960000000 1.0
C      1  0.4812070000000  0.5431260000000  0.5413690000000 1.0
C      1  0.4507130000000  0.4559440000000  0.4907290000000 1.0
C      1  0.5504340000000  0.5341400000000  0.4552310000000 1.0
C      1  0.5165860000000  0.5163880000000  0.5109260000000 1.0
C      1  0.5874860000000  0.5183720000000  0.5612170000000 1.0
C      1  0.5352990000000  0.5136260000000  0.4675870000000 1.0
C      1  0.5045100000000  0.4532970000000  0.4932360000000 1.0
C      1  0.4945760000000  0.5229730000000  0.4411970000000 1.0
C      1  0.4634150000000  0.5232930000000  0.4443870000000 1.0
C      1  0.4710460000000  0.5530750000000  0.4927020000000 1.0
C      1  0.5271620000000  0.4497110000000  0.5150460000000 1.0
C      1  0.4317160000000  0.4657500000000  0.5136100000000 1.0
C      1  0.5537070000000  0.4655030000000  0.5089250000000 1.0
C      1  0.5730020000000  0.4909300000000  0.4852620000000 1.0
C      1  0.5682590000000  0.4584650000000  0.4825360000000 1.0
C      1  0.4372950000000  0.5299280000000  0.5196370000000 1.0
C      1  0.5328450000000  0.4221670000000  0.5193590000000 1.0
C      1  0.5339280000000  0.4795560000000  0.4472970000000 1.0
C      1  0.4465480000000  0.5036570000000  0.4747490000000 1.0
C      1  0.5086210000000  0.4379800000000  0.4469920000000 1.0
C      1  0.4754790000000  0.5174190000000  0.4756330000000 1.0
C      1  0.5144050000000  0.4892120000000  0.4803920000000 1.0
C      1  0.5131110000000  0.5034480000000  0.4439180000000 1.0
C      1  0.4881340000000  0.5470680000000  0.4647860000000 1.0
C      1  0.4411320000000  0.5307130000000  0.4315830000000 1.0
C      1  0.5403690000000  0.5137340000000  0.4975150000000 1.0
C      1  0.4629840000000  0.4683730000000  0.5419120000000 1.0
C      1  0.5181350000000  0.5103210000000  0.5375770000000 1.0
C      1  0.5364480000000  0.5286280000000  0.5539350000000 1.0
END
