TITL C-3371514-4997-21 -0.000961303510296678 125000 -463.315435397572 0 0 84 (C1) n - 1
REM
REM in /nfs/bkarasulu/CARBON/AIRSS/Generating-Clusters/AIREBO/with-SteepDescent/Only-C1/SD-CG-opt/Try1-1.4A-POS3A/HFTN-CG
REM
REM
REM
REM
REM
REM ./C.cell (11c1c37f851c82e70ff6c80c92926a4b)
REM
REM compiler GCC version 9.2.1 20190827 (Red Hat 9.2.1-1)
REM options -cpp -mtune=generic -march=x86-64 -g -O0 -fpre-include=/usr/include/finclude/math-vector-fortran.h
REM seed -1325073684 -309122832 1335791721 -1688843343 -793435155 -2004069054 -1740820998 -258494851 -726444050 1127845689 1925989057 -1194223618 241609178 1216265491 2110351798 -773024662 -666105023 -797155800 -1248505666 -737601813 966021044 -852038854 -809176993 23279725 524587494 2122729687 -1857970432 1709441434 -346271547 -142540511 -1704727445 -577765716 753063967
REM
CELL 1.54180   50.00000   50.00000   50.00000   90.00000   90.00000   90.00000
LATT -1
SFAC C  
C      1  0.5755960000000  0.4595290000000  0.5010980000000 1.0
C      1  0.4489600000000  0.4322280000000  0.5419520000000 1.0
C      1  0.4828860000000  0.4959760000000  0.4030070000000 1.0
C      1  0.5291020000000  0.4416140000000  0.4403510000000 1.0
C      1  0.5374740000000  0.5053260000000  0.5662300000000 1.0
C      1  0.4989230000000  0.4206420000000  0.5525840000000 1.0
C      1  0.5771620000000  0.5104800000000  0.4704540000000 1.0
C      1  0.5589680000000  0.5269500000000  0.5511660000000 1.0
C      1  0.5027360000000  0.4452690000000  0.4275640000000 1.0
C      1  0.4926620000000  0.5203180000000  0.5245840000000 1.0
C      1  0.4719390000000  0.4768680000000  0.5931760000000 1.0
C      1  0.5314440000000  0.4543710000000  0.5627670000000 1.0
C      1  0.4713360000000  0.5025680000000  0.3814320000000 1.0
C      1  0.5051370000000  0.5149280000000  0.4641210000000 1.0
C      1  0.5196130000000  0.4806270000000  0.5696910000000 1.0
C      1  0.5655530000000  0.4949240000000  0.5493160000000 1.0
C      1  0.5101140000000  0.4577750000000  0.5091730000000 1.0
C      1  0.4684480000000  0.5018980000000  0.4732780000000 1.0
C      1  0.5441060000000  0.5458060000000  0.4783080000000 1.0
C      1  0.5401630000000  0.4087070000000  0.5738030000000 1.0
C      1  0.5619430000000  0.5413540000000  0.5249270000000 1.0
C      1  0.5506080000000  0.4393970000000  0.4944120000000 1.0
C      1  0.4571240000000  0.5330090000000  0.4796260000000 1.0
C      1  0.5237950000000  0.4276260000000  0.5636590000000 1.0
C      1  0.5096490000000  0.4353110000000  0.4655300000000 1.0
C      1  0.5232440000000  0.4414830000000  0.4923890000000 1.0
C      1  0.4193610000000  0.4300930000000  0.5034740000000 1.0
C      1  0.5299690000000  0.5845400000000  0.5144050000000 1.0
C      1  0.4265290000000  0.4220380000000  0.5287940000000 1.0
C      1  0.5271710000000  0.5124860000000  0.4222760000000 1.0
C      1  0.4641620000000  0.5565030000000  0.5033290000000 1.0
C      1  0.5344540000000  0.5822910000000  0.5411190000000 1.0
C      1  0.5658080000000  0.4518500000000  0.4703380000000 1.0
C      1  0.4764410000000  0.5790400000000  0.4608860000000 1.0
C      1  0.4794420000000  0.4192810000000  0.4993810000000 1.0
C      1  0.5422270000000  0.5440730000000  0.5744000000000 1.0
C      1  0.5717320000000  0.5465490000000  0.4315080000000 1.0
C      1  0.4812530000000  0.5791620000000  0.5209520000000 1.0
C      1  0.4902820000000  0.4853310000000  0.5660330000000 1.0
C      1  0.4813100000000  0.4535430000000  0.4606700000000 1.0
C      1  0.4813330000000  0.4279720000000  0.4382520000000 1.0
C      1  0.5634470000000  0.5544760000000  0.5018480000000 1.0
C      1  0.4656780000000  0.4465800000000  0.4875520000000 1.0
C      1  0.4496400000000  0.4575320000000  0.5524460000000 1.0
C      1  0.4851990000000  0.5179030000000  0.5576690000000 1.0
C      1  0.4350960000000  0.4446010000000  0.4865610000000 1.0
C      1  0.4308220000000  0.5386750000000  0.4637770000000 1.0
C      1  0.5239400000000  0.4785820000000  0.5198220000000 1.0
C      1  0.4686880000000  0.5467250000000  0.5533490000000 1.0
C      1  0.4754960000000  0.6001480000000  0.4779930000000 1.0
C      1  0.5149700000000  0.5028390000000  0.5151120000000 1.0
C      1  0.4728500000000  0.4764680000000  0.5381890000000 1.0
C      1  0.5443200000000  0.4711290000000  0.5397510000000 1.0
C      1  0.5179050000000  0.5621830000000  0.5585080000000 1.0
C      1  0.5831890000000  0.5726320000000  0.4956480000000 1.0
C      1  0.4264050000000  0.5641940000000  0.4547050000000 1.0
C      1  0.4946640000000  0.5481680000000  0.5134650000000 1.0
C      1  0.5157020000000  0.6068740000000  0.5047870000000 1.0
C      1  0.4874770000000  0.5686500000000  0.5508920000000 1.0
C      1  0.4927280000000  0.4715630000000  0.4245280000000 1.0
C      1  0.4448460000000  0.5224010000000  0.5095090000000 1.0
C      1  0.4965180000000  0.5065780000000  0.4323040000000 1.0
C      1  0.5566130000000  0.4452730000000  0.4448140000000 1.0
C      1  0.4992510000000  0.4102520000000  0.4816570000000 1.0
C      1  0.3970390000000  0.4977860000000  0.4557210000000 1.0
C      1  0.4771420000000  0.4246190000000  0.5312490000000 1.0
C      1  0.5224400000000  0.5585950000000  0.5012550000000 1.0
C      1  0.4638760000000  0.5052430000000  0.5264210000000 1.0
C      1  0.5113040000000  0.5426790000000  0.4733490000000 1.0
C      1  0.5610210000000  0.5302620000000  0.4594920000000 1.0
C      1  0.5103880000000  0.3855140000000  0.4793330000000 1.0
C      1  0.4772890000000  0.4860230000000  0.4514020000000 1.0
C      1  0.4802590000000  0.5357490000000  0.4327840000000 1.0
C      1  0.5136530000000  0.5294910000000  0.5647460000000 1.0
C      1  0.4813630000000  0.5480430000000  0.4610950000000 1.0
C      1  0.4129040000000  0.5180250000000  0.4607870000000 1.0
C      1  0.4534400000000  0.5049170000000  0.5584530000000 1.0
C      1  0.4509950000000  0.4802450000000  0.5714220000000 1.0
C      1  0.5477870000000  0.5265990000000  0.4292180000000 1.0
C      1  0.4701020000000  0.5468750000000  0.4115350000000 1.0
C      1  0.4880610000000  0.6019090000000  0.5030550000000 1.0
C      1  0.5738500000000  0.4726830000000  0.5249420000000 1.0
C      1  0.4500340000000  0.5456080000000  0.5318990000000 1.0
C      1  0.4814490000000  0.4549710000000  0.5165430000000 1.0
END
