TITL C-3371509-8222-1 0.00146727720860326 125000 -702.575911331345 0 0 133 (C1) n - 1
REM
REM in /nfs/bkarasulu/CARBON/AIRSS/Generating-Clusters/AIREBO/with-SteepDescent/Only-C1/SD-CG-opt/Try1-1.4A-POS3A/HFTN-CG
REM
REM
REM
REM
REM
REM ./C.cell (11c1c37f851c82e70ff6c80c92926a4b)
REM
REM compiler GCC version 9.2.1 20190827 (Red Hat 9.2.1-1)
REM options -cpp -mtune=generic -march=x86-64 -g -O0 -fpre-include=/usr/include/finclude/math-vector-fortran.h
REM seed 459196177 1504212787 -370341998 -1690026631 2063273106 390731293 1301337720 -726637453 -1721612033 1709673626 132515306 -574295271 -1203621909 -1945088700 -1354374175 -107117524 2119017570 1986787431 843692296 1587581540 -835253351 -1091587862 1237345900 -524988740 -1001472276 1093509543 -462925522 -2112647746 1983476744 -603621213 -1619896866 509886995 1015076920
REM
CELL 1.54180   50.00000   50.00000   50.00000   90.00000   90.00000   90.00000
LATT -1
SFAC C  
C      1  0.5916590000000  0.4433540000000  0.5097620000000 1.0
C      1  0.5698820000000  0.4768410000000  0.4705280000000 1.0
C      1  0.4349530000000  0.4495340000000  0.5477450000000 1.0
C      1  0.4084610000000  0.5437690000000  0.5219990000000 1.0
C      1  0.4094990000000  0.4453760000000  0.4844850000000 1.0
C      1  0.4512190000000  0.4526270000000  0.4572750000000 1.0
C      1  0.4749760000000  0.4473640000000  0.4172410000000 1.0
C      1  0.4721570000000  0.4797400000000  0.5241810000000 1.0
C      1  0.4232790000000  0.5388190000000  0.4806520000000 1.0
C      1  0.5787170000000  0.5244610000000  0.4900660000000 1.0
C      1  0.4548280000000  0.5033190000000  0.4476830000000 1.0
C      1  0.4764140000000  0.5510040000000  0.5199050000000 1.0
C      1  0.5110820000000  0.4747620000000  0.5183950000000 1.0
C      1  0.4525320000000  0.5473480000000  0.4959610000000 1.0
C      1  0.5352810000000  0.5921540000000  0.5241830000000 1.0
C      1  0.5468740000000  0.5468580000000  0.5684280000000 1.0
C      1  0.5723460000000  0.5398070000000  0.4259280000000 1.0
C      1  0.5269200000000  0.6020920000000  0.4950440000000 1.0
C      1  0.4928150000000  0.4957700000000  0.4378950000000 1.0
C      1  0.5201120000000  0.4677580000000  0.5482020000000 1.0
C      1  0.4688160000000  0.4042250000000  0.4604140000000 1.0
C      1  0.4900990000000  0.4888250000000  0.4695110000000 1.0
C      1  0.4477170000000  0.5709080000000  0.5494080000000 1.0
C      1  0.4690770000000  0.4753640000000  0.5795590000000 1.0
C      1  0.4379960000000  0.5160560000000  0.4140730000000 1.0
C      1  0.4535680000000  0.5600950000000  0.5731330000000 1.0
C      1  0.4993840000000  0.4161520000000  0.4557920000000 1.0
C      1  0.5899840000000  0.4615660000000  0.5357110000000 1.0
C      1  0.5288050000000  0.4585930000000  0.5797730000000 1.0
C      1  0.5602110000000  0.5769050000000  0.5239350000000 1.0
C      1  0.5033130000000  0.4345000000000  0.4309440000000 1.0
C      1  0.4210560000000  0.4776120000000  0.5516970000000 1.0
C      1  0.5413750000000  0.4312040000000  0.5575740000000 1.0
C      1  0.5186710000000  0.5386160000000  0.5820280000000 1.0
C      1  0.4739710000000  0.5194200000000  0.5198020000000 1.0
C      1  0.5603950000000  0.5144600000000  0.4371540000000 1.0
C      1  0.5174120000000  0.5829180000000  0.4686240000000 1.0
C      1  0.4904970000000  0.5731140000000  0.4328740000000 1.0
C      1  0.4392450000000  0.5537640000000  0.4546150000000 1.0
C      1  0.4272970000000  0.5158120000000  0.4568100000000 1.0
C      1  0.5441750000000  0.5587740000000  0.4242620000000 1.0
C      1  0.5373880000000  0.5694750000000  0.4913260000000 1.0
C      1  0.5242670000000  0.5353880000000  0.4495150000000 1.0
C      1  0.5427570000000  0.5057800000000  0.5345340000000 1.0
C      1  0.4504460000000  0.4930920000000  0.4795880000000 1.0
C      1  0.4805170000000  0.4566200000000  0.4695760000000 1.0
C      1  0.4915810000000  0.4182830000000  0.5621440000000 1.0
C      1  0.4449000000000  0.5114510000000  0.5272530000000 1.0
C      1  0.5699320000000  0.4949390000000  0.4976830000000 1.0
C      1  0.5277650000000  0.5228830000000  0.5535080000000 1.0
C      1  0.5441180000000  0.4468340000000  0.4161280000000 1.0
C      1  0.4904810000000  0.5658420000000  0.5474510000000 1.0
C      1  0.5131060000000  0.5255010000000  0.5164540000000 1.0
C      1  0.4467400000000  0.5237450000000  0.5585990000000 1.0
C      1  0.5534620000000  0.5490940000000  0.5381190000000 1.0
C      1  0.5493610000000  0.4944920000000  0.4560590000000 1.0
C      1  0.4959460000000  0.4083890000000  0.5101520000000 1.0
C      1  0.5519960000000  0.5541250000000  0.4570510000000 1.0
C      1  0.5356310000000  0.5262730000000  0.4187920000000 1.0
C      1  0.3952490000000  0.4668350000000  0.5127220000000 1.0
C      1  0.5553520000000  0.4740780000000  0.5711080000000 1.0
C      1  0.4303300000000  0.4690900000000  0.4721850000000 1.0
C      1  0.4045830000000  0.4876790000000  0.5320020000000 1.0
C      1  0.4335970000000  0.5621910000000  0.5199930000000 1.0
C      1  0.5522490000000  0.4744270000000  0.5379500000000 1.0
C      1  0.5671780000000  0.5208440000000  0.5623920000000 1.0
C      1  0.5252870000000  0.4171090000000  0.4757690000000 1.0
C      1  0.5293330000000  0.5522690000000  0.5188250000000 1.0
C      1  0.4633190000000  0.5966220000000  0.4951090000000 1.0
C      1  0.4455260000000  0.4850910000000  0.4225940000000 1.0
C      1  0.4147020000000  0.5133100000000  0.5163660000000 1.0
C      1  0.4517390000000  0.4583130000000  0.4281360000000 1.0
C      1  0.4956960000000  0.5948020000000  0.5018240000000 1.0
C      1  0.5009510000000  0.5627090000000  0.5060610000000 1.0
C      1  0.4924040000000  0.5509490000000  0.5733070000000 1.0
C      1  0.4693200000000  0.5306220000000  0.5794090000000 1.0
C      1  0.4384780000000  0.4947540000000  0.5629240000000 1.0
C      1  0.6044620000000  0.5238590000000  0.4735850000000 1.0
C      1  0.5270820000000  0.5011240000000  0.4786940000000 1.0
C      1  0.4785750000000  0.5244210000000  0.4357860000000 1.0
C      1  0.5243570000000  0.3967100000000  0.5139680000000 1.0
C      1  0.5149890000000  0.4351700000000  0.5173150000000 1.0
C      1  0.4793800000000  0.5919190000000  0.5310430000000 1.0
C      1  0.5689450000000  0.4354410000000  0.5413110000000 1.0
C      1  0.5422330000000  0.5143040000000  0.5029370000000 1.0
C      1  0.4808230000000  0.5714560000000  0.4583400000000 1.0
C      1  0.4452010000000  0.4828220000000  0.5094920000000 1.0
C      1  0.4575340000000  0.4508670000000  0.5742910000000 1.0
C      1  0.5978140000000  0.4773300000000  0.4576890000000 1.0
C      1  0.5009970000000  0.5210480000000  0.4697770000000 1.0
C      1  0.4872400000000  0.4516730000000  0.5260070000000 1.0
C      1  0.5767430000000  0.5261060000000  0.5298990000000 1.0
C      1  0.5488130000000  0.5401680000000  0.4862970000000 1.0
C      1  0.5793340000000  0.5527440000000  0.5085810000000 1.0
C      1  0.5553550000000  0.5008490000000  0.5800990000000 1.0
C      1  0.4557460000000  0.5743690000000  0.4755720000000 1.0
C      1  0.4276280000000  0.4586380000000  0.5171070000000 1.0
C      1  0.4462510000000  0.4144770000000  0.5245920000000 1.0
C      1  0.5575160000000  0.4479890000000  0.4669390000000 1.0
C      1  0.4881970000000  0.4276850000000  0.4857600000000 1.0
C      1  0.5116260000000  0.5924800000000  0.5416690000000 1.0
C      1  0.4704370000000  0.4925960000000  0.5515190000000 1.0
C      1  0.5285420000000  0.5070060000000  0.5897350000000 1.0
C      1  0.5005330000000  0.5544200000000  0.4763080000000 1.0
C      1  0.3991490000000  0.4779090000000  0.4824770000000 1.0
C      1  0.5211330000000  0.4725470000000  0.4886530000000 1.0
C      1  0.4686740000000  0.5217940000000  0.4803430000000 1.0
C      1  0.4907290000000  0.4961290000000  0.5015030000000 1.0
C      1  0.5184960000000  0.5754100000000  0.4196010000000 1.0
C      1  0.5797660000000  0.5615160000000  0.4752650000000 1.0
C      1  0.4973620000000  0.5116410000000  0.5432320000000 1.0
C      1  0.5802290000000  0.4270710000000  0.4673390000000 1.0
C      1  0.5426380000000  0.4181760000000  0.5277040000000 1.0
C      1  0.4548270000000  0.4269100000000  0.4765480000000 1.0
C      1  0.5146460000000  0.4285170000000  0.5725370000000 1.0
C      1  0.5077730000000  0.4918320000000  0.5688590000000 1.0
C      1  0.4477360000000  0.5929780000000  0.5235440000000 1.0
C      1  0.5007000000000  0.5439200000000  0.4265120000000 1.0
C      1  0.4481170000000  0.5390880000000  0.4318740000000 1.0
C      1  0.5135070000000  0.4577530000000  0.4613990000000 1.0
C      1  0.5346960000000  0.4387320000000  0.4434740000000 1.0
C      1  0.4776630000000  0.4053810000000  0.5339100000000 1.0
C      1  0.4656550000000  0.4350980000000  0.5452770000000 1.0
C      1  0.5277780000000  0.4699430000000  0.4068730000000 1.0
C      1  0.4126800000000  0.5065120000000  0.4847990000000 1.0
C      1  0.4969910000000  0.4684510000000  0.4180310000000 1.0
C      1  0.5798860000000  0.4922060000000  0.5291550000000 1.0
C      1  0.5192510000000  0.5011070000000  0.4171700000000 1.0
C      1  0.4351690000000  0.4303720000000  0.5003760000000 1.0
C      1  0.5586370000000  0.4517660000000  0.5133250000000 1.0
C      1  0.4821120000000  0.5036570000000  0.5877880000000 1.0
C      1  0.5284970000000  0.4780370000000  0.4403740000000 1.0
C      1  0.5363930000000  0.4423320000000  0.4918860000000 1.0
END
