TITL C-3371513-6555-55 0.00316813487686955 125000 -874.629769122921 0 0 162 (C1) n - 1
REM
REM in /nfs/bkarasulu/CARBON/AIRSS/Generating-Clusters/AIREBO/with-SteepDescent/Only-C1/SD-CG-opt/Try1-1.4A-POS3A/HFTN-CG
REM
REM
REM
REM
REM
REM ./C.cell (11c1c37f851c82e70ff6c80c92926a4b)
REM
REM compiler GCC version 9.2.1 20190827 (Red Hat 9.2.1-1)
REM options -cpp -mtune=generic -march=x86-64 -g -O0 -fpre-include=/usr/include/finclude/math-vector-fortran.h
REM seed -1420462977 -790318604 843955572 -1809172263 -306476657 758692788 -1742385625 1569819702 1278240701 -1385658348 796270490 188659290 1959168946 -1624656200 1111607194 -1060791844 -1356915438 -277232390 -693186954 448753275 1141281219 -1012666113 2068880776 -825055170 -1830779865 756456034 -295027617 1579163385 1346889978 639013954 -290205506 600735358 30978598
REM
CELL 1.54180   50.00000   50.00000   50.00000   90.00000   90.00000   90.00000
LATT -1
SFAC C  
C      1  0.5866820000000  0.4935020000000  0.4772000000000 1.0
C      1  0.5408180000000  0.4320990000000  0.5775940000000 1.0
C      1  0.4612960000000  0.5475770000000  0.5062850000000 1.0
C      1  0.4529140000000  0.4461840000000  0.5751760000000 1.0
C      1  0.5689860000000  0.5695790000000  0.5102910000000 1.0
C      1  0.4878460000000  0.4131600000000  0.5505210000000 1.0
C      1  0.5215470000000  0.5494030000000  0.4085240000000 1.0
C      1  0.4845700000000  0.4850360000000  0.3885780000000 1.0
C      1  0.5471410000000  0.4360200000000  0.5184730000000 1.0
C      1  0.5752680000000  0.5013330000000  0.5788000000000 1.0
C      1  0.4476130000000  0.4969140000000  0.5962630000000 1.0
C      1  0.5297070000000  0.4044420000000  0.4661090000000 1.0
C      1  0.4906620000000  0.5428680000000  0.4139530000000 1.0
C      1  0.5679470000000  0.5215370000000  0.4987130000000 1.0
C      1  0.4251210000000  0.4796960000000  0.5554940000000 1.0
C      1  0.4824750000000  0.5093200000000  0.5054510000000 1.0
C      1  0.4746200000000  0.4876230000000  0.5304310000000 1.0
C      1  0.4135740000000  0.5554620000000  0.5156090000000 1.0
C      1  0.4247290000000  0.4219990000000  0.5178270000000 1.0
C      1  0.5436610000000  0.5553240000000  0.5779400000000 1.0
C      1  0.4536700000000  0.5917020000000  0.4730870000000 1.0
C      1  0.4380520000000  0.4291000000000  0.4382300000000 1.0
C      1  0.5397070000000  0.5151870000000  0.5453160000000 1.0
C      1  0.4508630000000  0.4385090000000  0.5246010000000 1.0
C      1  0.5944100000000  0.5608260000000  0.5137960000000 1.0
C      1  0.4934630000000  0.4493370000000  0.5084030000000 1.0
C      1  0.4937490000000  0.5192500000000  0.6043220000000 1.0
C      1  0.4892930000000  0.4205980000000  0.4906730000000 1.0
C      1  0.5432540000000  0.4153590000000  0.5542570000000 1.0
C      1  0.4321080000000  0.5628990000000  0.5429670000000 1.0
C      1  0.4853970000000  0.4687340000000  0.5731830000000 1.0
C      1  0.4998880000000  0.4259950000000  0.4328250000000 1.0
C      1  0.5861740000000  0.5270250000000  0.5441810000000 1.0
C      1  0.5163930000000  0.4101490000000  0.5083610000000 1.0
C      1  0.4778890000000  0.5646930000000  0.5647630000000 1.0
C      1  0.4874300000000  0.4926650000000  0.4762230000000 1.0
C      1  0.4437620000000  0.4775200000000  0.5202840000000 1.0
C      1  0.4974530000000  0.5027020000000  0.4465530000000 1.0
C      1  0.5237080000000  0.4567110000000  0.4573150000000 1.0
C      1  0.4485100000000  0.4029960000000  0.5071650000000 1.0
C      1  0.5157100000000  0.4442590000000  0.5798050000000 1.0
C      1  0.5655370000000  0.5535200000000  0.4348920000000 1.0
C      1  0.4804860000000  0.5397930000000  0.5444550000000 1.0
C      1  0.5210450000000  0.4477760000000  0.5368760000000 1.0
C      1  0.4477030000000  0.5753270000000  0.4232360000000 1.0
C      1  0.5162070000000  0.4155660000000  0.5378900000000 1.0
C      1  0.5411550000000  0.4739290000000  0.5451960000000 1.0
C      1  0.4735000000000  0.5297920000000  0.4800320000000 1.0
C      1  0.4388440000000  0.4450710000000  0.4749560000000 1.0
C      1  0.5227570000000  0.5415160000000  0.5073380000000 1.0
C      1  0.4645060000000  0.5187670000000  0.3962010000000 1.0
C      1  0.5302120000000  0.4204110000000  0.4424430000000 1.0
C      1  0.5114150000000  0.5590100000000  0.5660500000000 1.0
C      1  0.5405730000000  0.5128390000000  0.5114080000000 1.0
C      1  0.5854040000000  0.4354770000000  0.5048680000000 1.0
C      1  0.5898550000000  0.5022430000000  0.5556720000000 1.0
C      1  0.5895450000000  0.5423090000000  0.4561990000000 1.0
C      1  0.4700460000000  0.4372280000000  0.4408230000000 1.0
C      1  0.5329960000000  0.4897710000000  0.5987090000000 1.0
C      1  0.4700100000000  0.4650260000000  0.4098240000000 1.0
C      1  0.5153710000000  0.4796410000000  0.4336350000000 1.0
C      1  0.4126650000000  0.4685000000000  0.5095870000000 1.0
C      1  0.5361310000000  0.5278160000000  0.3980460000000 1.0
C      1  0.4761410000000  0.5070500000000  0.4271270000000 1.0
C      1  0.5689510000000  0.4250150000000  0.5407020000000 1.0
C      1  0.5383410000000  0.5161520000000  0.5791240000000 1.0
C      1  0.5797210000000  0.5224250000000  0.4304270000000 1.0
C      1  0.5661460000000  0.5101240000000  0.4586520000000 1.0
C      1  0.4375180000000  0.5033000000000  0.5675130000000 1.0
C      1  0.4077350000000  0.4866860000000  0.5349870000000 1.0
C      1  0.5984840000000  0.5342430000000  0.5209630000000 1.0
C      1  0.4632420000000  0.4511170000000  0.4978590000000 1.0
C      1  0.4434540000000  0.5336410000000  0.5307970000000 1.0
C      1  0.5567130000000  0.4776490000000  0.4798370000000 1.0
C      1  0.5918490000000  0.4733440000000  0.5406840000000 1.0
C      1  0.5441730000000  0.4141780000000  0.4923720000000 1.0
C      1  0.5160300000000  0.4874500000000  0.4005480000000 1.0
C      1  0.4888050000000  0.5987540000000  0.5209450000000 1.0
C      1  0.6123200000000  0.4902210000000  0.5223870000000 1.0
C      1  0.4980030000000  0.4547660000000  0.4182710000000 1.0
C      1  0.5068620000000  0.4936610000000  0.5394320000000 1.0
C      1  0.4840650000000  0.4347050000000  0.5732530000000 1.0
C      1  0.4981660000000  0.5156750000000  0.3949450000000 1.0
C      1  0.5213660000000  0.5268250000000  0.4445980000000 1.0
C      1  0.4827310000000  0.5924510000000  0.4891080000000 1.0
C      1  0.4490970000000  0.5468090000000  0.5681430000000 1.0
C      1  0.5246710000000  0.5803160000000  0.4494770000000 1.0
C      1  0.4922630000000  0.5129130000000  0.5710380000000 1.0
C      1  0.4964250000000  0.5498600000000  0.4467330000000 1.0
C      1  0.5992320000000  0.5094220000000  0.5004820000000 1.0
C      1  0.4454290000000  0.4577310000000  0.5479060000000 1.0
C      1  0.4299900000000  0.5461010000000  0.4930900000000 1.0
C      1  0.4298610000000  0.5080950000000  0.4512700000000 1.0
C      1  0.4507310000000  0.4926980000000  0.4096810000000 1.0
C      1  0.4889760000000  0.4585720000000  0.5408220000000 1.0
C      1  0.5181270000000  0.5927090000000  0.5088800000000 1.0
C      1  0.4929980000000  0.5519940000000  0.5179140000000 1.0
C      1  0.4218520000000  0.5085630000000  0.5032790000000 1.0
C      1  0.5605260000000  0.5782050000000  0.4824730000000 1.0
C      1  0.4648530000000  0.5247450000000  0.5868600000000 1.0
C      1  0.5702770000000  0.4276420000000  0.4832730000000 1.0
C      1  0.3889910000000  0.5389450000000  0.5206370000000 1.0
C      1  0.5656470000000  0.5304680000000  0.5885050000000 1.0
C      1  0.5467960000000  0.5567160000000  0.5259750000000 1.0
C      1  0.4094840000000  0.4850610000000  0.4826280000000 1.0
C      1  0.4508570000000  0.5255750000000  0.4359380000000 1.0
C      1  0.5303190000000  0.4508650000000  0.4102490000000 1.0
C      1  0.4465490000000  0.4632100000000  0.5967610000000 1.0
C      1  0.5156930000000  0.4742330000000  0.5659020000000 1.0
C      1  0.5584570000000  0.5411700000000  0.5507970000000 1.0
C      1  0.4071890000000  0.4386570000000  0.5043910000000 1.0
C      1  0.4468550000000  0.4617050000000  0.4345070000000 1.0
C      1  0.5437280000000  0.4884760000000  0.4501850000000 1.0
C      1  0.5813410000000  0.4454630000000  0.5567410000000 1.0
C      1  0.5405760000000  0.5087960000000  0.4231010000000 1.0
C      1  0.5361730000000  0.5561040000000  0.4356230000000 1.0
C      1  0.4577050000000  0.5481980000000  0.4114920000000 1.0
C      1  0.5167880000000  0.5702920000000  0.5344160000000 1.0
C      1  0.5034900000000  0.5767930000000  0.4754480000000 1.0
C      1  0.5113010000000  0.4766270000000  0.5111140000000 1.0
C      1  0.5716300000000  0.4595140000000  0.5207170000000 1.0
C      1  0.5020450000000  0.4381210000000  0.4644740000000 1.0
C      1  0.4559470000000  0.5803450000000  0.5044570000000 1.0
C      1  0.4604470000000  0.5133430000000  0.5475800000000 1.0
C      1  0.4984100000000  0.6106200000000  0.5578590000000 1.0
C      1  0.5484160000000  0.4795870000000  0.4075650000000 1.0
C      1  0.5818770000000  0.4747240000000  0.4492530000000 1.0
C      1  0.3742440000000  0.5267410000000  0.4998340000000 1.0
C      1  0.4668810000000  0.4106710000000  0.5322080000000 1.0
C      1  0.5452170000000  0.4789990000000  0.5118110000000 1.0
C      1  0.4194160000000  0.5306530000000  0.5642860000000 1.0
C      1  0.4766810000000  0.4571150000000  0.4672060000000 1.0
C      1  0.5041820000000  0.3953800000000  0.4733760000000 1.0
C      1  0.5634670000000  0.5448590000000  0.4778760000000 1.0
C      1  0.4577560000000  0.4170060000000  0.4782600000000 1.0
C      1  0.4178270000000  0.5231550000000  0.4734820000000 1.0
C      1  0.5382850000000  0.5220670000000  0.4720940000000 1.0
C      1  0.4641990000000  0.5477970000000  0.4549980000000 1.0
C      1  0.5793350000000  0.5747730000000  0.4569890000000 1.0
C      1  0.5662010000000  0.4489880000000  0.4640320000000 1.0
C      1  0.4791740000000  0.4891980000000  0.5977590000000 1.0
C      1  0.5539080000000  0.4795130000000  0.5762480000000 1.0
C      1  0.4013700000000  0.4290050000000  0.4795960000000 1.0
C      1  0.4573050000000  0.4834220000000  0.4890510000000 1.0
C      1  0.5486350000000  0.4488880000000  0.4375870000000 1.0
C      1  0.5034380000000  0.5459110000000  0.4800010000000 1.0
C      1  0.5753220000000  0.4893770000000  0.4258300000000 1.0
C      1  0.4360310000000  0.4767980000000  0.4630520000000 1.0
C      1  0.4485140000000  0.5871660000000  0.5328540000000 1.0
C      1  0.3881600000000  0.5115770000000  0.4823550000000 1.0
C      1  0.4125940000000  0.5195040000000  0.5328890000000 1.0
C      1  0.5176790000000  0.5368750000000  0.5898240000000 1.0
C      1  0.4734730000000  0.5921830000000  0.5505870000000 1.0
C      1  0.5204200000000  0.6001900000000  0.5502070000000 1.0
C      1  0.4514150000000  0.5753280000000  0.4509250000000 1.0
C      1  0.5178460000000  0.5012100000000  0.4889390000000 1.0
C      1  0.5631250000000  0.4506400000000  0.5779530000000 1.0
C      1  0.4264930000000  0.4151030000000  0.4646780000000 1.0
C      1  0.5336220000000  0.5905600000000  0.4803080000000 1.0
C      1  0.5087990000000  0.5238530000000  0.5472300000000 1.0
C      1  0.4260520000000  0.4970680000000  0.4228430000000 1.0
C      1  0.4960830000000  0.5823840000000  0.4367880000000 1.0
END
