TITL C-3371511-147-84 -4.17033391497822e-05 125000 -221.727142146434 0 0 41 (C1) n - 1
REM
REM in /nfs/bkarasulu/CARBON/AIRSS/Generating-Clusters/AIREBO/with-SteepDescent/Only-C1/SD-CG-opt/Try1-1.4A-POS3A/HFTN-CG
REM
REM
REM
REM
REM
REM ./C.cell (11c1c37f851c82e70ff6c80c92926a4b)
REM
REM compiler GCC version 9.2.1 20190827 (Red Hat 9.2.1-1)
REM options -cpp -mtune=generic -march=x86-64 -g -O0 -fpre-include=/usr/include/finclude/math-vector-fortran.h
REM seed -514560746 734593746 -1379044118 363661996 1124950 -364444284 268936690 -622924417 -901769776 -212070230 341155548 -1021805272 -846548360 -801334801 -133299745 -1899195239 -1669490823 -295041723 1785966569 -1681878956 850920921 1885773065 -1778840622 -1844724873 1628686476 -457229473 1750111680 -352628611 -878556022 1193277391 -2024596501 -472269926 327113514
REM
CELL 1.54180   50.00000   50.00000   50.00000   90.00000   90.00000   90.00000
LATT -1
SFAC C  
C      1  0.5727400000000  0.4955620000000  0.4978360000000 1.0
C      1  0.4410890000000  0.5012170000000  0.4616320000000 1.0
C      1  0.4938800000000  0.5332140000000  0.5294550000000 1.0
C      1  0.5000890000000  0.4590910000000  0.4594250000000 1.0
C      1  0.5140270000000  0.5085150000000  0.5535950000000 1.0
C      1  0.5403730000000  0.4680190000000  0.5467520000000 1.0
C      1  0.4285850000000  0.5240910000000  0.5309190000000 1.0
C      1  0.4654350000000  0.4876330000000  0.4615170000000 1.0
C      1  0.5010010000000  0.5256520000000  0.4503580000000 1.0
C      1  0.4383500000000  0.5227600000000  0.4780650000000 1.0
C      1  0.4682900000000  0.5078210000000  0.5112780000000 1.0
C      1  0.5377940000000  0.5486680000000  0.4894610000000 1.0
C      1  0.5419180000000  0.5200590000000  0.5379620000000 1.0
C      1  0.5431610000000  0.4604380000000  0.4863510000000 1.0
C      1  0.5162120000000  0.4415150000000  0.5255750000000 1.0
C      1  0.4916110000000  0.5509590000000  0.4597670000000 1.0
C      1  0.5270000000000  0.5060800000000  0.4604490000000 1.0
C      1  0.5024280000000  0.4242240000000  0.5015340000000 1.0
C      1  0.4342150000000  0.5623840000000  0.5035300000000 1.0
C      1  0.4929080000000  0.4991170000000  0.5310360000000 1.0
C      1  0.5363440000000  0.4743720000000  0.5151920000000 1.0
C      1  0.5184050000000  0.5410500000000  0.5452760000000 1.0
C      1  0.5456960000000  0.5050870000000  0.5121550000000 1.0
C      1  0.4842790000000  0.4506810000000  0.5037730000000 1.0
C      1  0.4874580000000  0.5040320000000  0.4650840000000 1.0
C      1  0.4476620000000  0.4847730000000  0.5157610000000 1.0
C      1  0.5232670000000  0.4730880000000  0.4644390000000 1.0
C      1  0.4496500000000  0.5359510000000  0.5070080000000 1.0
C      1  0.4536440000000  0.4612190000000  0.5029190000000 1.0
C      1  0.5561210000000  0.4933900000000  0.4540420000000 1.0
C      1  0.4801670000000  0.5476320000000  0.5093410000000 1.0
C      1  0.5036070000000  0.4726070000000  0.5210140000000 1.0
C      1  0.4929510000000  0.5607250000000  0.4871500000000 1.0
C      1  0.4269760000000  0.4963550000000  0.5310730000000 1.0
C      1  0.5290150000000  0.4828230000000  0.5641470000000 1.0
C      1  0.5281590000000  0.5186760000000  0.4910840000000 1.0
C      1  0.4960400000000  0.5075310000000  0.4921940000000 1.0
C      1  0.5656570000000  0.4795860000000  0.4760650000000 1.0
C      1  0.5330650000000  0.4340600000000  0.4990090000000 1.0
C      1  0.4711750000000  0.4604400000000  0.4741030000000 1.0
C      1  0.5195540000000  0.5689020000000  0.4926770000000 1.0
END
