TITL C-3371503-4580-53 -0.00144099976233855 125000 -565.115784545129 0 0 103 (C1) n - 1
REM
REM in /nfs/bkarasulu/CARBON/AIRSS/Generating-Clusters/AIREBO/with-SteepDescent/Only-C1/SD-CG-opt/Try1-1.4A-POS3A/HFTN-CG
REM
REM
REM
REM
REM
REM ./C.cell (11c1c37f851c82e70ff6c80c92926a4b)
REM
REM compiler GCC version 9.2.1 20190827 (Red Hat 9.2.1-1)
REM options -cpp -mtune=generic -march=x86-64 -g -O0 -fpre-include=/usr/include/finclude/math-vector-fortran.h
REM seed 372054278 420726146 -1336605773 881227263 478231348 1446424331 215374700 1963300640 1070369544 1604471669 1857205516 -1412230643 -1550671311 1048371205 960385238 93414597 330578025 1770113374 -842350157 989332286 -1208967958 788478464 800510633 -445673828 -1656326145 -800943935 1652603389 -1347546741 -1724869645 1767811532 1746253597 -1317027585 -1871140263
REM
CELL 1.54180   50.00000   50.00000   50.00000   90.00000   90.00000   90.00000
LATT -1
SFAC C  
C      1  0.4414100000000  0.5335740000000  0.5722420000000 1.0
C      1  0.4743750000000  0.4942800000000  0.4910880000000 1.0
C      1  0.4571370000000  0.5534120000000  0.4536520000000 1.0
C      1  0.4424340000000  0.5048230000000  0.4931490000000 1.0
C      1  0.5451850000000  0.4944100000000  0.5146580000000 1.0
C      1  0.5858790000000  0.4748310000000  0.4607550000000 1.0
C      1  0.5068180000000  0.5269470000000  0.5095240000000 1.0
C      1  0.4608270000000  0.5115320000000  0.4668650000000 1.0
C      1  0.5703760000000  0.4514330000000  0.5466710000000 1.0
C      1  0.4989560000000  0.5839360000000  0.4708280000000 1.0
C      1  0.5810040000000  0.5594820000000  0.4420900000000 1.0
C      1  0.5683910000000  0.4750930000000  0.4398470000000 1.0
C      1  0.5571030000000  0.4995450000000  0.4324140000000 1.0
C      1  0.5269930000000  0.4303220000000  0.5408170000000 1.0
C      1  0.4317630000000  0.4987370000000  0.5328380000000 1.0
C      1  0.4397390000000  0.5545810000000  0.4831430000000 1.0
C      1  0.4288530000000  0.4549810000000  0.5626500000000 1.0
C      1  0.4682080000000  0.4251900000000  0.5029060000000 1.0
C      1  0.5064150000000  0.4674330000000  0.5766160000000 1.0
C      1  0.5776240000000  0.4423340000000  0.5163750000000 1.0
C      1  0.5075970000000  0.4859080000000  0.4212730000000 1.0
C      1  0.5523060000000  0.5512130000000  0.5360740000000 1.0
C      1  0.5908500000000  0.5444700000000  0.5021370000000 1.0
C      1  0.4757960000000  0.5108660000000  0.5363200000000 1.0
C      1  0.5781340000000  0.5360580000000  0.5269380000000 1.0
C      1  0.5326520000000  0.5464600000000  0.4556080000000 1.0
C      1  0.4869770000000  0.4452760000000  0.5658410000000 1.0
C      1  0.5196860000000  0.4895410000000  0.5360380000000 1.0
C      1  0.4374400000000  0.4327480000000  0.4901990000000 1.0
C      1  0.5268790000000  0.4455270000000  0.5125820000000 1.0
C      1  0.4932770000000  0.4271490000000  0.4367000000000 1.0
C      1  0.4885780000000  0.4768460000000  0.4562640000000 1.0
C      1  0.4108300000000  0.5428720000000  0.4831230000000 1.0
C      1  0.5548290000000  0.4518010000000  0.4324150000000 1.0
C      1  0.4717130000000  0.4815130000000  0.5288640000000 1.0
C      1  0.5659460000000  0.4127560000000  0.5140030000000 1.0
C      1  0.4150600000000  0.5213560000000  0.5164780000000 1.0
C      1  0.5749920000000  0.5089570000000  0.5108270000000 1.0
C      1  0.5806120000000  0.5283010000000  0.4790060000000 1.0
C      1  0.4153750000000  0.4171990000000  0.4968300000000 1.0
C      1  0.5443050000000  0.4514540000000  0.5544380000000 1.0
C      1  0.5126280000000  0.5156330000000  0.4099550000000 1.0
C      1  0.5515410000000  0.4627100000000  0.5085580000000 1.0
C      1  0.5161550000000  0.4179410000000  0.4543380000000 1.0
C      1  0.5131300000000  0.4067860000000  0.5080650000000 1.0
C      1  0.5047300000000  0.5778750000000  0.5470790000000 1.0
C      1  0.4754840000000  0.4773810000000  0.5686020000000 1.0
C      1  0.4192610000000  0.5174890000000  0.5557590000000 1.0
C      1  0.4198230000000  0.4829300000000  0.4687960000000 1.0
C      1  0.4322270000000  0.5501300000000  0.5161100000000 1.0
C      1  0.5477900000000  0.5838230000000  0.4988830000000 1.0
C      1  0.4984680000000  0.4732120000000  0.5148150000000 1.0
C      1  0.4102930000000  0.5099140000000  0.4857420000000 1.0
C      1  0.4805690000000  0.5909430000000  0.4923010000000 1.0
C      1  0.4962490000000  0.4437830000000  0.4979040000000 1.0
C      1  0.5307420000000  0.4974810000000  0.4856820000000 1.0
C      1  0.4898250000000  0.4139110000000  0.5236760000000 1.0
C      1  0.4611200000000  0.5339570000000  0.5238300000000 1.0
C      1  0.4771210000000  0.5783960000000  0.5461830000000 1.0
C      1  0.4803810000000  0.5293670000000  0.4474870000000 1.0
C      1  0.5307500000000  0.4401130000000  0.4383900000000 1.0
C      1  0.5394290000000  0.5453270000000  0.6000540000000 1.0
C      1  0.4654560000000  0.5250260000000  0.5831930000000 1.0
C      1  0.5065450000000  0.5569330000000  0.4353290000000 1.0
C      1  0.5398860000000  0.4086370000000  0.5207090000000 1.0
C      1  0.4445620000000  0.4774510000000  0.5117550000000 1.0
C      1  0.5033430000000  0.5061880000000  0.4474790000000 1.0
C      1  0.4478040000000  0.4760960000000  0.5524740000000 1.0
C      1  0.4239660000000  0.5489810000000  0.5490830000000 1.0
C      1  0.4728370000000  0.4637470000000  0.4834160000000 1.0
C      1  0.4946060000000  0.5364330000000  0.4174220000000 1.0
C      1  0.5047360000000  0.5171960000000  0.5481670000000 1.0
C      1  0.5283910000000  0.5939800000000  0.5419210000000 1.0
C      1  0.5192550000000  0.5475870000000  0.5432690000000 1.0
C      1  0.4603670000000  0.4196660000000  0.4702820000000 1.0
C      1  0.5664230000000  0.5439960000000  0.4589650000000 1.0
C      1  0.4347730000000  0.4913230000000  0.4450310000000 1.0
C      1  0.4582040000000  0.4747000000000  0.4406700000000 1.0
C      1  0.4329600000000  0.4625150000000  0.4871170000000 1.0
C      1  0.4971830000000  0.4266380000000  0.5485790000000 1.0
C      1  0.4410310000000  0.5247200000000  0.4434020000000 1.0
C      1  0.5250300000000  0.5695310000000  0.4794530000000 1.0
C      1  0.5464620000000  0.5432670000000  0.6252150000000 1.0
C      1  0.4705660000000  0.5622080000000  0.4883000000000 1.0
C      1  0.5278910000000  0.4730880000000  0.5602260000000 1.0
C      1  0.5220880000000  0.5554960000000  0.5102850000000 1.0
C      1  0.4664070000000  0.4262500000000  0.4441850000000 1.0
C      1  0.5396160000000  0.5267470000000  0.5161640000000 1.0
C      1  0.4861560000000  0.5707820000000  0.4493240000000 1.0
C      1  0.4774230000000  0.5263850000000  0.4997580000000 1.0
C      1  0.5883970000000  0.4963060000000  0.4849030000000 1.0
C      1  0.5299140000000  0.5475800000000  0.5755420000000 1.0
C      1  0.5794480000000  0.4639440000000  0.4910740000000 1.0
C      1  0.5484400000000  0.5809010000000  0.5261960000000 1.0
C      1  0.4522530000000  0.4479330000000  0.4325820000000 1.0
C      1  0.5228780000000  0.5257990000000  0.4795650000000 1.0
C      1  0.5036070000000  0.4573530000000  0.4325320000000 1.0
C      1  0.5098500000000  0.4781500000000  0.4827770000000 1.0
C      1  0.4933750000000  0.5413500000000  0.4752310000000 1.0
C      1  0.5109230000000  0.4182310000000  0.4809230000000 1.0
C      1  0.5332650000000  0.5182330000000  0.4366340000000 1.0
C      1  0.4850530000000  0.5079620000000  0.5743390000000 1.0
C      1  0.4575930000000  0.5664420000000  0.5332310000000 1.0
END
