TITL C-3371514-4997-73 -0.00154734723418475 125000 -246.669671770262 0 0 45 (C1) n - 1
REM
REM in /nfs/bkarasulu/CARBON/AIRSS/Generating-Clusters/AIREBO/with-SteepDescent/Only-C1/SD-CG-opt/Try1-1.4A-POS3A/HFTN-CG
REM
REM
REM
REM
REM
REM ./C.cell (11c1c37f851c82e70ff6c80c92926a4b)
REM
REM compiler GCC version 9.2.1 20190827 (Red Hat 9.2.1-1)
REM options -cpp -mtune=generic -march=x86-64 -g -O0 -fpre-include=/usr/include/finclude/math-vector-fortran.h
REM seed -1390924674 -393636985 1782636619 1459517629 -1520375229 -1375067069 -1770903238 1893695054 -295648938 1341529952 -1168251153 1724356350 1921596355 -1922057511 -864978592 -1075961788 -175662574 1792527743 1913278804 1822456170 2054802878 -1481121369 1940153231 1989225771 -2065195914 922854302 -1390294972 -542952016 -504020943 810846768 1763052367 -750504096 -805026436
REM
CELL 1.54180   50.00000   50.00000   50.00000   90.00000   90.00000   90.00000
LATT -1
SFAC C  
C      1  0.4790610000000  0.4421010000000  0.4656180000000 1.0
C      1  0.5212570000000  0.4600360000000  0.4887720000000 1.0
C      1  0.5278220000000  0.4991330000000  0.5377200000000 1.0
C      1  0.4434810000000  0.5432360000000  0.4844570000000 1.0
C      1  0.5496390000000  0.4974930000000  0.5139070000000 1.0
C      1  0.5537560000000  0.5275810000000  0.5029960000000 1.0
C      1  0.5297080000000  0.4712710000000  0.5530800000000 1.0
C      1  0.5479820000000  0.5044090000000  0.4621070000000 1.0
C      1  0.4643070000000  0.4933560000000  0.4454380000000 1.0
C      1  0.5609440000000  0.5261120000000  0.4752730000000 1.0
C      1  0.5296400000000  0.5495900000000  0.5399400000000 1.0
C      1  0.5370060000000  0.5489970000000  0.5123210000000 1.0
C      1  0.5431150000000  0.4827080000000  0.4846530000000 1.0
C      1  0.4954620000000  0.4692840000000  0.5090250000000 1.0
C      1  0.4508390000000  0.4981490000000  0.5132340000000 1.0
C      1  0.5149660000000  0.4991260000000  0.4840390000000 1.0
C      1  0.4797790000000  0.5254650000000  0.4784430000000 1.0
C      1  0.5110000000000  0.4518890000000  0.4627900000000 1.0
C      1  0.5309680000000  0.5222720000000  0.5552260000000 1.0
C      1  0.5044810000000  0.5007510000000  0.5139130000000 1.0
C      1  0.5297540000000  0.5033910000000  0.4416890000000 1.0
C      1  0.4827650000000  0.4320200000000  0.5154340000000 1.0
C      1  0.4726680000000  0.5445250000000  0.5249540000000 1.0
C      1  0.4925580000000  0.5814290000000  0.4947940000000 1.0
C      1  0.4848050000000  0.4781050000000  0.5401420000000 1.0
C      1  0.4674220000000  0.5585150000000  0.4976090000000 1.0
C      1  0.5045300000000  0.5382540000000  0.5599640000000 1.0
C      1  0.4457090000000  0.4826360000000  0.4588500000000 1.0
C      1  0.4933460000000  0.5027810000000  0.4580360000000 1.0
C      1  0.5475240000000  0.4660710000000  0.5279900000000 1.0
C      1  0.4706660000000  0.4544840000000  0.4929570000000 1.0
C      1  0.4779800000000  0.5159220000000  0.5105660000000 1.0
C      1  0.4910940000000  0.4510990000000  0.4355800000000 1.0
C      1  0.5104390000000  0.4782810000000  0.4417840000000 1.0
C      1  0.4699640000000  0.5007220000000  0.5482570000000 1.0
C      1  0.5303390000000  0.4458430000000  0.5144620000000 1.0
C      1  0.4803600000000  0.5280740000000  0.5485520000000 1.0
C      1  0.4484060000000  0.5133690000000  0.4841400000000 1.0
C      1  0.5095520000000  0.5254260000000  0.4377090000000 1.0
C      1  0.5201020000000  0.5626120000000  0.4951830000000 1.0
C      1  0.5071150000000  0.4373160000000  0.5299920000000 1.0
C      1  0.4498300000000  0.4769890000000  0.4886370000000 1.0
C      1  0.4401110000000  0.4977520000000  0.5433160000000 1.0
C      1  0.4933960000000  0.5532720000000  0.4763010000000 1.0
C      1  0.5043530000000  0.4581490000000  0.5501520000000 1.0
END
