TITL C-3371503-4580-18 -0.00264490301432622 125000 -398.123448123715 0 0 73 (C1) n - 1
REM
REM in /nfs/bkarasulu/CARBON/AIRSS/Generating-Clusters/AIREBO/with-SteepDescent/Only-C1/SD-CG-opt/Try1-1.4A-POS3A/HFTN-CG
REM
REM
REM
REM
REM
REM ./C.cell (11c1c37f851c82e70ff6c80c92926a4b)
REM
REM compiler GCC version 9.2.1 20190827 (Red Hat 9.2.1-1)
REM options -cpp -mtune=generic -march=x86-64 -g -O0 -fpre-include=/usr/include/finclude/math-vector-fortran.h
REM seed -282889002 820839968 1131474496 -124010102 1628934958 -1602905008 -195370872 68066076 753660661 -1857595475 -73591801 -790250018 -2069817447 -1688859469 492766867 -2091228533 -533323963 -1219873710 -1228262082 210336421 1245570138 -749360148 -1362995741 171567112 1070638477 1190590881 2104979693 1616672215 676370530 -1595271471 381142848 -1027582313 -198613054
REM
CELL 1.54180   50.00000   50.00000   50.00000   90.00000   90.00000   90.00000
LATT -1
SFAC C  
C      1  0.5215830000000  0.5026000000000  0.4349780000000 1.0
C      1  0.5758700000000  0.4781010000000  0.5139730000000 1.0
C      1  0.5700550000000  0.5131270000000  0.4352230000000 1.0
C      1  0.4700950000000  0.5679920000000  0.4596780000000 1.0
C      1  0.5190140000000  0.5315090000000  0.4237130000000 1.0
C      1  0.5021520000000  0.5300430000000  0.5132390000000 1.0
C      1  0.5596320000000  0.5195920000000  0.5872770000000 1.0
C      1  0.4312160000000  0.4510290000000  0.5001510000000 1.0
C      1  0.4387880000000  0.5065710000000  0.5339120000000 1.0
C      1  0.4766500000000  0.5081050000000  0.5082370000000 1.0
C      1  0.4545030000000  0.5321310000000  0.5176540000000 1.0
C      1  0.4850850000000  0.5380070000000  0.5624240000000 1.0
C      1  0.4981500000000  0.4203440000000  0.4746750000000 1.0
C      1  0.4078810000000  0.5560220000000  0.4889520000000 1.0
C      1  0.5095270000000  0.5903050000000  0.4756470000000 1.0
C      1  0.4829490000000  0.4656580000000  0.4423900000000 1.0
C      1  0.4667920000000  0.5620200000000  0.5700070000000 1.0
C      1  0.5459700000000  0.5043700000000  0.5351730000000 1.0
C      1  0.5373000000000  0.4673980000000  0.4245670000000 1.0
C      1  0.4821340000000  0.5092330000000  0.5625860000000 1.0
C      1  0.5442630000000  0.4756700000000  0.5561340000000 1.0
C      1  0.4970370000000  0.5481480000000  0.5372090000000 1.0
C      1  0.4600880000000  0.5307710000000  0.4465020000000 1.0
C      1  0.4937120000000  0.4956950000000  0.4466460000000 1.0
C      1  0.5568710000000  0.4628130000000  0.5287130000000 1.0
C      1  0.4927950000000  0.5671110000000  0.4440830000000 1.0
C      1  0.5132300000000  0.4702760000000  0.5108430000000 1.0
C      1  0.4990060000000  0.4479030000000  0.4647390000000 1.0
C      1  0.4442020000000  0.4972730000000  0.5662600000000 1.0
C      1  0.4484170000000  0.4755690000000  0.5409940000000 1.0
C      1  0.4765150000000  0.4919470000000  0.5365850000000 1.0
C      1  0.4730370000000  0.5129890000000  0.4304720000000 1.0
C      1  0.5154120000000  0.4674240000000  0.5638390000000 1.0
C      1  0.5346240000000  0.4252200000000  0.5049360000000 1.0
C      1  0.4315040000000  0.5432400000000  0.4952070000000 1.0
C      1  0.4583120000000  0.5615470000000  0.4909230000000 1.0
C      1  0.4741050000000  0.5689560000000  0.5398000000000 1.0
C      1  0.5225950000000  0.4111850000000  0.4848230000000 1.0
C      1  0.5713450000000  0.5059770000000  0.5183070000000 1.0
C      1  0.4738180000000  0.4291030000000  0.5400060000000 1.0
C      1  0.4646810000000  0.5265990000000  0.4729010000000 1.0
C      1  0.5526870000000  0.5053980000000  0.5674510000000 1.0
C      1  0.5158280000000  0.4585890000000  0.4372240000000 1.0
C      1  0.5218280000000  0.5015820000000  0.5174080000000 1.0
C      1  0.5475740000000  0.5591890000000  0.5183250000000 1.0
C      1  0.4928080000000  0.4683670000000  0.4876730000000 1.0
C      1  0.5367100000000  0.4515440000000  0.5129610000000 1.0
C      1  0.4931930000000  0.4439150000000  0.5523460000000 1.0
C      1  0.4619290000000  0.3892990000000  0.4848270000000 1.0
C      1  0.4657030000000  0.4938950000000  0.5874940000000 1.0
C      1  0.4974870000000  0.4862730000000  0.5815760000000 1.0
C      1  0.5523350000000  0.4939170000000  0.4267660000000 1.0
C      1  0.5366900000000  0.5451240000000  0.4683260000000 1.0
C      1  0.4983200000000  0.4718050000000  0.5366260000000 1.0
C      1  0.4569080000000  0.4821830000000  0.4541470000000 1.0
C      1  0.5803360000000  0.4755040000000  0.4858360000000 1.0
C      1  0.5672580000000  0.4945650000000  0.4702490000000 1.0
C      1  0.4656510000000  0.4330110000000  0.5074720000000 1.0
C      1  0.5385160000000  0.4993240000000  0.4635790000000 1.0
C      1  0.4289080000000  0.5099260000000  0.5015460000000 1.0
C      1  0.5166480000000  0.5513030000000  0.4421920000000 1.0
C      1  0.4745200000000  0.4134300000000  0.4875510000000 1.0
C      1  0.4944850000000  0.5003350000000  0.4803260000000 1.0
C      1  0.4456610000000  0.4494880000000  0.5294980000000 1.0
C      1  0.5233170000000  0.5107860000000  0.4855500000000 1.0
C      1  0.4617100000000  0.4652030000000  0.4966140000000 1.0
C      1  0.5657730000000  0.5282020000000  0.4654300000000 1.0
C      1  0.4876640000000  0.5457490000000  0.4877250000000 1.0
C      1  0.4635070000000  0.5795040000000  0.5161220000000 1.0
C      1  0.5767360000000  0.5225620000000  0.4971360000000 1.0
C      1  0.5110940000000  0.5645650000000  0.4794220000000 1.0
C      1  0.4547660000000  0.4963900000000  0.4849700000000 1.0
C      1  0.5325360000000  0.5395020000000  0.5012540000000 1.0
END
