TITL C-3371510-9333-29 -5.38492356218719e-07 125000 -106.326813740768 0 0 20 (C1) n - 1
REM
REM in /nfs/bkarasulu/CARBON/AIRSS/Generating-Clusters/AIREBO/with-SteepDescent/Only-C1/SD-CG-opt/Try1-1.4A-POS3A/HFTN-CG
REM
REM
REM
REM
REM
REM ./C.cell (11c1c37f851c82e70ff6c80c92926a4b)
REM
REM compiler GCC version 9.2.1 20190827 (Red Hat 9.2.1-1)
REM options -cpp -mtune=generic -march=x86-64 -g -O0 -fpre-include=/usr/include/finclude/math-vector-fortran.h
REM seed 2007724575 406401701 -1521909815 1030726167 929864021 1697396733 890871443 17116420 -1586459913 -1793128349 -1831505043 -1682885686 -1125000221 -1115270598 -1533827951 1206091833 -1224785543 -1213852964 -2043898898 162667243 -1709677865 1225053904 -1403786509 -816444509 -1909633445 636247469 -1121535516 1701227578 74448599 1023952625 433434367 208391238 72395044
REM
CELL 1.54180   50.00000   50.00000   50.00000   90.00000   90.00000   90.00000
LATT -1
SFAC C  
C      1  0.5432050000000  0.4806030000000  0.4983570000000 1.0
C      1  0.5360520000000  0.4796060000000  0.5538250000000 1.0
C      1  0.5299810000000  0.4917920000000  0.5234790000000 1.0
C      1  0.4756290000000  0.5071900000000  0.4768240000000 1.0
C      1  0.5682070000000  0.4697400000000  0.4976040000000 1.0
C      1  0.4619960000000  0.5191380000000  0.4993570000000 1.0
C      1  0.5483370000000  0.5079480000000  0.5469200000000 1.0
C      1  0.4794350000000  0.5152930000000  0.5222460000000 1.0
C      1  0.5327190000000  0.4597440000000  0.5711750000000 1.0
C      1  0.5006940000000  0.4970130000000  0.4856730000000 1.0
C      1  0.3998310000000  0.5491270000000  0.4614420000000 1.0
C      1  0.5914880000000  0.4567980000000  0.4973640000000 1.0
C      1  0.4128830000000  0.5437350000000  0.4834240000000 1.0
C      1  0.4555260000000  0.5031370000000  0.4272460000000 1.0
C      1  0.4398800000000  0.5343820000000  0.4984790000000 1.0
C      1  0.6153270000000  0.4459680000000  0.4985600000000 1.0
C      1  0.5246920000000  0.4845210000000  0.4768160000000 1.0
C      1  0.4647830000000  0.5039520000000  0.4517530000000 1.0
C      1  0.5032670000000  0.5020070000000  0.5142010000000 1.0
C      1  0.4160680000000  0.5483060000000  0.5152560000000 1.0
END
