TITL C-3371504-3437-53 -0.00143806209001129 125000 -217.119342197047 0 0 41 (C1) n - 1
REM
REM in /nfs/bkarasulu/CARBON/AIRSS/Generating-Clusters/AIREBO/with-SteepDescent/Only-C1/SD-CG-opt/Try1-1.4A-POS3A/HFTN-CG
REM
REM
REM
REM
REM
REM ./C.cell (11c1c37f851c82e70ff6c80c92926a4b)
REM
REM compiler GCC version 9.2.1 20190827 (Red Hat 9.2.1-1)
REM options -cpp -mtune=generic -march=x86-64 -g -O0 -fpre-include=/usr/include/finclude/math-vector-fortran.h
REM seed 1785678908 -1164753597 681902912 620819290 2022727125 -758969976 45020992 -1671903330 -1809704569 849209130 19162534 1421342530 -1228245278 -1807623588 1150815846 -484176475 -1952960071 837379470 2100575066 -547278363 -769406586 -869686320 1551647883 430661444 92907042 -52064503 -1431326688 252386978 398691593 265686230 -1732141103 -1906196159 649889863
REM
CELL 1.54180   50.00000   50.00000   50.00000   90.00000   90.00000   90.00000
LATT -1
SFAC C  
C      1  0.5165670000000  0.4299350000000  0.4689910000000 1.0
C      1  0.5752590000000  0.4753460000000  0.5028160000000 1.0
C      1  0.4960540000000  0.5051500000000  0.5560050000000 1.0
C      1  0.4408780000000  0.4676340000000  0.4875480000000 1.0
C      1  0.5031790000000  0.5299870000000  0.5729610000000 1.0
C      1  0.4497060000000  0.4973820000000  0.4448670000000 1.0
C      1  0.4674960000000  0.5057990000000  0.4931990000000 1.0
C      1  0.5376430000000  0.5304870000000  0.4592020000000 1.0
C      1  0.5420690000000  0.5133250000000  0.5206690000000 1.0
C      1  0.5087290000000  0.5078260000000  0.5245440000000 1.0
C      1  0.4944820000000  0.5516920000000  0.4955000000000 1.0
C      1  0.5134050000000  0.4459640000000  0.4942980000000 1.0
C      1  0.4333590000000  0.5119640000000  0.4295250000000 1.0
C      1  0.5101430000000  0.4603350000000  0.4574570000000 1.0
C      1  0.4511280000000  0.4710190000000  0.4608610000000 1.0
C      1  0.4813850000000  0.4664720000000  0.4593540000000 1.0
C      1  0.5302190000000  0.5600200000000  0.4588520000000 1.0
C      1  0.4194520000000  0.4528540000000  0.4939930000000 1.0
C      1  0.5688680000000  0.5016320000000  0.5380310000000 1.0
C      1  0.5035330000000  0.5480490000000  0.4699560000000 1.0
C      1  0.4677530000000  0.5352040000000  0.5023890000000 1.0
C      1  0.5217720000000  0.4748140000000  0.4344980000000 1.0
C      1  0.4763640000000  0.4858660000000  0.5562190000000 1.0
C      1  0.5440580000000  0.5009530000000  0.5585310000000 1.0
C      1  0.5266950000000  0.4728220000000  0.4882160000000 1.0
C      1  0.4434960000000  0.5486130000000  0.5010660000000 1.0
C      1  0.4857430000000  0.5436330000000  0.5524360000000 1.0
C      1  0.5074670000000  0.5150610000000  0.4620340000000 1.0
C      1  0.5491140000000  0.4820470000000  0.5092180000000 1.0
C      1  0.4773610000000  0.5006120000000  0.4643800000000 1.0
C      1  0.4571120000000  0.4820860000000  0.5055900000000 1.0
C      1  0.5298990000000  0.5262130000000  0.5590830000000 1.0
C      1  0.5167330000000  0.4999330000000  0.4335660000000 1.0
C      1  0.5129590000000  0.5564430000000  0.5164390000000 1.0
C      1  0.5126500000000  0.5003390000000  0.4915880000000 1.0
C      1  0.4974080000000  0.4481440000000  0.5163620000000 1.0
C      1  0.4730620000000  0.4690100000000  0.5276700000000 1.0
C      1  0.4843140000000  0.5312170000000  0.5281830000000 1.0
C      1  0.5297560000000  0.5408620000000  0.5325310000000 1.0
C      1  0.5063150000000  0.4748090000000  0.5323220000000 1.0
C      1  0.5364150000000  0.4784450000000  0.5390520000000 1.0
END
