TITL C-3371499-8025-17 0.00197064269432108 125000 -995.433167481432 0 0 192 (C1) n - 1
REM
REM in /nfs/bkarasulu/CARBON/AIRSS/Generating-Clusters/AIREBO/with-SteepDescent/Only-C1/SD-CG-opt/Try1-1.4A-POS3A/HFTN-CG
REM
REM
REM
REM
REM
REM ./C.cell (11c1c37f851c82e70ff6c80c92926a4b)
REM
REM compiler GCC version 9.2.1 20190827 (Red Hat 9.2.1-1)
REM options -cpp -mtune=generic -march=x86-64 -g -O0 -fpre-include=/usr/include/finclude/math-vector-fortran.h
REM seed 1992895090 -911124876 -1819193470 -1208877350 -1353725986 185555957 379889921 -2065955501 1127339415 -2082812465 -72801407 -1035743334 -882873571 -978173371 359741593 -1720953003 2061742703 -1627028161 344217481 -1326539228 1261434750 1003314834 2028164015 -270154699 -1751554254 364896488 978034274 993107094 -1477488658 1515333411 -698841830 1433137223 -2011672913
REM
CELL 1.54180   50.00000   50.00000   50.00000   90.00000   90.00000   90.00000
LATT -1
SFAC C  
C      1  0.4924520000000  0.4279280000000  0.5775480000000 1.0
C      1  0.4875300000000  0.5632830000000  0.5441690000000 1.0
C      1  0.4211490000000  0.5028490000000  0.5761590000000 1.0
C      1  0.4717810000000  0.5548610000000  0.5085860000000 1.0
C      1  0.5458510000000  0.4602760000000  0.4844450000000 1.0
C      1  0.5689430000000  0.5156450000000  0.4274890000000 1.0
C      1  0.5169200000000  0.4691840000000  0.4535210000000 1.0
C      1  0.5766310000000  0.5271440000000  0.5840240000000 1.0
C      1  0.5360020000000  0.4936080000000  0.5117260000000 1.0
C      1  0.4265040000000  0.4694870000000  0.4679300000000 1.0
C      1  0.4339000000000  0.5024400000000  0.4281720000000 1.0
C      1  0.5836740000000  0.5685210000000  0.4638160000000 1.0
C      1  0.5586760000000  0.4787590000000  0.5320960000000 1.0
C      1  0.5402400000000  0.4767530000000  0.4039350000000 1.0
C      1  0.5546850000000  0.5790170000000  0.4536040000000 1.0
C      1  0.4309210000000  0.5563750000000  0.4452360000000 1.0
C      1  0.4928400000000  0.5277110000000  0.4183840000000 1.0
C      1  0.5281610000000  0.4888020000000  0.4789430000000 1.0
C      1  0.4459370000000  0.4521220000000  0.5700070000000 1.0
C      1  0.5380980000000  0.4572110000000  0.5781420000000 1.0
C      1  0.4795610000000  0.5779040000000  0.4713790000000 1.0
C      1  0.4797850000000  0.3970320000000  0.5332560000000 1.0
C      1  0.3860280000000  0.4768210000000  0.4845110000000 1.0
C      1  0.4726790000000  0.4514680000000  0.3998450000000 1.0
C      1  0.4523820000000  0.4720050000000  0.4460150000000 1.0
C      1  0.4662140000000  0.4792340000000  0.4158000000000 1.0
C      1  0.4642180000000  0.4423890000000  0.4438370000000 1.0
C      1  0.5923260000000  0.5370030000000  0.4398620000000 1.0
C      1  0.5338350000000  0.4200800000000  0.5537280000000 1.0
C      1  0.4467660000000  0.5094790000000  0.4583150000000 1.0
C      1  0.4195070000000  0.4695150000000  0.5760740000000 1.0
C      1  0.5505990000000  0.5564260000000  0.5768100000000 1.0
C      1  0.3987010000000  0.5562740000000  0.4988640000000 1.0
C      1  0.3941400000000  0.5483850000000  0.5316620000000 1.0
C      1  0.5141290000000  0.5536590000000  0.5252810000000 1.0
C      1  0.4414630000000  0.5851690000000  0.4506820000000 1.0
C      1  0.5154540000000  0.5923320000000  0.4625270000000 1.0
C      1  0.5502060000000  0.4053680000000  0.4817490000000 1.0
C      1  0.5190890000000  0.4312550000000  0.5891480000000 1.0
C      1  0.6015530000000  0.4860920000000  0.5623130000000 1.0
C      1  0.5556170000000  0.5315570000000  0.4544190000000 1.0
C      1  0.4668300000000  0.4606480000000  0.4893790000000 1.0
C      1  0.4844370000000  0.4947420000000  0.4388660000000 1.0
C      1  0.5963570000000  0.4537920000000  0.4994560000000 1.0
C      1  0.6265870000000  0.4920720000000  0.5134840000000 1.0
C      1  0.5772660000000  0.5575910000000  0.5592120000000 1.0
C      1  0.4589700000000  0.5800900000000  0.5443130000000 1.0
C      1  0.6014240000000  0.5425130000000  0.5401630000000 1.0
C      1  0.5245060000000  0.3934740000000  0.4922190000000 1.0
C      1  0.4605810000000  0.5516390000000  0.4610490000000 1.0
C      1  0.5181650000000  0.5977650000000  0.4953120000000 1.0
C      1  0.5808730000000  0.4913070000000  0.4167630000000 1.0
C      1  0.5221680000000  0.4414950000000  0.4000990000000 1.0
C      1  0.4592180000000  0.5132710000000  0.5819290000000 1.0
C      1  0.5843170000000  0.4377620000000  0.4529040000000 1.0
C      1  0.4490080000000  0.4499750000000  0.5361940000000 1.0
C      1  0.4829070000000  0.6002250000000  0.5309310000000 1.0
C      1  0.5756070000000  0.4985330000000  0.5115750000000 1.0
C      1  0.4794220000000  0.5467580000000  0.5985290000000 1.0
C      1  0.4289650000000  0.4409350000000  0.4862290000000 1.0
C      1  0.5241530000000  0.4742320000000  0.6043790000000 1.0
C      1  0.4362010000000  0.5509430000000  0.4169770000000 1.0
C      1  0.4445770000000  0.4846780000000  0.5931270000000 1.0
C      1  0.5927880000000  0.5159450000000  0.5589470000000 1.0
C      1  0.4243370000000  0.4698180000000  0.4269120000000 1.0
C      1  0.4871170000000  0.5672030000000  0.4195110000000 1.0
C      1  0.4991290000000  0.5697210000000  0.4980300000000 1.0
C      1  0.5235470000000  0.5142720000000  0.5596700000000 1.0
C      1  0.4816530000000  0.4483720000000  0.5358160000000 1.0
C      1  0.5157150000000  0.5296540000000  0.3953300000000 1.0
C      1  0.4899830000000  0.5091340000000  0.5917880000000 1.0
C      1  0.4762610000000  0.4252030000000  0.4100490000000 1.0
C      1  0.5643950000000  0.5550720000000  0.4314820000000 1.0
C      1  0.4028320000000  0.4963860000000  0.5503630000000 1.0
C      1  0.5921190000000  0.5480190000000  0.5078310000000 1.0
C      1  0.4241520000000  0.5322320000000  0.5832580000000 1.0
C      1  0.4584350000000  0.4041930000000  0.5076090000000 1.0
C      1  0.5004450000000  0.4953540000000  0.6126320000000 1.0
C      1  0.4089700000000  0.5206250000000  0.4857220000000 1.0
C      1  0.5261930000000  0.4274220000000  0.4240140000000 1.0
C      1  0.5383980000000  0.4484920000000  0.5154610000000 1.0
C      1  0.5170680000000  0.4962640000000  0.4337390000000 1.0
C      1  0.5593760000000  0.4747490000000  0.4583430000000 1.0
C      1  0.5414420000000  0.5552750000000  0.5050850000000 1.0
C      1  0.4483390000000  0.5139700000000  0.5166310000000 1.0
C      1  0.4384940000000  0.4773000000000  0.4987740000000 1.0
C      1  0.4079110000000  0.5463470000000  0.4664730000000 1.0
C      1  0.5446220000000  0.4305380000000  0.4680060000000 1.0
C      1  0.5713820000000  0.4083020000000  0.4990070000000 1.0
C      1  0.5302340000000  0.5835900000000  0.5711950000000 1.0
C      1  0.4071280000000  0.4836760000000  0.5102760000000 1.0
C      1  0.4900230000000  0.5397240000000  0.4731890000000 1.0
C      1  0.5706320000000  0.4380250000000  0.5125020000000 1.0
C      1  0.4728970000000  0.5299730000000  0.5245210000000 1.0
C      1  0.4464950000000  0.5559640000000  0.4909620000000 1.0
C      1  0.6081800000000  0.4806510000000  0.4582450000000 1.0
C      1  0.4757490000000  0.4810960000000  0.5136710000000 1.0
C      1  0.5123080000000  0.5731270000000  0.4417430000000 1.0
C      1  0.4646000000000  0.5880500000000  0.5063430000000 1.0
C      1  0.5535430000000  0.5109600000000  0.5643990000000 1.0
C      1  0.4535020000000  0.4186590000000  0.4786220000000 1.0
C      1  0.4827000000000  0.5023400000000  0.3878960000000 1.0
C      1  0.4450910000000  0.4163910000000  0.5326010000000 1.0
C      1  0.3986670000000  0.4635460000000  0.5342330000000 1.0
C      1  0.5532370000000  0.5411820000000  0.4025110000000 1.0
C      1  0.4040020000000  0.4910400000000  0.4593890000000 1.0
C      1  0.5314570000000  0.4632480000000  0.5453230000000 1.0
C      1  0.4349390000000  0.5904170000000  0.5219610000000 1.0
C      1  0.4651410000000  0.4251460000000  0.5747710000000 1.0
C      1  0.4724890000000  0.5699680000000  0.5805500000000 1.0
C      1  0.5064330000000  0.5404920000000  0.4444460000000 1.0
C      1  0.3840820000000  0.5084390000000  0.4892190000000 1.0
C      1  0.4477700000000  0.4835440000000  0.5308840000000 1.0
C      1  0.5281650000000  0.5182670000000  0.4618130000000 1.0
C      1  0.5491470000000  0.5306050000000  0.5989020000000 1.0
C      1  0.4917760000000  0.4227890000000  0.5192950000000 1.0
C      1  0.5902100000000  0.5753190000000  0.4923750000000 1.0
C      1  0.4102380000000  0.5191960000000  0.4459990000000 1.0
C      1  0.5098540000000  0.4609200000000  0.5017920000000 1.0
C      1  0.4377080000000  0.5087250000000  0.4857030000000 1.0
C      1  0.4974150000000  0.5820140000000  0.5688650000000 1.0
C      1  0.4626090000000  0.6068970000000  0.4660700000000 1.0
C      1  0.5357000000000  0.5180920000000  0.4202930000000 1.0
C      1  0.5185020000000  0.5245690000000  0.4936860000000 1.0
C      1  0.5517680000000  0.5249470000000  0.4933860000000 1.0
C      1  0.3701210000000  0.4549950000000  0.4813940000000 1.0
C      1  0.5404050000000  0.5041010000000  0.6037440000000 1.0
C      1  0.5420470000000  0.4633870000000  0.4313580000000 1.0
C      1  0.4520020000000  0.5442040000000  0.5697300000000 1.0
C      1  0.6029340000000  0.4502610000000  0.5322000000000 1.0
C      1  0.5562780000000  0.4846550000000  0.5837050000000 1.0
C      1  0.4918760000000  0.4657110000000  0.6115730000000 1.0
C      1  0.5106310000000  0.3998480000000  0.5472970000000 1.0
C      1  0.5152170000000  0.5606300000000  0.4042140000000 1.0
C      1  0.4376110000000  0.4281810000000  0.4500770000000 1.0
C      1  0.4714570000000  0.4645730000000  0.5887670000000 1.0
C      1  0.5000210000000  0.3886980000000  0.4764790000000 1.0
C      1  0.3967830000000  0.4590110000000  0.5632400000000 1.0
C      1  0.5205810000000  0.5202410000000  0.5261980000000 1.0
C      1  0.5019660000000  0.5348980000000  0.5759680000000 1.0
C      1  0.4586500000000  0.5109450000000  0.4061420000000 1.0
C      1  0.4495580000000  0.5332240000000  0.6077210000000 1.0
C      1  0.4125940000000  0.5507200000000  0.5582060000000 1.0
C      1  0.5153990000000  0.4956470000000  0.3942340000000 1.0
C      1  0.4068230000000  0.5143880000000  0.5250940000000 1.0
C      1  0.5016840000000  0.4668020000000  0.4023500000000 1.0
C      1  0.4618380000000  0.4923010000000  0.5573740000000 1.0
C      1  0.6024120000000  0.4831310000000  0.5096050000000 1.0
C      1  0.4700030000000  0.5241930000000  0.4433260000000 1.0
C      1  0.5096920000000  0.4882680000000  0.5475520000000 1.0
C      1  0.4214370000000  0.4452200000000  0.5168560000000 1.0
C      1  0.4773530000000  0.5356420000000  0.5542160000000 1.0
C      1  0.5619490000000  0.4374500000000  0.5641150000000 1.0
C      1  0.5988270000000  0.4537980000000  0.4696590000000 1.0
C      1  0.5802510000000  0.4627290000000  0.5511520000000 1.0
C      1  0.4254820000000  0.5382740000000  0.5096440000000 1.0
C      1  0.4846070000000  0.4121520000000  0.4664100000000 1.0
C      1  0.5614780000000  0.4187880000000  0.5361840000000 1.0
C      1  0.5080310000000  0.4394350000000  0.5516810000000 1.0
C      1  0.4643430000000  0.5441090000000  0.4096640000000 1.0
C      1  0.5680660000000  0.4994310000000  0.4799310000000 1.0
C      1  0.5546840000000  0.4340220000000  0.4390140000000 1.0
C      1  0.4914740000000  0.5052600000000  0.5246100000000 1.0
C      1  0.4941070000000  0.4546730000000  0.4332130000000 1.0
C      1  0.4740420000000  0.5881100000000  0.4394190000000 1.0
C      1  0.5118940000000  0.5995070000000  0.5261650000000 1.0
C      1  0.5202750000000  0.5536440000000  0.4787150000000 1.0
C      1  0.5650370000000  0.5526770000000  0.5278670000000 1.0
C      1  0.5657100000000  0.4815510000000  0.3952380000000 1.0
C      1  0.4021770000000  0.4245270000000  0.5265850000000 1.0
C      1  0.5352080000000  0.5947790000000  0.5417790000000 1.0
C      1  0.5387410000000  0.5756570000000  0.4228460000000 1.0
C      1  0.4965560000000  0.4872460000000  0.4893960000000 1.0
C      1  0.5235940000000  0.5539940000000  0.5579570000000 1.0
C      1  0.5689290000000  0.5197640000000  0.5355100000000 1.0
C      1  0.4759760000000  0.4825570000000  0.4663050000000 1.0
C      1  0.4174620000000  0.4428850000000  0.4348360000000 1.0
C      1  0.4400250000000  0.5883710000000  0.4841800000000 1.0
C      1  0.4895180000000  0.4365630000000  0.4895710000000 1.0
C      1  0.5793160000000  0.5376820000000  0.4780560000000 1.0
C      1  0.5599700000000  0.5861920000000  0.5306620000000 1.0
C      1  0.4854500000000  0.4715570000000  0.5592420000000 1.0
C      1  0.5848680000000  0.4752860000000  0.4390930000000 1.0
C      1  0.5154910000000  0.4404620000000  0.4681930000000 1.0
C      1  0.4961680000000  0.4209810000000  0.4373280000000 1.0
C      1  0.5462530000000  0.5830430000000  0.4860190000000 1.0
C      1  0.4574310000000  0.4046590000000  0.5571440000000 1.0
C      1  0.5222360000000  0.4187130000000  0.5140680000000 1.0
C      1  0.5944420000000  0.5111330000000  0.4619400000000 1.0
C      1  0.5432630000000  0.3949750000000  0.5241360000000 1.0
C      1  0.5698730000000  0.5920860000000  0.5037860000000 1.0
C      1  0.4322440000000  0.5600930000000  0.5348500000000 1.0
END
