TITL C-3371513-6555-45 0.00328338684501335 125000 -738.855185802973 0 0 137 (C1) n - 1
REM
REM in /nfs/bkarasulu/CARBON/AIRSS/Generating-Clusters/AIREBO/with-SteepDescent/Only-C1/SD-CG-opt/Try1-1.4A-POS3A/HFTN-CG
REM
REM
REM
REM
REM
REM ./C.cell (11c1c37f851c82e70ff6c80c92926a4b)
REM
REM compiler GCC version 9.2.1 20190827 (Red Hat 9.2.1-1)
REM options -cpp -mtune=generic -march=x86-64 -g -O0 -fpre-include=/usr/include/finclude/math-vector-fortran.h
REM seed 648392219 1786744218 676723412 303376631 -107713708 1546328209 1476930251 -1413094366 -924159851 1527140085 -843801766 400376633 -93628018 -106973842 1823104520 -225621329 -149578701 630973858 89165264 -341340250 709551817 -340612069 1044110689 176642452 -634747932 211719021 1958249250 1449648345 758059429 -364515219 1103025459 655999145 102851245
REM
CELL 1.54180   50.00000   50.00000   50.00000   90.00000   90.00000   90.00000
LATT -1
SFAC C  
C      1  0.4469370000000  0.5298550000000  0.4855510000000 1.0
C      1  0.5647900000000  0.5269210000000  0.5254860000000 1.0
C      1  0.4523360000000  0.4860840000000  0.4614190000000 1.0
C      1  0.4961990000000  0.5890250000000  0.5386180000000 1.0
C      1  0.4374180000000  0.4728580000000  0.5765030000000 1.0
C      1  0.4756590000000  0.5823190000000  0.5163150000000 1.0
C      1  0.5717880000000  0.5256370000000  0.5749410000000 1.0
C      1  0.5324720000000  0.4176960000000  0.4340700000000 1.0
C      1  0.4725210000000  0.4310020000000  0.5465550000000 1.0
C      1  0.5437810000000  0.5038160000000  0.5252330000000 1.0
C      1  0.5299850000000  0.3959150000000  0.5119510000000 1.0
C      1  0.4937060000000  0.5449620000000  0.5292420000000 1.0
C      1  0.5492290000000  0.4585370000000  0.4985780000000 1.0
C      1  0.4257950000000  0.4632260000000  0.5018710000000 1.0
C      1  0.5278340000000  0.4780450000000  0.5845730000000 1.0
C      1  0.4756870000000  0.5396240000000  0.5008840000000 1.0
C      1  0.5846050000000  0.5351190000000  0.4308340000000 1.0
C      1  0.5075080000000  0.4732610000000  0.5576950000000 1.0
C      1  0.4485030000000  0.4416230000000  0.3673800000000 1.0
C      1  0.4284850000000  0.4929690000000  0.4846680000000 1.0
C      1  0.4254520000000  0.4633320000000  0.4260780000000 1.0
C      1  0.5867960000000  0.4991950000000  0.4663460000000 1.0
C      1  0.5837100000000  0.4625310000000  0.5253650000000 1.0
C      1  0.4708650000000  0.4625590000000  0.4117240000000 1.0
C      1  0.5236340000000  0.5195150000000  0.5677800000000 1.0
C      1  0.5037820000000  0.5920510000000  0.4998010000000 1.0
C      1  0.4921340000000  0.5937810000000  0.4694580000000 1.0
C      1  0.5352160000000  0.5065750000000  0.4864620000000 1.0
C      1  0.5125520000000  0.5832020000000  0.4477480000000 1.0
C      1  0.5742050000000  0.4345940000000  0.5417180000000 1.0
C      1  0.4855470000000  0.4763130000000  0.4920320000000 1.0
C      1  0.4301710000000  0.5597600000000  0.4869470000000 1.0
C      1  0.4063110000000  0.4682780000000  0.5410430000000 1.0
C      1  0.4967090000000  0.5170670000000  0.5471600000000 1.0
C      1  0.4783160000000  0.4705780000000  0.5974620000000 1.0
C      1  0.4449290000000  0.5282110000000  0.4241020000000 1.0
C      1  0.4900960000000  0.4410040000000  0.5245770000000 1.0
C      1  0.4202910000000  0.4890380000000  0.5576830000000 1.0
C      1  0.5213260000000  0.5361450000000  0.4805380000000 1.0
C      1  0.5816390000000  0.4514320000000  0.4752300000000 1.0
C      1  0.5497540000000  0.4885460000000  0.4187440000000 1.0
C      1  0.5660570000000  0.4738350000000  0.5748910000000 1.0
C      1  0.5645920000000  0.4644630000000  0.4307560000000 1.0
C      1  0.4653580000000  0.5687610000000  0.4537030000000 1.0
C      1  0.6060330000000  0.4870450000000  0.4895450000000 1.0
C      1  0.5380340000000  0.5519450000000  0.5040150000000 1.0
C      1  0.5182390000000  0.5264750000000  0.4419180000000 1.0
C      1  0.5434800000000  0.4141270000000  0.5281160000000 1.0
C      1  0.5366420000000  0.4817640000000  0.4557260000000 1.0
C      1  0.4414410000000  0.4572140000000  0.4735490000000 1.0
C      1  0.4823540000000  0.4066680000000  0.4554890000000 1.0
C      1  0.4865640000000  0.5740550000000  0.4332090000000 1.0
C      1  0.4994710000000  0.4685440000000  0.4498920000000 1.0
C      1  0.5585400000000  0.5281580000000  0.4920790000000 1.0
C      1  0.5462290000000  0.4498360000000  0.5837530000000 1.0
C      1  0.5175760000000  0.4047930000000  0.4901080000000 1.0
C      1  0.5450860000000  0.4280450000000  0.5580660000000 1.0
C      1  0.5475790000000  0.5708820000000  0.5415830000000 1.0
C      1  0.4232350000000  0.4450550000000  0.5396140000000 1.0
C      1  0.5500300000000  0.5022370000000  0.5781100000000 1.0
C      1  0.5613830000000  0.4324440000000  0.5117540000000 1.0
C      1  0.4422750000000  0.5550310000000  0.5798680000000 1.0
C      1  0.4526760000000  0.4629620000000  0.4360560000000 1.0
C      1  0.3961790000000  0.4735960000000  0.5149670000000 1.0
C      1  0.4481890000000  0.4149740000000  0.5034180000000 1.0
C      1  0.5223260000000  0.5544200000000  0.4546130000000 1.0
C      1  0.5646560000000  0.5429200000000  0.5516190000000 1.0
C      1  0.4716270000000  0.4809660000000  0.5185150000000 1.0
C      1  0.5506570000000  0.4379520000000  0.4349220000000 1.0
C      1  0.4848510000000  0.5376290000000  0.5866080000000 1.0
C      1  0.4572310000000  0.4099130000000  0.5288230000000 1.0
C      1  0.4246360000000  0.4292500000000  0.5011300000000 1.0
C      1  0.4841660000000  0.4457230000000  0.5749110000000 1.0
C      1  0.4092040000000  0.5214810000000  0.5592780000000 1.0
C      1  0.4196170000000  0.5638640000000  0.5140510000000 1.0
C      1  0.4964700000000  0.5150730000000  0.4902520000000 1.0
C      1  0.4542830000000  0.5408360000000  0.5272740000000 1.0
C      1  0.5953820000000  0.4626180000000  0.4977180000000 1.0
C      1  0.5855830000000  0.5217600000000  0.4072280000000 1.0
C      1  0.4558550000000  0.5311940000000  0.5872410000000 1.0
C      1  0.5759910000000  0.5586530000000  0.4689540000000 1.0
C      1  0.5865330000000  0.4691230000000  0.5574060000000 1.0
C      1  0.5158180000000  0.4470970000000  0.4600430000000 1.0
C      1  0.4020730000000  0.5146010000000  0.4832420000000 1.0
C      1  0.5814670000000  0.4707280000000  0.4516270000000 1.0
C      1  0.4888060000000  0.5191090000000  0.4431000000000 1.0
C      1  0.5174640000000  0.4549610000000  0.5017580000000 1.0
C      1  0.4467380000000  0.5736420000000  0.5320870000000 1.0
C      1  0.4714920000000  0.3921800000000  0.4370240000000 1.0
C      1  0.5103880000000  0.5630120000000  0.5117500000000 1.0
C      1  0.4659760000000  0.5090320000000  0.5242760000000 1.0
C      1  0.5345210000000  0.5469730000000  0.5619330000000 1.0
C      1  0.4969880000000  0.4287750000000  0.4945910000000 1.0
C      1  0.5551260000000  0.5785220000000  0.5111660000000 1.0
C      1  0.4973100000000  0.4700920000000  0.4100170000000 1.0
C      1  0.5025290000000  0.5173470000000  0.5898850000000 1.0
C      1  0.5154720000000  0.5719320000000  0.5537690000000 1.0
C      1  0.5165670000000  0.4434200000000  0.5683850000000 1.0
C      1  0.5690270000000  0.5266540000000  0.4597620000000 1.0
C      1  0.5111290000000  0.5042010000000  0.5190070000000 1.0
C      1  0.5219810000000  0.4797870000000  0.4078860000000 1.0
C      1  0.4067710000000  0.5363000000000  0.5091390000000 1.0
C      1  0.4305660000000  0.5135960000000  0.5105510000000 1.0
C      1  0.4597680000000  0.4505770000000  0.3892830000000 1.0
C      1  0.5178670000000  0.4811160000000  0.4826160000000 1.0
C      1  0.4362280000000  0.5707930000000  0.4413410000000 1.0
C      1  0.5618670000000  0.4873230000000  0.4855830000000 1.0
C      1  0.5347580000000  0.5925210000000  0.4913520000000 1.0
C      1  0.4475820000000  0.4730870000000  0.6027790000000 1.0
C      1  0.4263350000000  0.5450580000000  0.4390410000000 1.0
C      1  0.5565900000000  0.4794970000000  0.5243190000000 1.0
C      1  0.5893400000000  0.5436810000000  0.5120290000000 1.0
C      1  0.5491130000000  0.4516450000000  0.4652730000000 1.0
C      1  0.4868110000000  0.5568590000000  0.5603560000000 1.0
C      1  0.4685610000000  0.4193350000000  0.4814920000000 1.0
C      1  0.4615340000000  0.5353360000000  0.4553270000000 1.0
C      1  0.5040070000000  0.4906920000000  0.6012970000000 1.0
C      1  0.5112590000000  0.4150240000000  0.4598490000000 1.0
C      1  0.4745080000000  0.5694310000000  0.4851010000000 1.0
C      1  0.5434410000000  0.5100730000000  0.4442380000000 1.0
C      1  0.4569990000000  0.4374550000000  0.4582080000000 1.0
C      1  0.5391270000000  0.5895440000000  0.4635430000000 1.0
C      1  0.4738880000000  0.5310140000000  0.4177850000000 1.0
C      1  0.4838310000000  0.5572340000000  0.4117550000000 1.0
C      1  0.4819720000000  0.4851010000000  0.5687310000000 1.0
C      1  0.4667580000000  0.5115690000000  0.5623930000000 1.0
C      1  0.5668470000000  0.5041800000000  0.3980420000000 1.0
C      1  0.5639710000000  0.5798350000000  0.4547100000000 1.0
C      1  0.4488030000000  0.4635540000000  0.5269360000000 1.0
C      1  0.4360350000000  0.6024140000000  0.5347320000000 1.0
C      1  0.5032360000000  0.4722310000000  0.5274980000000 1.0
C      1  0.5793750000000  0.5636640000000  0.4963480000000 1.0
C      1  0.4384880000000  0.5141100000000  0.5436400000000 1.0
C      1  0.4576800000000  0.5689690000000  0.5618090000000 1.0
C      1  0.4849320000000  0.4953100000000  0.4650520000000 1.0
C      1  0.4557030000000  0.4561880000000  0.5594240000000 1.0
C      1  0.4195920000000  0.5351370000000  0.4660240000000 1.0
END
