TITL C-3371505-1292-4 -0.00135282941103969 125000 -959.447077163656 0 0 178 (C1) n - 1
REM
REM in /nfs/bkarasulu/CARBON/AIRSS/Generating-Clusters/AIREBO/with-SteepDescent/Only-C1/SD-CG-opt/Try1-1.4A-POS3A/HFTN-CG
REM
REM
REM
REM
REM
REM ./C.cell (11c1c37f851c82e70ff6c80c92926a4b)
REM
REM compiler GCC version 9.2.1 20190827 (Red Hat 9.2.1-1)
REM options -cpp -mtune=generic -march=x86-64 -g -O0 -fpre-include=/usr/include/finclude/math-vector-fortran.h
REM seed 452221424 -1556923086 1002959870 -890574656 -10885205 -1931018878 -184544546 -1605006728 600519559 -264985624 990140442 1699766167 -1889475731 4981269 1862038821 769957511 -497595895 -797375144 719321386 -1210174759 -1030232851 1621087958 -975700254 2061060692 1680034314 -1552141711 1717042420 -418495103 1276450522 1427982663 622297754 1600850485 809009220
REM
CELL 1.54180   50.00000   50.00000   50.00000   90.00000   90.00000   90.00000
LATT -1
SFAC C  
C      1  0.5884190000000  0.5041010000000  0.4407100000000 1.0
C      1  0.5872200000000  0.4919000000000  0.5615660000000 1.0
C      1  0.4774800000000  0.3978540000000  0.5039110000000 1.0
C      1  0.6119520000000  0.4920760000000  0.4621370000000 1.0
C      1  0.5176890000000  0.5302380000000  0.5400210000000 1.0
C      1  0.4551120000000  0.6008380000000  0.4548500000000 1.0
C      1  0.4968820000000  0.5726540000000  0.4646270000000 1.0
C      1  0.5136880000000  0.5861630000000  0.4155140000000 1.0
C      1  0.4440150000000  0.4872740000000  0.6029480000000 1.0
C      1  0.4219260000000  0.5081570000000  0.6093400000000 1.0
C      1  0.5872240000000  0.4775410000000  0.4789730000000 1.0
C      1  0.4298090000000  0.4737040000000  0.4609250000000 1.0
C      1  0.4019800000000  0.5436580000000  0.4732700000000 1.0
C      1  0.4628140000000  0.4368150000000  0.4728490000000 1.0
C      1  0.5457330000000  0.5421040000000  0.5085650000000 1.0
C      1  0.4767930000000  0.4087960000000  0.4738630000000 1.0
C      1  0.4557110000000  0.5698050000000  0.5646330000000 1.0
C      1  0.4816750000000  0.5381360000000  0.5552050000000 1.0
C      1  0.4614030000000  0.5639030000000  0.4176340000000 1.0
C      1  0.4876680000000  0.5277530000000  0.5269270000000 1.0
C      1  0.4469330000000  0.4014410000000  0.4894100000000 1.0
C      1  0.5389620000000  0.4321400000000  0.5148710000000 1.0
C      1  0.4946380000000  0.5686610000000  0.5104600000000 1.0
C      1  0.4187400000000  0.5146110000000  0.5215990000000 1.0
C      1  0.5505510000000  0.5388390000000  0.4274560000000 1.0
C      1  0.5069170000000  0.5284980000000  0.5849820000000 1.0
C      1  0.5465970000000  0.5978090000000  0.4788160000000 1.0
C      1  0.4451480000000  0.5256110000000  0.5918780000000 1.0
C      1  0.5343590000000  0.4940620000000  0.5415700000000 1.0
C      1  0.5020360000000  0.4605290000000  0.5302910000000 1.0
C      1  0.5259380000000  0.5655360000000  0.5234940000000 1.0
C      1  0.4740850000000  0.4969200000000  0.5223130000000 1.0
C      1  0.4844190000000  0.5346500000000  0.3836430000000 1.0
C      1  0.5405540000000  0.5123390000000  0.4409440000000 1.0
C      1  0.5256290000000  0.4932350000000  0.5996360000000 1.0
C      1  0.4853150000000  0.5013870000000  0.6243270000000 1.0
C      1  0.4446410000000  0.5153370000000  0.4182420000000 1.0
C      1  0.5206690000000  0.3928920000000  0.4811210000000 1.0
C      1  0.5372340000000  0.5563690000000  0.5838160000000 1.0
C      1  0.4735930000000  0.5222680000000  0.6057660000000 1.0
C      1  0.5767660000000  0.5234750000000  0.5545070000000 1.0
C      1  0.5618110000000  0.4313830000000  0.5534570000000 1.0
C      1  0.4458230000000  0.6067830000000  0.5186790000000 1.0
C      1  0.5015870000000  0.4918390000000  0.4240130000000 1.0
C      1  0.4689250000000  0.4785500000000  0.6145110000000 1.0
C      1  0.5341300000000  0.4388640000000  0.4262960000000 1.0
C      1  0.5840860000000  0.5186540000000  0.4711380000000 1.0
C      1  0.5611610000000  0.4161930000000  0.4966630000000 1.0
C      1  0.5100510000000  0.4718340000000  0.4501780000000 1.0
C      1  0.5697340000000  0.5483940000000  0.5406810000000 1.0
C      1  0.5505820000000  0.4996720000000  0.5121720000000 1.0
C      1  0.4693420000000  0.5729790000000  0.4479380000000 1.0
C      1  0.5362530000000  0.4833680000000  0.4654850000000 1.0
C      1  0.4450100000000  0.5554750000000  0.5132480000000 1.0
C      1  0.4846330000000  0.4579120000000  0.4362550000000 1.0
C      1  0.5934550000000  0.4662340000000  0.5095050000000 1.0
C      1  0.4830080000000  0.4342410000000  0.4209780000000 1.0
C      1  0.3955260000000  0.4791780000000  0.4892180000000 1.0
C      1  0.5409520000000  0.4636420000000  0.4166480000000 1.0
C      1  0.4366420000000  0.4398080000000  0.4926040000000 1.0
C      1  0.4637280000000  0.5810090000000  0.5175220000000 1.0
C      1  0.4633310000000  0.4324440000000  0.5321300000000 1.0
C      1  0.5549380000000  0.4153900000000  0.4253690000000 1.0
C      1  0.5537270000000  0.4635050000000  0.4954070000000 1.0
C      1  0.5540850000000  0.4556260000000  0.5714160000000 1.0
C      1  0.4687330000000  0.4697260000000  0.4790120000000 1.0
C      1  0.5842380000000  0.4422400000000  0.5317690000000 1.0
C      1  0.5478470000000  0.5630180000000  0.4475520000000 1.0
C      1  0.5096850000000  0.5118250000000  0.4501190000000 1.0
C      1  0.4239450000000  0.4947160000000  0.4942700000000 1.0
C      1  0.4335800000000  0.4564350000000  0.4254310000000 1.0
C      1  0.4125680000000  0.4931240000000  0.5547430000000 1.0
C      1  0.4383430000000  0.4182450000000  0.5168990000000 1.0
C      1  0.5026900000000  0.4364280000000  0.5529500000000 1.0
C      1  0.4838500000000  0.4714090000000  0.5561620000000 1.0
C      1  0.5442550000000  0.5096360000000  0.4013300000000 1.0
C      1  0.4785930000000  0.4538970000000  0.6036550000000 1.0
C      1  0.5155430000000  0.4385560000000  0.4518540000000 1.0
C      1  0.3892310000000  0.4998500000000  0.5133560000000 1.0
C      1  0.4787140000000  0.5758100000000  0.5429770000000 1.0
C      1  0.4680480000000  0.4515760000000  0.5757550000000 1.0
C      1  0.5152700000000  0.5989470000000  0.4654740000000 1.0
C      1  0.5314920000000  0.4635110000000  0.5470570000000 1.0
C      1  0.5202320000000  0.4670570000000  0.4906620000000 1.0
C      1  0.5725440000000  0.5154870000000  0.4176920000000 1.0
C      1  0.5011820000000  0.4928960000000  0.5020870000000 1.0
C      1  0.4951070000000  0.5644080000000  0.5661890000000 1.0
C      1  0.4710620000000  0.4933900000000  0.4143280000000 1.0
C      1  0.4785430000000  0.5131470000000  0.5742470000000 1.0
C      1  0.4260570000000  0.5188030000000  0.4387700000000 1.0
C      1  0.5513770000000  0.5091240000000  0.5633950000000 1.0
C      1  0.5203680000000  0.4125980000000  0.5794540000000 1.0
C      1  0.4905730000000  0.4530560000000  0.4991150000000 1.0
C      1  0.5057000000000  0.4431140000000  0.5861610000000 1.0
C      1  0.4280020000000  0.4186260000000  0.4670460000000 1.0
C      1  0.3982620000000  0.4617760000000  0.4697020000000 1.0
C      1  0.5474640000000  0.3981240000000  0.4781110000000 1.0
C      1  0.4654300000000  0.5207510000000  0.4650530000000 1.0
C      1  0.5573580000000  0.5791560000000  0.4999800000000 1.0
C      1  0.3993070000000  0.5261110000000  0.4942420000000 1.0
C      1  0.5607370000000  0.4987290000000  0.4814170000000 1.0
C      1  0.4491370000000  0.5366620000000  0.5608150000000 1.0
C      1  0.5219780000000  0.5177820000000  0.5089730000000 1.0
C      1  0.4365810000000  0.4666550000000  0.5078530000000 1.0
C      1  0.4430100000000  0.5866740000000  0.5799140000000 1.0
C      1  0.5090560000000  0.5048400000000  0.5606490000000 1.0
C      1  0.4401240000000  0.4398050000000  0.5638620000000 1.0
C      1  0.4967550000000  0.5165390000000  0.4779860000000 1.0
C      1  0.4330740000000  0.4665030000000  0.5495620000000 1.0
C      1  0.5855490000000  0.4716160000000  0.4396300000000 1.0
C      1  0.5713080000000  0.4418190000000  0.4868970000000 1.0
C      1  0.5278680000000  0.5372350000000  0.4023650000000 1.0
C      1  0.4033060000000  0.5340280000000  0.4462630000000 1.0
C      1  0.4165600000000  0.4442220000000  0.4503760000000 1.0
C      1  0.5060870000000  0.5354070000000  0.4279750000000 1.0
C      1  0.5351100000000  0.5434730000000  0.6081280000000 1.0
C      1  0.6176900000000  0.5004590000000  0.4905600000000 1.0
C      1  0.5085990000000  0.4762310000000  0.5790220000000 1.0
C      1  0.4995610000000  0.5768770000000  0.3933900000000 1.0
C      1  0.4153690000000  0.5667750000000  0.4781630000000 1.0
C      1  0.4636610000000  0.4156200000000  0.5597010000000 1.0
C      1  0.5929540000000  0.5486480000000  0.4724120000000 1.0
C      1  0.5377500000000  0.4469960000000  0.5968290000000 1.0
C      1  0.5717560000000  0.4407640000000  0.4394830000000 1.0
C      1  0.4615410000000  0.4664970000000  0.5309620000000 1.0
C      1  0.5758980000000  0.5290260000000  0.5024730000000 1.0
C      1  0.5512270000000  0.4224550000000  0.4584590000000 1.0
C      1  0.4595480000000  0.4670670000000  0.4065220000000 1.0
C      1  0.4969850000000  0.4122350000000  0.4282690000000 1.0
C      1  0.5388760000000  0.5586820000000  0.4800630000000 1.0
C      1  0.5714790000000  0.4789660000000  0.5809740000000 1.0
C      1  0.4255440000000  0.5827200000000  0.5064200000000 1.0
C      1  0.5088820000000  0.3914700000000  0.5074820000000 1.0
C      1  0.5549610000000  0.4821990000000  0.4374610000000 1.0
C      1  0.5148380000000  0.5642990000000  0.4395000000000 1.0
C      1  0.4269830000000  0.4172440000000  0.5443220000000 1.0
C      1  0.4762940000000  0.5270000000000  0.4138910000000 1.0
C      1  0.5917700000000  0.5001980000000  0.5111750000000 1.0
C      1  0.5245140000000  0.6056130000000  0.4341180000000 1.0
C      1  0.4096170000000  0.4760210000000  0.5265010000000 1.0
C      1  0.4477840000000  0.5789130000000  0.4809780000000 1.0
C      1  0.4712760000000  0.5777810000000  0.3969960000000 1.0
C      1  0.4927020000000  0.6003870000000  0.4983530000000 1.0
C      1  0.5162450000000  0.6165570000000  0.4941540000000 1.0
C      1  0.5190580000000  0.5762770000000  0.5716390000000 1.0
C      1  0.4392610000000  0.4994270000000  0.5712830000000 1.0
C      1  0.5917080000000  0.4485860000000  0.4638740000000 1.0
C      1  0.4895170000000  0.4103520000000  0.5703470000000 1.0
C      1  0.5296480000000  0.5883870000000  0.5476630000000 1.0
C      1  0.4533910000000  0.4335160000000  0.4104250000000 1.0
C      1  0.4666220000000  0.5312270000000  0.5031840000000 1.0
C      1  0.4509530000000  0.4254170000000  0.4430760000000 1.0
C      1  0.5172770000000  0.4151600000000  0.5307800000000 1.0
C      1  0.4471370000000  0.5089510000000  0.5395880000000 1.0
C      1  0.5763940000000  0.5657410000000  0.5181910000000 1.0
C      1  0.5290890000000  0.4352200000000  0.4824330000000 1.0
C      1  0.4289340000000  0.5492630000000  0.5387160000000 1.0
C      1  0.5805740000000  0.5649200000000  0.4553790000000 1.0
C      1  0.5401340000000  0.5500540000000  0.5502460000000 1.0
C      1  0.5728630000000  0.4876040000000  0.5348620000000 1.0
C      1  0.4634130000000  0.4994420000000  0.4912960000000 1.0
C      1  0.4886550000000  0.4258560000000  0.5158530000000 1.0
C      1  0.4023640000000  0.5375560000000  0.5406160000000 1.0
C      1  0.5029750000000  0.4079940000000  0.4599350000000 1.0
C      1  0.4581400000000  0.4663080000000  0.4468250000000 1.0
C      1  0.5278150000000  0.4875930000000  0.4071670000000 1.0
C      1  0.4638790000000  0.5406250000000  0.4424690000000 1.0
C      1  0.5071110000000  0.5510200000000  0.3844370000000 1.0
C      1  0.5511000000000  0.4978030000000  0.5906020000000 1.0
C      1  0.5986360000000  0.5543420000000  0.5013100000000 1.0
C      1  0.5559090000000  0.4595740000000  0.5257180000000 1.0
C      1  0.4734570000000  0.5594430000000  0.4854670000000 1.0
C      1  0.5099020000000  0.5449640000000  0.4914040000000 1.0
C      1  0.4353530000000  0.5048420000000  0.4643090000000 1.0
C      1  0.4684270000000  0.6055090000000  0.4857860000000 1.0
C      1  0.5503750000000  0.5966810000000  0.4472880000000 1.0
C      1  0.5395380000000  0.4128310000000  0.5562830000000 1.0
C      1  0.5132180000000  0.5182030000000  0.6145360000000 1.0
END
