TITL C-3371508-3820-50 -0.00102148349088253 125000 -732.81195567707 0 0 131 (C1) n - 1
REM
REM in /nfs/bkarasulu/CARBON/AIRSS/Generating-Clusters/AIREBO/with-SteepDescent/Only-C1/SD-CG-opt/Try1-1.4A-POS3A/HFTN-CG
REM
REM
REM
REM
REM
REM ./C.cell (11c1c37f851c82e70ff6c80c92926a4b)
REM
REM compiler GCC version 9.2.1 20190827 (Red Hat 9.2.1-1)
REM options -cpp -mtune=generic -march=x86-64 -g -O0 -fpre-include=/usr/include/finclude/math-vector-fortran.h
REM seed 518597954 1706842391 2138350955 1813421553 -92302104 169622123 -1787404759 1545820300 161306807 1680899531 -1384330264 707424720 -1354947301 343810703 -1643184982 -163564535 1656683571 1508525530 -411794742 1720908265 -1255051859 1678368815 -598847319 -1104993528 -346327644 612145500 588811335 537408571 1936549292 1507778434 1924096931 -678022917 955405329
REM
CELL 1.54180   50.00000   50.00000   50.00000   90.00000   90.00000   90.00000
LATT -1
SFAC C  
C      1  0.4159370000000  0.5558850000000  0.4815390000000 1.0
C      1  0.5519190000000  0.5779350000000  0.5249270000000 1.0
C      1  0.4374740000000  0.4169720000000  0.4664300000000 1.0
C      1  0.5019370000000  0.6033670000000  0.5056130000000 1.0
C      1  0.4247940000000  0.5342550000000  0.5250370000000 1.0
C      1  0.5162750000000  0.5886170000000  0.4692560000000 1.0
C      1  0.3997930000000  0.5349660000000  0.4706100000000 1.0
C      1  0.5412830000000  0.4497020000000  0.4386560000000 1.0
C      1  0.5188350000000  0.4406290000000  0.5324860000000 1.0
C      1  0.4431220000000  0.4464140000000  0.5702230000000 1.0
C      1  0.4932100000000  0.6271570000000  0.5050750000000 1.0
C      1  0.5380080000000  0.4662510000000  0.5214470000000 1.0
C      1  0.5190090000000  0.5568290000000  0.5672350000000 1.0
C      1  0.5569630000000  0.4153940000000  0.5045760000000 1.0
C      1  0.4855450000000  0.4477010000000  0.5323380000000 1.0
C      1  0.4839330000000  0.4996430000000  0.4183440000000 1.0
C      1  0.5548420000000  0.4921150000000  0.4774040000000 1.0
C      1  0.4858160000000  0.5105640000000  0.4565880000000 1.0
C      1  0.5757150000000  0.5224720000000  0.5746340000000 1.0
C      1  0.5697860000000  0.5609630000000  0.4556400000000 1.0
C      1  0.4553570000000  0.5126250000000  0.4715800000000 1.0
C      1  0.4868650000000  0.4406520000000  0.4720510000000 1.0
C      1  0.4361950000000  0.5718800000000  0.5290090000000 1.0
C      1  0.4512580000000  0.5489390000000  0.5089140000000 1.0
C      1  0.4987850000000  0.4631890000000  0.4945640000000 1.0
C      1  0.5810360000000  0.5348090000000  0.4576250000000 1.0
C      1  0.5627060000000  0.4201950000000  0.4784020000000 1.0
C      1  0.4512230000000  0.5336040000000  0.4465640000000 1.0
C      1  0.4975190000000  0.4099370000000  0.5167370000000 1.0
C      1  0.5172660000000  0.4536540000000  0.4232950000000 1.0
C      1  0.5249790000000  0.5163130000000  0.5087720000000 1.0
C      1  0.5152530000000  0.5442960000000  0.5157470000000 1.0
C      1  0.4833920000000  0.5263130000000  0.5979510000000 1.0
C      1  0.4820570000000  0.5411100000000  0.5210240000000 1.0
C      1  0.5653140000000  0.4651370000000  0.4381530000000 1.0
C      1  0.4464530000000  0.4089290000000  0.5389050000000 1.0
C      1  0.5087480000000  0.5985730000000  0.4419180000000 1.0
C      1  0.5271330000000  0.5440880000000  0.4166550000000 1.0
C      1  0.4109890000000  0.5088250000000  0.4796580000000 1.0
C      1  0.4467870000000  0.5668800000000  0.5802830000000 1.0
C      1  0.5041680000000  0.4587450000000  0.5914380000000 1.0
C      1  0.4959080000000  0.6185660000000  0.4295810000000 1.0
C      1  0.5149760000000  0.5135540000000  0.4393580000000 1.0
C      1  0.4448250000000  0.5506350000000  0.4753550000000 1.0
C      1  0.5374300000000  0.4334130000000  0.4641690000000 1.0
C      1  0.5004720000000  0.5266510000000  0.4114410000000 1.0
C      1  0.4194560000000  0.5044940000000  0.5347700000000 1.0
C      1  0.5703110000000  0.5149130000000  0.4402650000000 1.0
C      1  0.5447940000000  0.5708020000000  0.4082100000000 1.0
C      1  0.5318800000000  0.4747880000000  0.4716280000000 1.0
C      1  0.5920060000000  0.4437680000000  0.5237720000000 1.0
C      1  0.4611320000000  0.5220320000000  0.5651320000000 1.0
C      1  0.4951440000000  0.4389220000000  0.5699320000000 1.0
C      1  0.4860760000000  0.4881530000000  0.4767260000000 1.0
C      1  0.5912680000000  0.4702290000000  0.5210930000000 1.0
C      1  0.5451360000000  0.5185960000000  0.4244770000000 1.0
C      1  0.4149270000000  0.4715270000000  0.5292420000000 1.0
C      1  0.4632390000000  0.4981910000000  0.5082330000000 1.0
C      1  0.4689090000000  0.4647580000000  0.5107200000000 1.0
C      1  0.4985940000000  0.4682350000000  0.5530450000000 1.0
C      1  0.5961260000000  0.5054220000000  0.5040030000000 1.0
C      1  0.5648030000000  0.5396390000000  0.4937760000000 1.0
C      1  0.4608810000000  0.5441050000000  0.5874110000000 1.0
C      1  0.4935670000000  0.4111730000000  0.5458460000000 1.0
C      1  0.4795310000000  0.4143350000000  0.4901800000000 1.0
C      1  0.5183590000000  0.4093710000000  0.4590440000000 1.0
C      1  0.5341130000000  0.5104190000000  0.5494490000000 1.0
C      1  0.5337800000000  0.5671080000000  0.5475420000000 1.0
C      1  0.4954880000000  0.4021900000000  0.4654130000000 1.0
C      1  0.3995940000000  0.4650240000000  0.5025290000000 1.0
C      1  0.4834190000000  0.4927830000000  0.5350600000000 1.0
C      1  0.5458200000000  0.4963850000000  0.5223370000000 1.0
C      1  0.4774680000000  0.5236020000000  0.4931150000000 1.0
C      1  0.4129980000000  0.5599980000000  0.5099590000000 1.0
C      1  0.5389820000000  0.5637430000000  0.4645670000000 1.0
C      1  0.5116180000000  0.5261890000000  0.5598860000000 1.0
C      1  0.4384120000000  0.4993760000000  0.5585100000000 1.0
C      1  0.4245110000000  0.5339390000000  0.4289030000000 1.0
C      1  0.5267570000000  0.4180100000000  0.5089750000000 1.0
C      1  0.4859340000000  0.4940230000000  0.5873420000000 1.0
C      1  0.4132430000000  0.4897780000000  0.4509970000000 1.0
C      1  0.5646550000000  0.5476210000000  0.5253280000000 1.0
C      1  0.5799880000000  0.5795510000000  0.4370820000000 1.0
C      1  0.5693190000000  0.4868270000000  0.5036180000000 1.0
C      1  0.4408360000000  0.4831540000000  0.4353500000000 1.0
C      1  0.4425960000000  0.4539690000000  0.5254500000000 1.0
C      1  0.4975920000000  0.5445170000000  0.4800560000000 1.0
C      1  0.5225250000000  0.5339900000000  0.4642740000000 1.0
C      1  0.5246510000000  0.5715330000000  0.4342880000000 1.0
C      1  0.5003300000000  0.5724050000000  0.4916570000000 1.0
C      1  0.4193910000000  0.4539590000000  0.5578510000000 1.0
C      1  0.5701000000000  0.4896020000000  0.4516440000000 1.0
C      1  0.5692680000000  0.5809740000000  0.4116260000000 1.0
C      1  0.4422840000000  0.5774020000000  0.5552630000000 1.0
C      1  0.4663830000000  0.4297910000000  0.5542560000000 1.0
C      1  0.5870850000000  0.5002150000000  0.5365800000000 1.0
C      1  0.4579170000000  0.4566830000000  0.4410320000000 1.0
C      1  0.4573350000000  0.4756490000000  0.5472770000000 1.0
C      1  0.4917700000000  0.4590970000000  0.4435480000000 1.0
C      1  0.4578450000000  0.5052470000000  0.4289210000000 1.0
C      1  0.4306070000000  0.5006180000000  0.5046240000000 1.0
C      1  0.4640450000000  0.4653290000000  0.4712790000000 1.0
C      1  0.5424330000000  0.5200610000000  0.4834890000000 1.0
C      1  0.5286600000000  0.4770230000000  0.5528330000000 1.0
C      1  0.4526210000000  0.5003370000000  0.5898890000000 1.0
C      1  0.5159450000000  0.4817250000000  0.4513520000000 1.0
C      1  0.5309030000000  0.4967410000000  0.4045250000000 1.0
C      1  0.5123840000000  0.5773540000000  0.5231680000000 1.0
C      1  0.4434290000000  0.4293460000000  0.4426590000000 1.0
C      1  0.5758840000000  0.4965450000000  0.5837340000000 1.0
C      1  0.4041930000000  0.5213410000000  0.4427300000000 1.0
C      1  0.4493220000000  0.4155160000000  0.4918510000000 1.0
C      1  0.4871260000000  0.5387000000000  0.3867670000000 1.0
C      1  0.5691930000000  0.4271630000000  0.5263790000000 1.0
C      1  0.5393740000000  0.5615800000000  0.4985030000000 1.0
C      1  0.5826650000000  0.4768940000000  0.5608300000000 1.0
C      1  0.4420110000000  0.4839760000000  0.4777130000000 1.0
C      1  0.5084120000000  0.5384000000000  0.5906120000000 1.0
C      1  0.4400590000000  0.4245340000000  0.5166040000000 1.0
C      1  0.5608840000000  0.4551560000000  0.5616530000000 1.0
C      1  0.5295910000000  0.4488320000000  0.4934690000000 1.0
C      1  0.4845670000000  0.5221490000000  0.5463770000000 1.0
C      1  0.5492930000000  0.4778220000000  0.5821410000000 1.0
C      1  0.5645040000000  0.5241300000000  0.5442190000000 1.0
C      1  0.5919760000000  0.5272260000000  0.4858880000000 1.0
C      1  0.5078300000000  0.4811710000000  0.4122250000000 1.0
C      1  0.4114940000000  0.4695270000000  0.4782790000000 1.0
C      1  0.5179330000000  0.4867760000000  0.5836050000000 1.0
C      1  0.5501940000000  0.4365980000000  0.5451710000000 1.0
C      1  0.4636370000000  0.4693960000000  0.5801000000000 1.0
C      1  0.5073960000000  0.4904810000000  0.5129330000000 1.0
END
