TITL C-3371502-3785-42 -0.000620229691745649 125000 -477.782029440957 0 0 87 (C1) n - 1
REM
REM in /nfs/bkarasulu/CARBON/AIRSS/Generating-Clusters/AIREBO/with-SteepDescent/Only-C1/SD-CG-opt/Try1-1.4A-POS3A/HFTN-CG
REM
REM
REM
REM
REM
REM ./C.cell (11c1c37f851c82e70ff6c80c92926a4b)
REM
REM compiler GCC version 9.2.1 20190827 (Red Hat 9.2.1-1)
REM options -cpp -mtune=generic -march=x86-64 -g -O0 -fpre-include=/usr/include/finclude/math-vector-fortran.h
REM seed -697042028 -1394128537 -2119918912 -292101369 -1243135409 -2024290445 1494706465 -342536026 352429990 -1824703839 -318205839 434463976 -1596429432 -257459938 1835961424 -825479091 1776234257 415973743 -1805841518 -1331882045 1373006396 -1573290491 -1619094 830681754 -677607125 1218349407 -1775081840 -111639504 1192373532 -1360513963 1610025348 -312542026 1240031824
REM
CELL 1.54180   50.00000   50.00000   50.00000   90.00000   90.00000   90.00000
LATT -1
SFAC C  
C      1  0.5355920000000  0.4902140000000  0.5620420000000 1.0
C      1  0.5913170000000  0.4788070000000  0.4836110000000 1.0
C      1  0.5373980000000  0.5453360000000  0.5491360000000 1.0
C      1  0.4839580000000  0.4883090000000  0.5635330000000 1.0
C      1  0.5341440000000  0.4395410000000  0.4399970000000 1.0
C      1  0.5472810000000  0.5185040000000  0.4178780000000 1.0
C      1  0.5710300000000  0.5503290000000  0.4805570000000 1.0
C      1  0.5448850000000  0.5202420000000  0.5699460000000 1.0
C      1  0.4487440000000  0.4431380000000  0.4762390000000 1.0
C      1  0.5531480000000  0.4487820000000  0.5442080000000 1.0
C      1  0.4517690000000  0.5556440000000  0.5436860000000 1.0
C      1  0.5339140000000  0.4733050000000  0.5031540000000 1.0
C      1  0.4552780000000  0.5281980000000  0.4377760000000 1.0
C      1  0.4886840000000  0.5741340000000  0.5039930000000 1.0
C      1  0.4775200000000  0.4753340000000  0.4142310000000 1.0
C      1  0.4636790000000  0.5459780000000  0.4909930000000 1.0
C      1  0.5002310000000  0.5895930000000  0.4632810000000 1.0
C      1  0.4795970000000  0.3841240000000  0.5165920000000 1.0
C      1  0.4538030000000  0.5568020000000  0.4538580000000 1.0
C      1  0.5715500000000  0.4687350000000  0.5557470000000 1.0
C      1  0.4627130000000  0.4117370000000  0.5187930000000 1.0
C      1  0.5123110000000  0.4911870000000  0.4880820000000 1.0
C      1  0.4833120000000  0.5351940000000  0.4694900000000 1.0
C      1  0.5736240000000  0.4690160000000  0.5032840000000 1.0
C      1  0.5431870000000  0.5279620000000  0.4691320000000 1.0
C      1  0.5591530000000  0.4453630000000  0.5156240000000 1.0
C      1  0.5081490000000  0.4921330000000  0.5471410000000 1.0
C      1  0.4904080000000  0.5638400000000  0.5425910000000 1.0
C      1  0.4561690000000  0.4864720000000  0.5456760000000 1.0
C      1  0.5897360000000  0.5420200000000  0.5285630000000 1.0
C      1  0.5727680000000  0.5269220000000  0.5513180000000 1.0
C      1  0.5616540000000  0.5235010000000  0.4409300000000 1.0
C      1  0.5194370000000  0.5596150000000  0.5024640000000 1.0
C      1  0.5092590000000  0.5481770000000  0.4748850000000 1.0
C      1  0.4885290000000  0.4548110000000  0.5174610000000 1.0
C      1  0.5263110000000  0.4578960000000  0.5569650000000 1.0
C      1  0.5857270000000  0.5526580000000  0.5056450000000 1.0
C      1  0.4676810000000  0.5812370000000  0.5276050000000 1.0
C      1  0.4799600000000  0.5060050000000  0.4706490000000 1.0
C      1  0.4485950000000  0.4681860000000  0.4596350000000 1.0
C      1  0.5256100000000  0.5804020000000  0.4583830000000 1.0
C      1  0.4839290000000  0.4497410000000  0.4270010000000 1.0
C      1  0.5108850000000  0.4738130000000  0.5238360000000 1.0
C      1  0.4687250000000  0.4558770000000  0.5414480000000 1.0
C      1  0.5344540000000  0.4422110000000  0.4930640000000 1.0
C      1  0.4729470000000  0.5423790000000  0.5228020000000 1.0
C      1  0.5666590000000  0.5601410000000  0.5552730000000 1.0
C      1  0.5031280000000  0.4367430000000  0.4940960000000 1.0
C      1  0.3965270000000  0.4742050000000  0.5257750000000 1.0
C      1  0.4181470000000  0.4780520000000  0.5083210000000 1.0
C      1  0.4656230000000  0.4347060000000  0.4477230000000 1.0
C      1  0.4873710000000  0.4734070000000  0.4914990000000 1.0
C      1  0.5824440000000  0.5276780000000  0.4624310000000 1.0
C      1  0.5267160000000  0.5491990000000  0.4483030000000 1.0
C      1  0.4338390000000  0.4878580000000  0.4730190000000 1.0
C      1  0.5355840000000  0.5129140000000  0.5002260000000 1.0
C      1  0.4765990000000  0.5048280000000  0.4311760000000 1.0
C      1  0.5204650000000  0.5054630000000  0.4624040000000 1.0
C      1  0.4353520000000  0.4495900000000  0.5010590000000 1.0
C      1  0.4367480000000  0.5362880000000  0.5570370000000 1.0
C      1  0.4452090000000  0.4939090000000  0.5185590000000 1.0
C      1  0.4733200000000  0.5735970000000  0.4736600000000 1.0
C      1  0.4066950000000  0.5247490000000  0.4692100000000 1.0
C      1  0.5106520000000  0.4402860000000  0.4263280000000 1.0
C      1  0.4422280000000  0.5098160000000  0.5661290000000 1.0
C      1  0.5574840000000  0.4936130000000  0.5144200000000 1.0
C      1  0.5064450000000  0.5162730000000  0.5273680000000 1.0
C      1  0.4472780000000  0.4361410000000  0.5275820000000 1.0
C      1  0.5118930000000  0.5610080000000  0.5573010000000 1.0
C      1  0.4908040000000  0.4109720000000  0.5032880000000 1.0
C      1  0.5198810000000  0.5189450000000  0.4146930000000 1.0
C      1  0.4533420000000  0.5058940000000  0.5923000000000 1.0
C      1  0.4109970000000  0.5007620000000  0.4835480000000 1.0
C      1  0.5439620000000  0.5664600000000  0.4799360000000 1.0
C      1  0.4871230000000  0.4505350000000  0.4683540000000 1.0
C      1  0.4286160000000  0.5366350000000  0.4560640000000 1.0
C      1  0.5440960000000  0.4344890000000  0.4646590000000 1.0
C      1  0.4262580000000  0.4293440000000  0.5454860000000 1.0
C      1  0.5276720000000  0.5364990000000  0.5208010000000 1.0
C      1  0.4601590000000  0.4904940000000  0.4907340000000 1.0
C      1  0.4784150000000  0.4939520000000  0.5897380000000 1.0
C      1  0.5942120000000  0.5039940000000  0.4726190000000 1.0
C      1  0.4994130000000  0.4522850000000  0.5556960000000 1.0
C      1  0.4764520000000  0.4792250000000  0.4535560000000 1.0
C      1  0.4486740000000  0.5233220000000  0.5103850000000 1.0
C      1  0.5631640000000  0.4975670000000  0.5435490000000 1.0
C      1  0.5016010000000  0.5247540000000  0.4427730000000 1.0
END
