TITL C-3371513-6555-36 0.000318860701089379 125000 -597.689735487853 0 0 112 (C1) n - 1
REM
REM in /nfs/bkarasulu/CARBON/AIRSS/Generating-Clusters/AIREBO/with-SteepDescent/Only-C1/SD-CG-opt/Try1-1.4A-POS3A/HFTN-CG
REM
REM
REM
REM
REM
REM ./C.cell (11c1c37f851c82e70ff6c80c92926a4b)
REM
REM compiler GCC version 9.2.1 20190827 (Red Hat 9.2.1-1)
REM options -cpp -mtune=generic -march=x86-64 -g -O0 -fpre-include=/usr/include/finclude/math-vector-fortran.h
REM seed -310025576 -1745146062 -979358289 -880537100 -1042719177 -1881302074 865183555 -1225415318 -487040548 -2081184474 1401230586 -1626052358 1867106065 -1078909118 838202087 -79625876 2070285165 1464570198 -52619492 70676469 71369546 -281051352 -1113753251 182017901 -408566483 590890358 1717687778 -1028989879 1282143969 1441249759 13686989 -1060918933 -453668038
REM
CELL 1.54180   50.00000   50.00000   50.00000   90.00000   90.00000   90.00000
LATT -1
SFAC C  
C      1  0.4905880000000  0.5169270000000  0.4938500000000 1.0
C      1  0.4596210000000  0.5304340000000  0.4897030000000 1.0
C      1  0.5792920000000  0.4628230000000  0.5426050000000 1.0
C      1  0.4666230000000  0.4940500000000  0.4182030000000 1.0
C      1  0.4235790000000  0.4669030000000  0.4616620000000 1.0
C      1  0.4693050000000  0.4729440000000  0.4434990000000 1.0
C      1  0.5745060000000  0.4953860000000  0.5339020000000 1.0
C      1  0.4863670000000  0.5612550000000  0.4978850000000 1.0
C      1  0.5204480000000  0.5463010000000  0.5318300000000 1.0
C      1  0.4527030000000  0.6009580000000  0.4942720000000 1.0
C      1  0.5171920000000  0.5480270000000  0.4921690000000 1.0
C      1  0.5577150000000  0.5609190000000  0.4659390000000 1.0
C      1  0.4468890000000  0.5639090000000  0.5394230000000 1.0
C      1  0.5094450000000  0.4819970000000  0.4557390000000 1.0
C      1  0.4191670000000  0.4997870000000  0.5035860000000 1.0
C      1  0.4763530000000  0.5041480000000  0.4554450000000 1.0
C      1  0.5237720000000  0.4536250000000  0.5483800000000 1.0
C      1  0.5688560000000  0.5171250000000  0.4372840000000 1.0
C      1  0.4078070000000  0.5433660000000  0.4825380000000 1.0
C      1  0.4834540000000  0.4081960000000  0.4892740000000 1.0
C      1  0.4427660000000  0.4545500000000  0.4868680000000 1.0
C      1  0.5587650000000  0.5580450000000  0.5797420000000 1.0
C      1  0.4391600000000  0.5049710000000  0.4318070000000 1.0
C      1  0.4926510000000  0.5327920000000  0.4638410000000 1.0
C      1  0.4163790000000  0.4699190000000  0.5022060000000 1.0
C      1  0.4901740000000  0.5435120000000  0.5237250000000 1.0
C      1  0.5487270000000  0.4690580000000  0.5187900000000 1.0
C      1  0.4965060000000  0.4313610000000  0.5302930000000 1.0
C      1  0.4933760000000  0.5650330000000  0.4587660000000 1.0
C      1  0.5333880000000  0.4645960000000  0.4821280000000 1.0
C      1  0.4776710000000  0.5118890000000  0.5235560000000 1.0
C      1  0.5366120000000  0.5684560000000  0.5112000000000 1.0
C      1  0.4727330000000  0.5460660000000  0.5500680000000 1.0
C      1  0.5567410000000  0.4400080000000  0.5303910000000 1.0
C      1  0.4518320000000  0.4595840000000  0.5192730000000 1.0
C      1  0.4238770000000  0.4550570000000  0.5380950000000 1.0
C      1  0.4280650000000  0.5424160000000  0.5323850000000 1.0
C      1  0.4678760000000  0.5787860000000  0.4753680000000 1.0
C      1  0.4973190000000  0.5109830000000  0.5759830000000 1.0
C      1  0.5188250000000  0.5334070000000  0.5816720000000 1.0
C      1  0.4837510000000  0.4359410000000  0.5582530000000 1.0
C      1  0.5832500000000  0.4488270000000  0.4876840000000 1.0
C      1  0.5067280000000  0.4806500000000  0.5812090000000 1.0
C      1  0.5485000000000  0.4950550000000  0.4835020000000 1.0
C      1  0.4995610000000  0.5017210000000  0.5438430000000 1.0
C      1  0.5222500000000  0.4805120000000  0.5096780000000 1.0
C      1  0.5727570000000  0.5330140000000  0.5664180000000 1.0
C      1  0.4977860000000  0.4842240000000  0.4878230000000 1.0
C      1  0.4971000000000  0.4836480000000  0.4092110000000 1.0
C      1  0.4528700000000  0.4476630000000  0.4329600000000 1.0
C      1  0.5261590000000  0.5216360000000  0.5505000000000 1.0
C      1  0.5408140000000  0.4292470000000  0.5018160000000 1.0
C      1  0.5600820000000  0.4326380000000  0.4786160000000 1.0
C      1  0.5395870000000  0.5783490000000  0.4788020000000 1.0
C      1  0.4892240000000  0.4617830000000  0.5713400000000 1.0
C      1  0.5339380000000  0.5530300000000  0.5914040000000 1.0
C      1  0.4689680000000  0.4710430000000  0.5463220000000 1.0
C      1  0.5007400000000  0.4709200000000  0.5342030000000 1.0
C      1  0.5394660000000  0.5272100000000  0.4770570000000 1.0
C      1  0.5482620000000  0.4720050000000  0.5526700000000 1.0
C      1  0.5505380000000  0.5083880000000  0.5135370000000 1.0
C      1  0.5679450000000  0.5584670000000  0.5200390000000 1.0
C      1  0.5628720000000  0.5085590000000  0.5594840000000 1.0
C      1  0.5853200000000  0.4996550000000  0.4579040000000 1.0
C      1  0.5092970000000  0.4278840000000  0.4925630000000 1.0
C      1  0.5597870000000  0.4844960000000  0.4403070000000 1.0
C      1  0.5182380000000  0.5094880000000  0.4120330000000 1.0
C      1  0.5721430000000  0.4759200000000  0.4987100000000 1.0
C      1  0.4694400000000  0.5193960000000  0.5632230000000 1.0
C      1  0.4257350000000  0.4532780000000  0.4382690000000 1.0
C      1  0.5237850000000  0.5370580000000  0.4267440000000 1.0
C      1  0.5667900000000  0.5435280000000  0.4895100000000 1.0
C      1  0.4633150000000  0.5459440000000  0.4400900000000 1.0
C      1  0.4309000000000  0.5316770000000  0.5048930000000 1.0
C      1  0.5907400000000  0.5117630000000  0.5116470000000 1.0
C      1  0.4636540000000  0.5807320000000  0.5148650000000 1.0
C      1  0.5149930000000  0.5113830000000  0.4626860000000 1.0
C      1  0.5475010000000  0.5371250000000  0.4455390000000 1.0
C      1  0.4244260000000  0.5219460000000  0.5509290000000 1.0
C      1  0.5950250000000  0.5381560000000  0.5168530000000 1.0
C      1  0.4239200000000  0.4749090000000  0.5567490000000 1.0
C      1  0.5125610000000  0.4591590000000  0.4193980000000 1.0
C      1  0.4308290000000  0.4963160000000  0.4612740000000 1.0
C      1  0.5170230000000  0.5841730000000  0.4653480000000 1.0
C      1  0.5058110000000  0.4505080000000  0.4680480000000 1.0
C      1  0.4558640000000  0.4247990000000  0.5587560000000 1.0
C      1  0.5573190000000  0.4604660000000  0.4601870000000 1.0
C      1  0.4796590000000  0.5786580000000  0.5432920000000 1.0
C      1  0.4887890000000  0.5180910000000  0.4270010000000 1.0
C      1  0.4562730000000  0.4994960000000  0.4814190000000 1.0
C      1  0.5245760000000  0.5936000000000  0.5282800000000 1.0
C      1  0.4568590000000  0.4272790000000  0.5286390000000 1.0
C      1  0.4570710000000  0.5505980000000  0.4667110000000 1.0
C      1  0.4154950000000  0.4392330000000  0.5116140000000 1.0
C      1  0.4319280000000  0.4225620000000  0.4908080000000 1.0
C      1  0.4097170000000  0.5144610000000  0.4759710000000 1.0
C      1  0.5198350000000  0.5201010000000  0.5109340000000 1.0
C      1  0.4507450000000  0.4932350000000  0.5143990000000 1.0
C      1  0.5107370000000  0.4390000000000  0.4375230000000 1.0
C      1  0.4718790000000  0.4528140000000  0.4690100000000 1.0
C      1  0.4478300000000  0.4976030000000  0.5484090000000 1.0
C      1  0.4926690000000  0.4545870000000  0.5054890000000 1.0
C      1  0.5333340000000  0.4949280000000  0.5693420000000 1.0
C      1  0.5718240000000  0.5610960000000  0.5502850000000 1.0
C      1  0.4948680000000  0.5511370000000  0.4285360000000 1.0
C      1  0.5049500000000  0.5937610000000  0.5439610000000 1.0
C      1  0.4619080000000  0.4238250000000  0.4423980000000 1.0
C      1  0.5304600000000  0.4852320000000  0.4305530000000 1.0
C      1  0.4777180000000  0.4096320000000  0.5172440000000 1.0
C      1  0.4607180000000  0.4211250000000  0.4742490000000 1.0
C      1  0.5879520000000  0.5003560000000  0.4850720000000 1.0
C      1  0.5275180000000  0.4237310000000  0.5326210000000 1.0
END
