TITL C-3371508-3820-25 -0.00340016637285313 125000 -184.52297858095 0 0 35 (C1) n - 1
REM
REM in /nfs/bkarasulu/CARBON/AIRSS/Generating-Clusters/AIREBO/with-SteepDescent/Only-C1/SD-CG-opt/Try1-1.4A-POS3A/HFTN-CG
REM
REM
REM
REM
REM
REM ./C.cell (11c1c37f851c82e70ff6c80c92926a4b)
REM
REM compiler GCC version 9.2.1 20190827 (Red Hat 9.2.1-1)
REM options -cpp -mtune=generic -march=x86-64 -g -O0 -fpre-include=/usr/include/finclude/math-vector-fortran.h
REM seed -1822741047 1821317784 1481398536 2139431059 1111454283 50675847 52587294 1023596623 -1151344348 1097144090 562706971 -1038976214 -642296771 686701032 -1498393308 -774140536 1504648093 -2056252971 -2127134899 1412423849 -1504435715 -57298724 -449387622 -1831469426 -937904510 1095301726 -1498856930 1703180323 -1737889264 -728060511 -1178501814 1972118731 1732428520
REM
CELL 1.54180   50.00000   50.00000   50.00000   90.00000   90.00000   90.00000
LATT -1
SFAC C  
C      1  0.5392140000000  0.5271930000000  0.5089320000000 1.0
C      1  0.4964420000000  0.5380450000000  0.4878960000000 1.0
C      1  0.5270120000000  0.4563010000000  0.5286410000000 1.0
C      1  0.4413050000000  0.5217800000000  0.4507010000000 1.0
C      1  0.5296640000000  0.4226170000000  0.5324480000000 1.0
C      1  0.4976100000000  0.4916080000000  0.4684430000000 1.0
C      1  0.5586400000000  0.5045860000000  0.4988850000000 1.0
C      1  0.5540400000000  0.4387360000000  0.5398920000000 1.0
C      1  0.5135160000000  0.4991180000000  0.5468880000000 1.0
C      1  0.5248630000000  0.5415610000000  0.4853720000000 1.0
C      1  0.5115690000000  0.5126330000000  0.5194080000000 1.0
C      1  0.4923240000000  0.4652840000000  0.4478990000000 1.0
C      1  0.4561250000000  0.5284590000000  0.5219020000000 1.0
C      1  0.4398220000000  0.5164160000000  0.4955550000000 1.0
C      1  0.4647370000000  0.4497390000000  0.4430700000000 1.0
C      1  0.5032160000000  0.4888580000000  0.4993820000000 1.0
C      1  0.4862250000000  0.5201930000000  0.4635430000000 1.0
C      1  0.4452640000000  0.4971700000000  0.5222400000000 1.0
C      1  0.5190810000000  0.5135890000000  0.5693840000000 1.0
C      1  0.4702720000000  0.5737410000000  0.5519060000000 1.0
C      1  0.4878550000000  0.5330330000000  0.5166090000000 1.0
C      1  0.5293850000000  0.5449790000000  0.4575070000000 1.0
C      1  0.5066130000000  0.5360580000000  0.4434760000000 1.0
C      1  0.5272190000000  0.4697560000000  0.5023250000000 1.0
C      1  0.5465920000000  0.4768870000000  0.4598540000000 1.0
C      1  0.4633930000000  0.4714510000000  0.5254360000000 1.0
C      1  0.5491220000000  0.4803490000000  0.4878890000000 1.0
C      1  0.4576020000000  0.5031080000000  0.4702510000000 1.0
C      1  0.4811850000000  0.4637340000000  0.5437860000000 1.0
C      1  0.5216790000000  0.4777790000000  0.4496650000000 1.0
C      1  0.4709550000000  0.4887960000000  0.4980660000000 1.0
C      1  0.5081370000000  0.4714960000000  0.5458160000000 1.0
C      1  0.5509370000000  0.5446810000000  0.5276020000000 1.0
C      1  0.4710230000000  0.5533780000000  0.5369350000000 1.0
C      1  0.4573600000000  0.4768900000000  0.4523950000000 1.0
END
