TITL C-3371510-9333-7 0.000463825414926501 125000 -484.091917914414 0 0 91 (C1) n - 1
REM
REM in /nfs/bkarasulu/CARBON/AIRSS/Generating-Clusters/AIREBO/with-SteepDescent/Only-C1/SD-CG-opt/Try1-1.4A-POS3A/HFTN-CG
REM
REM
REM
REM
REM
REM ./C.cell (11c1c37f851c82e70ff6c80c92926a4b)
REM
REM compiler GCC version 9.2.1 20190827 (Red Hat 9.2.1-1)
REM options -cpp -mtune=generic -march=x86-64 -g -O0 -fpre-include=/usr/include/finclude/math-vector-fortran.h
REM seed 1526019413 -896782479 178155013 478164956 -2112483799 1316401899 250372382 1313850373 626522284 19358048 1349613147 -1428328042 1924496831 -1261695109 -472651290 466833455 2110827677 -236858925 -1920825521 1644394102 -988433132 -1516667664 -1623483176 -1675249207 -1399498425 -319697614 164935770 -1769226247 -663714657 -270365282 1725532925 1123120201 1787972507
REM
CELL 1.54180   50.00000   50.00000   50.00000   90.00000   90.00000   90.00000
LATT -1
SFAC C  
C      1  0.4483410000000  0.5698950000000  0.4629850000000 1.0
C      1  0.4817460000000  0.4605940000000  0.5120640000000 1.0
C      1  0.5162320000000  0.5076870000000  0.4581610000000 1.0
C      1  0.5567390000000  0.4685510000000  0.5003090000000 1.0
C      1  0.5551190000000  0.4390400000000  0.5039620000000 1.0
C      1  0.5340530000000  0.4806150000000  0.4810820000000 1.0
C      1  0.4755870000000  0.4243170000000  0.4768620000000 1.0
C      1  0.4172290000000  0.4941580000000  0.4900790000000 1.0
C      1  0.4508620000000  0.4890490000000  0.5645010000000 1.0
C      1  0.5308320000000  0.4661650000000  0.5677830000000 1.0
C      1  0.5151030000000  0.5934930000000  0.5105630000000 1.0
C      1  0.4910400000000  0.5594580000000  0.4818510000000 1.0
C      1  0.4257450000000  0.5342500000000  0.5305680000000 1.0
C      1  0.5565710000000  0.5361990000000  0.4346310000000 1.0
C      1  0.5359680000000  0.4565720000000  0.4571090000000 1.0
C      1  0.4231280000000  0.4953130000000  0.5223600000000 1.0
C      1  0.5800880000000  0.5440050000000  0.4890220000000 1.0
C      1  0.4052810000000  0.5205090000000  0.5076600000000 1.0
C      1  0.4984080000000  0.4542030000000  0.5476820000000 1.0
C      1  0.4603610000000  0.5707860000000  0.4897850000000 1.0
C      1  0.5033690000000  0.4676390000000  0.4879100000000 1.0
C      1  0.5035340000000  0.4696750000000  0.5838830000000 1.0
C      1  0.4601220000000  0.4215220000000  0.5075220000000 1.0
C      1  0.4342710000000  0.5302150000000  0.4922120000000 1.0
C      1  0.6031750000000  0.5048850000000  0.4969710000000 1.0
C      1  0.4417630000000  0.4608100000000  0.4617380000000 1.0
C      1  0.5478970000000  0.4513010000000  0.5350710000000 1.0
C      1  0.4764210000000  0.4922970000000  0.5041400000000 1.0
C      1  0.4694920000000  0.4831470000000  0.4291890000000 1.0
C      1  0.5664180000000  0.4867600000000  0.5199960000000 1.0
C      1  0.5569450000000  0.4801580000000  0.5506370000000 1.0
C      1  0.5184140000000  0.4669540000000  0.4296540000000 1.0
C      1  0.5372770000000  0.4336370000000  0.5608670000000 1.0
C      1  0.4374510000000  0.4719990000000  0.5381500000000 1.0
C      1  0.5610220000000  0.5465010000000  0.5316960000000 1.0
C      1  0.5071500000000  0.5122580000000  0.5419710000000 1.0
C      1  0.5190770000000  0.4236210000000  0.5101560000000 1.0
C      1  0.4404880000000  0.5563930000000  0.5130000000000 1.0
C      1  0.4879080000000  0.4297010000000  0.5180410000000 1.0
C      1  0.5423650000000  0.5259540000000  0.5031070000000 1.0
C      1  0.5066150000000  0.5147360000000  0.5755700000000 1.0
C      1  0.4344680000000  0.5217790000000  0.4630420000000 1.0
C      1  0.4592010000000  0.5201240000000  0.5755740000000 1.0
C      1  0.4583280000000  0.5044980000000  0.4133370000000 1.0
C      1  0.5160100000000  0.5595020000000  0.4642050000000 1.0
C      1  0.4863010000000  0.5620320000000  0.5795790000000 1.0
C      1  0.5212970000000  0.4572460000000  0.5147430000000 1.0
C      1  0.5071080000000  0.5614060000000  0.5098180000000 1.0
C      1  0.4847320000000  0.4907830000000  0.5670870000000 1.0
C      1  0.4958770000000  0.5300750000000  0.4251450000000 1.0
C      1  0.5443560000000  0.4869420000000  0.4258000000000 1.0
C      1  0.5166520000000  0.4796180000000  0.5399630000000 1.0
C      1  0.5345280000000  0.5262120000000  0.5348000000000 1.0
C      1  0.5125520000000  0.4347590000000  0.4332150000000 1.0
C      1  0.4532680000000  0.5415840000000  0.4464830000000 1.0
C      1  0.4384110000000  0.4894450000000  0.4686750000000 1.0
C      1  0.4759080000000  0.5001560000000  0.5356170000000 1.0
C      1  0.5099550000000  0.5525730000000  0.4377380000000 1.0
C      1  0.4677700000000  0.5021790000000  0.4732170000000 1.0
C      1  0.4662420000000  0.4606050000000  0.5411110000000 1.0
C      1  0.4947710000000  0.5834960000000  0.5645460000000 1.0
C      1  0.5418090000000  0.5524310000000  0.4817800000000 1.0
C      1  0.4702730000000  0.5353800000000  0.4744550000000 1.0
C      1  0.5191690000000  0.5100640000000  0.4893210000000 1.0
C      1  0.4675990000000  0.5301000000000  0.4228480000000 1.0
C      1  0.5581480000000  0.5294590000000  0.5580920000000 1.0
C      1  0.5687670000000  0.4529160000000  0.4489740000000 1.0
C      1  0.5601520000000  0.4989170000000  0.4692290000000 1.0
C      1  0.5678320000000  0.5053550000000  0.5661500000000 1.0
C      1  0.4943240000000  0.5812390000000  0.5343440000000 1.0
C      1  0.4984260000000  0.5285930000000  0.5060230000000 1.0
C      1  0.5635600000000  0.5602000000000  0.5083480000000 1.0
C      1  0.5120030000000  0.4265880000000  0.5422740000000 1.0
C      1  0.5730110000000  0.5120450000000  0.4982400000000 1.0
C      1  0.5332650000000  0.5169690000000  0.4302360000000 1.0
C      1  0.4384340000000  0.4462380000000  0.5162070000000 1.0
C      1  0.5622410000000  0.5311640000000  0.4648540000000 1.0
C      1  0.4695570000000  0.5646280000000  0.5224780000000 1.0
C      1  0.5066300000000  0.4979880000000  0.4215350000000 1.0
C      1  0.4880300000000  0.4526710000000  0.4643910000000 1.0
C      1  0.5305650000000  0.4338350000000  0.4818290000000 1.0
C      1  0.4763210000000  0.5391220000000  0.5665320000000 1.0
C      1  0.4453900000000  0.5110990000000  0.5394660000000 1.0
C      1  0.4464410000000  0.4406020000000  0.4833250000000 1.0
C      1  0.4864400000000  0.5386290000000  0.5362230000000 1.0
C      1  0.4649300000000  0.4601760000000  0.4445920000000 1.0
C      1  0.4764700000000  0.4524730000000  0.5725640000000 1.0
C      1  0.5062310000000  0.4257330000000  0.4613970000000 1.0
C      1  0.4647030000000  0.5241990000000  0.5059470000000 1.0
C      1  0.4873350000000  0.4996330000000  0.4495250000000 1.0
C      1  0.5645980000000  0.4815200000000  0.4446260000000 1.0
END
