TITL C-3371510-9333-38 0.000111863447454318 125000 -983.994691886268 0 0 186 (C1) n - 1
REM
REM in /nfs/bkarasulu/CARBON/AIRSS/Generating-Clusters/AIREBO/with-SteepDescent/Only-C1/SD-CG-opt/Try1-1.4A-POS3A/HFTN-CG
REM
REM
REM
REM
REM
REM ./C.cell (11c1c37f851c82e70ff6c80c92926a4b)
REM
REM compiler GCC version 9.2.1 20190827 (Red Hat 9.2.1-1)
REM options -cpp -mtune=generic -march=x86-64 -g -O0 -fpre-include=/usr/include/finclude/math-vector-fortran.h
REM seed 2132046891 719697776 59694131 865481906 291805134 -269583576 -1831361987 29683516 -1000177139 -945400157 -1093163859 1923513240 -2140860158 -1061728338 -1632646983 -857310275 -312487343 -727347411 -1604848392 857856798 -1797868331 259299369 1486455307 1564971567 -1255943086 -1062427178 2083314612 -1562730141 -384097173 1609083239 -1510706248 1512874265 -1679594902
REM
CELL 1.54180   50.00000   50.00000   50.00000   90.00000   90.00000   90.00000
LATT -1
SFAC C  
C      1  0.5013230000000  0.5844930000000  0.4379460000000 1.0
C      1  0.5637110000000  0.5136290000000  0.5089510000000 1.0
C      1  0.4818210000000  0.5347270000000  0.3953490000000 1.0
C      1  0.4299500000000  0.4938880000000  0.4395940000000 1.0
C      1  0.5645500000000  0.4440060000000  0.5311100000000 1.0
C      1  0.5216270000000  0.4423190000000  0.5850200000000 1.0
C      1  0.5335830000000  0.4456250000000  0.4610990000000 1.0
C      1  0.5301530000000  0.6057680000000  0.4883010000000 1.0
C      1  0.4288010000000  0.5083980000000  0.5858000000000 1.0
C      1  0.4161080000000  0.4392230000000  0.4507070000000 1.0
C      1  0.4664790000000  0.4342880000000  0.5586950000000 1.0
C      1  0.5177690000000  0.4631110000000  0.5130370000000 1.0
C      1  0.5394540000000  0.4180500000000  0.5780860000000 1.0
C      1  0.4403390000000  0.5870250000000  0.5149430000000 1.0
C      1  0.5184270000000  0.5736430000000  0.4652600000000 1.0
C      1  0.4996440000000  0.5993930000000  0.4746560000000 1.0
C      1  0.5350430000000  0.4963660000000  0.5882950000000 1.0
C      1  0.4766340000000  0.5978940000000  0.4495780000000 1.0
C      1  0.4519630000000  0.4566100000000  0.5839520000000 1.0
C      1  0.4868790000000  0.6015980000000  0.5387700000000 1.0
C      1  0.5794460000000  0.4896460000000  0.5543780000000 1.0
C      1  0.5267120000000  0.5703760000000  0.4265900000000 1.0
C      1  0.4615300000000  0.4859760000000  0.5810990000000 1.0
C      1  0.4901500000000  0.4453500000000  0.5801810000000 1.0
C      1  0.5587360000000  0.4723700000000  0.4387690000000 1.0
C      1  0.4959770000000  0.4364910000000  0.4148020000000 1.0
C      1  0.5564730000000  0.4519710000000  0.4854350000000 1.0
C      1  0.5400070000000  0.5431890000000  0.4421070000000 1.0
C      1  0.5330140000000  0.5014540000000  0.5356580000000 1.0
C      1  0.4857950000000  0.4748170000000  0.5130970000000 1.0
C      1  0.5742510000000  0.4543680000000  0.5723710000000 1.0
C      1  0.5127120000000  0.5442710000000  0.5035670000000 1.0
C      1  0.5413600000000  0.3929130000000  0.5127140000000 1.0
C      1  0.5093650000000  0.5352180000000  0.4341590000000 1.0
C      1  0.5984350000000  0.5530090000000  0.4927390000000 1.0
C      1  0.4355410000000  0.5117430000000  0.4869730000000 1.0
C      1  0.4769760000000  0.5442250000000  0.5599500000000 1.0
C      1  0.4716050000000  0.4377160000000  0.4628180000000 1.0
C      1  0.5229570000000  0.4567540000000  0.5560700000000 1.0
C      1  0.5749360000000  0.4941410000000  0.4338960000000 1.0
C      1  0.4319340000000  0.5340870000000  0.4525840000000 1.0
C      1  0.5160180000000  0.5723830000000  0.5158850000000 1.0
C      1  0.4668020000000  0.4956640000000  0.5321390000000 1.0
C      1  0.5948710000000  0.5359460000000  0.5197820000000 1.0
C      1  0.6071010000000  0.4830170000000  0.5135740000000 1.0
C      1  0.5887400000000  0.5384250000000  0.4635840000000 1.0
C      1  0.4323140000000  0.4842000000000  0.5154490000000 1.0
C      1  0.4853270000000  0.4296550000000  0.5307430000000 1.0
C      1  0.4409390000000  0.4499620000000  0.4969790000000 1.0
C      1  0.4538080000000  0.4947840000000  0.4638370000000 1.0
C      1  0.4580970000000  0.4792590000000  0.4938250000000 1.0
C      1  0.5465090000000  0.4021790000000  0.4853340000000 1.0
C      1  0.5518880000000  0.5213340000000  0.4622120000000 1.0
C      1  0.4958050000000  0.5961680000000  0.5063800000000 1.0
C      1  0.3965080000000  0.5272120000000  0.5023830000000 1.0
C      1  0.4944160000000  0.4551520000000  0.4431900000000 1.0
C      1  0.5954260000000  0.5282990000000  0.6050520000000 1.0
C      1  0.4868130000000  0.4534600000000  0.3871290000000 1.0
C      1  0.4807590000000  0.5757060000000  0.5686260000000 1.0
C      1  0.5259070000000  0.4267570000000  0.4142570000000 1.0
C      1  0.4233220000000  0.4248430000000  0.4871780000000 1.0
C      1  0.5863110000000  0.5603670000000  0.5389090000000 1.0
C      1  0.5316320000000  0.5057860000000  0.4056350000000 1.0
C      1  0.5417620000000  0.5891110000000  0.5413840000000 1.0
C      1  0.5063470000000  0.5681710000000  0.5475380000000 1.0
C      1  0.4455260000000  0.4424500000000  0.4315370000000 1.0
C      1  0.4909050000000  0.4731940000000  0.4717950000000 1.0
C      1  0.4660370000000  0.4884830000000  0.3662170000000 1.0
C      1  0.5236630000000  0.4188260000000  0.4453640000000 1.0
C      1  0.4736670000000  0.4689960000000  0.4214880000000 1.0
C      1  0.4980080000000  0.4069420000000  0.4554540000000 1.0
C      1  0.5366040000000  0.4295470000000  0.4974670000000 1.0
C      1  0.5068710000000  0.5429210000000  0.4040220000000 1.0
C      1  0.4596570000000  0.5964680000000  0.5586550000000 1.0
C      1  0.4742820000000  0.5582650000000  0.5971060000000 1.0
C      1  0.4573900000000  0.4045100000000  0.5171300000000 1.0
C      1  0.4695740000000  0.4379560000000  0.6035730000000 1.0
C      1  0.4777100000000  0.3868040000000  0.4983260000000 1.0
C      1  0.5051760000000  0.5671100000000  0.5989170000000 1.0
C      1  0.5324390000000  0.4677510000000  0.6018190000000 1.0
C      1  0.5706810000000  0.4155060000000  0.4452940000000 1.0
C      1  0.4524510000000  0.4648380000000  0.5327500000000 1.0
C      1  0.5698230000000  0.5510140000000  0.4169540000000 1.0
C      1  0.5027880000000  0.5004330000000  0.4841990000000 1.0
C      1  0.4922510000000  0.4604950000000  0.5432730000000 1.0
C      1  0.4175520000000  0.5178250000000  0.5499220000000 1.0
C      1  0.5250660000000  0.5470220000000  0.5973770000000 1.0
C      1  0.4664680000000  0.5656440000000  0.4708320000000 1.0
C      1  0.5248010000000  0.4699140000000  0.4389800000000 1.0
C      1  0.4208380000000  0.5496850000000  0.5485870000000 1.0
C      1  0.4699170000000  0.5438290000000  0.5294170000000 1.0
C      1  0.4131090000000  0.4671160000000  0.5377110000000 1.0
C      1  0.4126980000000  0.5434920000000  0.4789990000000 1.0
C      1  0.4017360000000  0.4596660000000  0.5059130000000 1.0
C      1  0.5685570000000  0.5681720000000  0.4869050000000 1.0
C      1  0.4895610000000  0.4767280000000  0.5712290000000 1.0
C      1  0.5917930000000  0.4719560000000  0.4624060000000 1.0
C      1  0.5246810000000  0.4812210000000  0.3910930000000 1.0
C      1  0.4750980000000  0.5143580000000  0.4818240000000 1.0
C      1  0.5097270000000  0.4996810000000  0.5658400000000 1.0
C      1  0.5758130000000  0.4998590000000  0.4734600000000 1.0
C      1  0.4959590000000  0.4824210000000  0.3814840000000 1.0
C      1  0.5313030000000  0.4369380000000  0.5300320000000 1.0
C      1  0.5639010000000  0.5352780000000  0.4875020000000 1.0
C      1  0.4105670000000  0.4953290000000  0.4742360000000 1.0
C      1  0.4827510000000  0.5135830000000  0.3782370000000 1.0
C      1  0.4852100000000  0.5328810000000  0.5051670000000 1.0
C      1  0.5547700000000  0.5240840000000  0.5358140000000 1.0
C      1  0.4227970000000  0.4639970000000  0.4283970000000 1.0
C      1  0.5204580000000  0.5190920000000  0.6051600000000 1.0
C      1  0.4954310000000  0.5124570000000  0.5379460000000 1.0
C      1  0.5287630000000  0.4581580000000  0.4078840000000 1.0
C      1  0.4650200000000  0.5079790000000  0.6013350000000 1.0
C      1  0.4691100000000  0.4085560000000  0.4454960000000 1.0
C      1  0.5125320000000  0.5043720000000  0.5113400000000 1.0
C      1  0.5680290000000  0.5775360000000  0.4578000000000 1.0
C      1  0.4107130000000  0.4879190000000  0.5646050000000 1.0
C      1  0.5264520000000  0.3982520000000  0.5645670000000 1.0
C      1  0.4554400000000  0.4356160000000  0.5184350000000 1.0
C      1  0.4306930000000  0.4881280000000  0.4073380000000 1.0
C      1  0.4881660000000  0.3957970000000  0.5294150000000 1.0
C      1  0.5930450000000  0.5198590000000  0.5496860000000 1.0
C      1  0.5484990000000  0.4047090000000  0.4573150000000 1.0
C      1  0.4599110000000  0.4886120000000  0.3992610000000 1.0
C      1  0.4630180000000  0.4403700000000  0.4068220000000 1.0
C      1  0.5625740000000  0.4255200000000  0.5664560000000 1.0
C      1  0.5516520000000  0.4726190000000  0.5607500000000 1.0
C      1  0.5153380000000  0.5988610000000  0.5568640000000 1.0
C      1  0.5949640000000  0.5116170000000  0.4479400000000 1.0
C      1  0.5955350000000  0.5076180000000  0.5009560000000 1.0
C      1  0.4854410000000  0.5421850000000  0.4551420000000 1.0
C      1  0.5194980000000  0.4048960000000  0.5345030000000 1.0
C      1  0.4205350000000  0.4588380000000  0.5759150000000 1.0
C      1  0.4239690000000  0.5397120000000  0.5171080000000 1.0
C      1  0.5804180000000  0.5580990000000  0.4413640000000 1.0
C      1  0.4493330000000  0.5201580000000  0.5162730000000 1.0
C      1  0.4496010000000  0.5640940000000  0.4196680000000 1.0
C      1  0.5118270000000  0.5929160000000  0.5881930000000 1.0
C      1  0.5911150000000  0.4352000000000  0.5505370000000 1.0
C      1  0.4004100000000  0.5358790000000  0.4400050000000 1.0
C      1  0.5438210000000  0.5850240000000  0.4489330000000 1.0
C      1  0.5886180000000  0.4556900000000  0.5101270000000 1.0
C      1  0.5597460000000  0.4818800000000  0.4974350000000 1.0
C      1  0.4504670000000  0.5795760000000  0.4465590000000 1.0
C      1  0.4025580000000  0.5076000000000  0.4473610000000 1.0
C      1  0.5954310000000  0.4673960000000  0.5410630000000 1.0
C      1  0.5882290000000  0.4456420000000  0.4818630000000 1.0
C      1  0.5747370000000  0.4453740000000  0.4505210000000 1.0
C      1  0.5467370000000  0.5556570000000  0.5378640000000 1.0
C      1  0.5737820000000  0.5837870000000  0.5292020000000 1.0
C      1  0.4837020000000  0.4476520000000  0.4930010000000 1.0
C      1  0.5829890000000  0.5288530000000  0.5811370000000 1.0
C      1  0.4343900000000  0.4431490000000  0.5510530000000 1.0
C      1  0.4468690000000  0.5023960000000  0.5576200000000 1.0
C      1  0.4609030000000  0.5397050000000  0.4150730000000 1.0
C      1  0.4352500000000  0.5803900000000  0.5460800000000 1.0
C      1  0.3928970000000  0.5108790000000  0.5328230000000 1.0
C      1  0.4013610000000  0.4936540000000  0.5050270000000 1.0
C      1  0.5702120000000  0.5500810000000  0.5618310000000 1.0
C      1  0.4284240000000  0.5654790000000  0.4979260000000 1.0
C      1  0.5042160000000  0.4269630000000  0.5025710000000 1.0
C      1  0.4920240000000  0.5138900000000  0.6032040000000 1.0
C      1  0.5186680000000  0.4637590000000  0.4828420000000 1.0
C      1  0.4992660000000  0.4028740000000  0.4831020000000 1.0
C      1  0.4696660000000  0.5746390000000  0.5268840000000 1.0
C      1  0.4805170000000  0.5001460000000  0.4240290000000 1.0
C      1  0.5132140000000  0.5014300000000  0.4333730000000 1.0
C      1  0.4461390000000  0.5558540000000  0.5671060000000 1.0
C      1  0.5469330000000  0.4735230000000  0.5270840000000 1.0
C      1  0.5470540000000  0.5839600000000  0.5081770000000 1.0
C      1  0.4176210000000  0.4623890000000  0.4755760000000 1.0
C      1  0.4606640000000  0.4125100000000  0.4839960000000 1.0
C      1  0.5570540000000  0.5116860000000  0.5673910000000 1.0
C      1  0.4617980000000  0.5207290000000  0.4432830000000 1.0
C      1  0.5218930000000  0.5125110000000  0.4643240000000 1.0
C      1  0.5400130000000  0.5368860000000  0.4086700000000 1.0
C      1  0.4677030000000  0.5830390000000  0.4945530000000 1.0
C      1  0.4476310000000  0.4616160000000  0.4595520000000 1.0
C      1  0.5144170000000  0.5440190000000  0.4728370000000 1.0
C      1  0.4530170000000  0.5386590000000  0.4779420000000 1.0
C      1  0.4509390000000  0.5342920000000  0.5903650000000 1.0
C      1  0.4980790000000  0.5294950000000  0.5737870000000 1.0
C      1  0.4260960000000  0.5718070000000  0.4651510000000 1.0
C      1  0.5312270000000  0.5338130000000  0.5675560000000 1.0
C      1  0.5175070000000  0.5383000000000  0.5367490000000 1.0
C      1  0.4382610000000  0.4145540000000  0.4584990000000 1.0
END
