TITL C-3371506-7941-7 -0.00374954074698855 125000 -681.213531179709 0 0 126 (C1) n - 1
REM
REM in /nfs/bkarasulu/CARBON/AIRSS/Generating-Clusters/AIREBO/with-SteepDescent/Only-C1/SD-CG-opt/Try1-1.4A-POS3A/HFTN-CG
REM
REM
REM
REM
REM
REM ./C.cell (11c1c37f851c82e70ff6c80c92926a4b)
REM
REM compiler GCC version 9.2.1 20190827 (Red Hat 9.2.1-1)
REM options -cpp -mtune=generic -march=x86-64 -g -O0 -fpre-include=/usr/include/finclude/math-vector-fortran.h
REM seed 1037477091 1656925272 -206090026 1331829746 2072279781 294046409 1462234379 -487672468 1503494657 -971355275 193699447 -1062471066 -1083511667 652454354 1793541667 1099502131 -283158793 -1501253611 -1727740017 -1751050780 -750937388 -46628826 -129915851 -2086470739 -2085775921 1395739498 334966592 -2096566382 1707378010 1848442284 1215264582 -1942749454 -1463373201
REM
CELL 1.54180   50.00000   50.00000   50.00000   90.00000   90.00000   90.00000
LATT -1
SFAC C  
C      1  0.5419850000000  0.5151380000000  0.5144260000000 1.0
C      1  0.5616770000000  0.4298450000000  0.4054760000000 1.0
C      1  0.4066030000000  0.4853490000000  0.5421770000000 1.0
C      1  0.5613590000000  0.4836600000000  0.5312980000000 1.0
C      1  0.5620690000000  0.5072710000000  0.5821670000000 1.0
C      1  0.4931220000000  0.5154200000000  0.4878420000000 1.0
C      1  0.5365130000000  0.5799810000000  0.5058960000000 1.0
C      1  0.5806410000000  0.4611180000000  0.5479300000000 1.0
C      1  0.5520010000000  0.4535180000000  0.5623910000000 1.0
C      1  0.4941890000000  0.4121530000000  0.4537050000000 1.0
C      1  0.5510440000000  0.5363980000000  0.4048340000000 1.0
C      1  0.4635360000000  0.5442170000000  0.4227540000000 1.0
C      1  0.5991130000000  0.5186890000000  0.4722660000000 1.0
C      1  0.5051430000000  0.5841970000000  0.4938530000000 1.0
C      1  0.4947880000000  0.4086330000000  0.4875290000000 1.0
C      1  0.4304630000000  0.4722930000000  0.5601550000000 1.0
C      1  0.5172040000000  0.5625730000000  0.4242130000000 1.0
C      1  0.4807690000000  0.4786510000000  0.4367580000000 1.0
C      1  0.4447180000000  0.5389680000000  0.5357300000000 1.0
C      1  0.5428070000000  0.5551720000000  0.5602550000000 1.0
C      1  0.4461240000000  0.4581070000000  0.4703330000000 1.0
C      1  0.4930250000000  0.5550370000000  0.5570480000000 1.0
C      1  0.4623540000000  0.4073310000000  0.4774020000000 1.0
C      1  0.4091810000000  0.5301210000000  0.5197490000000 1.0
C      1  0.4389080000000  0.4613030000000  0.5017110000000 1.0
C      1  0.4840360000000  0.5880630000000  0.5198210000000 1.0
C      1  0.4978030000000  0.4793080000000  0.5782480000000 1.0
C      1  0.5283760000000  0.4722890000000  0.5727030000000 1.0
C      1  0.3942590000000  0.4482120000000  0.5094510000000 1.0
C      1  0.4481870000000  0.5370080000000  0.4917810000000 1.0
C      1  0.4046120000000  0.4560980000000  0.5346350000000 1.0
C      1  0.5651750000000  0.5387470000000  0.5188170000000 1.0
C      1  0.5129090000000  0.3961850000000  0.5134770000000 1.0
C      1  0.4709720000000  0.5597320000000  0.5315670000000 1.0
C      1  0.5996910000000  0.4904850000000  0.4776990000000 1.0
C      1  0.4180450000000  0.5200170000000  0.4565230000000 1.0
C      1  0.5119020000000  0.4561960000000  0.5969180000000 1.0
C      1  0.4173320000000  0.5349580000000  0.4792960000000 1.0
C      1  0.5689760000000  0.4379820000000  0.4889560000000 1.0
C      1  0.4935080000000  0.5411580000000  0.4358860000000 1.0
C      1  0.4170660000000  0.5030170000000  0.5228220000000 1.0
C      1  0.5362070000000  0.5693120000000  0.4735820000000 1.0
C      1  0.4941910000000  0.5094480000000  0.5851530000000 1.0
C      1  0.4473160000000  0.5085060000000  0.4171670000000 1.0
C      1  0.4314970000000  0.4170770000000  0.5593220000000 1.0
C      1  0.4551910000000  0.4897110000000  0.5564520000000 1.0
C      1  0.4112640000000  0.4528830000000  0.4887570000000 1.0
C      1  0.4228190000000  0.4679240000000  0.5893860000000 1.0
C      1  0.5073540000000  0.5440500000000  0.5213390000000 1.0
C      1  0.4790910000000  0.5397520000000  0.5819140000000 1.0
C      1  0.5130690000000  0.5287740000000  0.5656360000000 1.0
C      1  0.4657580000000  0.5391560000000  0.4645060000000 1.0
C      1  0.4783680000000  0.5416140000000  0.5037330000000 1.0
C      1  0.4907970000000  0.5741570000000  0.4436680000000 1.0
C      1  0.4956200000000  0.4293600000000  0.4360100000000 1.0
C      1  0.5438360000000  0.4840630000000  0.5032900000000 1.0
C      1  0.4488800000000  0.5819280000000  0.5448150000000 1.0
C      1  0.5268220000000  0.5180650000000  0.4841260000000 1.0
C      1  0.4333120000000  0.4428840000000  0.5436330000000 1.0
C      1  0.4902410000000  0.4696800000000  0.4985900000000 1.0
C      1  0.4603320000000  0.5115990000000  0.5327490000000 1.0
C      1  0.5031350000000  0.4590640000000  0.4368470000000 1.0
C      1  0.5177420000000  0.4995410000000  0.4103320000000 1.0
C      1  0.4624620000000  0.5785690000000  0.4620160000000 1.0
C      1  0.5260330000000  0.4694280000000  0.4173350000000 1.0
C      1  0.5436540000000  0.5532570000000  0.4261360000000 1.0
C      1  0.4554830000000  0.4433320000000  0.5212440000000 1.0
C      1  0.5296350000000  0.4145530000000  0.5258300000000 1.0
C      1  0.5087850000000  0.5804920000000  0.5585640000000 1.0
C      1  0.5223390000000  0.4590940000000  0.4948940000000 1.0
C      1  0.5355390000000  0.4864650000000  0.5461660000000 1.0
C      1  0.5533630000000  0.5147140000000  0.4631140000000 1.0
C      1  0.4657760000000  0.5012370000000  0.5008120000000 1.0
C      1  0.5275180000000  0.4116260000000  0.4787980000000 1.0
C      1  0.5862110000000  0.4770520000000  0.4570720000000 1.0
C      1  0.3829900000000  0.5371340000000  0.5249240000000 1.0
C      1  0.5786540000000  0.4518360000000  0.5151250000000 1.0
C      1  0.4425240000000  0.5760070000000  0.4863440000000 1.0
C      1  0.5818170000000  0.5411840000000  0.4721230000000 1.0
C      1  0.5196140000000  0.5489090000000  0.4916370000000 1.0
C      1  0.4859370000000  0.4452910000000  0.5362530000000 1.0
C      1  0.4294500000000  0.5555070000000  0.5102300000000 1.0
C      1  0.5339960000000  0.5161860000000  0.3971470000000 1.0
C      1  0.5542940000000  0.4879070000000  0.4213500000000 1.0
C      1  0.5850690000000  0.5345440000000  0.5416840000000 1.0
C      1  0.4067240000000  0.4483730000000  0.4372920000000 1.0
C      1  0.5668450000000  0.4829440000000  0.5707680000000 1.0
C      1  0.6018480000000  0.5132960000000  0.5388530000000 1.0
C      1  0.4319660000000  0.5432520000000  0.5636260000000 1.0
C      1  0.5501450000000  0.4414740000000  0.5314260000000 1.0
C      1  0.4615690000000  0.5071420000000  0.5810170000000 1.0
C      1  0.4849940000000  0.5621780000000  0.4808770000000 1.0
C      1  0.5795950000000  0.5530780000000  0.4962880000000 1.0
C      1  0.5453080000000  0.5297310000000  0.5759020000000 1.0
C      1  0.4103720000000  0.4945150000000  0.4548550000000 1.0
C      1  0.4473220000000  0.5353310000000  0.5844240000000 1.0
C      1  0.4933930000000  0.5084870000000  0.4264360000000 1.0
C      1  0.5168700000000  0.4439720000000  0.5248510000000 1.0
C      1  0.5107560000000  0.4416140000000  0.6175400000000 1.0
C      1  0.5319080000000  0.5835110000000  0.5399200000000 1.0
C      1  0.5767240000000  0.4500440000000  0.4652130000000 1.0
C      1  0.4810010000000  0.4717190000000  0.5543530000000 1.0
C      1  0.5546970000000  0.5476730000000  0.4548660000000 1.0
C      1  0.4708690000000  0.4816810000000  0.4733540000000 1.0
C      1  0.4371620000000  0.4901340000000  0.5086320000000 1.0
C      1  0.5213950000000  0.4622120000000  0.4609510000000 1.0
C      1  0.4584360000000  0.4857120000000  0.4177050000000 1.0
C      1  0.4839390000000  0.4366240000000  0.5034980000000 1.0
C      1  0.5190130000000  0.5859870000000  0.4564160000000 1.0
C      1  0.5511810000000  0.4484130000000  0.4195820000000 1.0
C      1  0.5688150000000  0.4946220000000  0.4430260000000 1.0
C      1  0.5231070000000  0.5128800000000  0.5401110000000 1.0
C      1  0.5416580000000  0.4320790000000  0.4891070000000 1.0
C      1  0.5168070000000  0.5273080000000  0.4543640000000 1.0
C      1  0.5513460000000  0.4592060000000  0.4490490000000 1.0
C      1  0.4805180000000  0.5103710000000  0.4578530000000 1.0
C      1  0.4424290000000  0.5283920000000  0.4420520000000 1.0
C      1  0.5986980000000  0.4760850000000  0.5020980000000 1.0
C      1  0.4520710000000  0.4276790000000  0.4671100000000 1.0
C      1  0.4906530000000  0.4834900000000  0.5265250000000 1.0
C      1  0.5435910000000  0.4839460000000  0.4719130000000 1.0
C      1  0.4153010000000  0.4643150000000  0.4585950000000 1.0
C      1  0.5385540000000  0.5530590000000  0.5265840000000 1.0
C      1  0.4916490000000  0.6141000000000  0.5030840000000 1.0
C      1  0.4931420000000  0.5141870000000  0.5284360000000 1.0
C      1  0.5914540000000  0.4917140000000  0.5251380000000 1.0
END
