TITL C-3371503-4580-65 -0.00500512773873663 125000 -1001.84016315848 0 0 184 (C1) n - 1
REM
REM in /nfs/bkarasulu/CARBON/AIRSS/Generating-Clusters/AIREBO/with-SteepDescent/Only-C1/SD-CG-opt/Try1-1.4A-POS3A/HFTN-CG
REM
REM
REM
REM
REM
REM ./C.cell (11c1c37f851c82e70ff6c80c92926a4b)
REM
REM compiler GCC version 9.2.1 20190827 (Red Hat 9.2.1-1)
REM options -cpp -mtune=generic -march=x86-64 -g -O0 -fpre-include=/usr/include/finclude/math-vector-fortran.h
REM seed -228768154 918384196 -1231235718 -823811402 99584216 -624817158 233472440 861130211 926442580 -860844471 -1267364071 866355099 -1246207197 1310480965 767966797 145672088 -1277198369 1899168914 1374834894 -2130488593 1427548769 -1388022094 -1793439766 -499288424 1202653527 111456413 -1504169232 -608274448 -966580913 -687734150 1413635894 255411350 -1279036704
REM
CELL 1.54180   50.00000   50.00000   50.00000   90.00000   90.00000   90.00000
LATT -1
SFAC C  
C      1  0.5935930000000  0.5175520000000  0.4718540000000 1.0
C      1  0.4771670000000  0.5059860000000  0.6005890000000 1.0
C      1  0.5417470000000  0.5203680000000  0.4445760000000 1.0
C      1  0.5724680000000  0.4883250000000  0.5447330000000 1.0
C      1  0.5430950000000  0.5483410000000  0.4566620000000 1.0
C      1  0.4257600000000  0.5198710000000  0.5520510000000 1.0
C      1  0.5136660000000  0.4905500000000  0.4745500000000 1.0
C      1  0.5852640000000  0.5619920000000  0.5092800000000 1.0
C      1  0.4773780000000  0.5476710000000  0.4039060000000 1.0
C      1  0.3932890000000  0.5052590000000  0.4690690000000 1.0
C      1  0.4730480000000  0.5446610000000  0.5614690000000 1.0
C      1  0.4890490000000  0.4764400000000  0.5331650000000 1.0
C      1  0.4430180000000  0.4015240000000  0.5240250000000 1.0
C      1  0.4762050000000  0.4396430000000  0.5242540000000 1.0
C      1  0.5228740000000  0.5141930000000  0.5111230000000 1.0
C      1  0.5197100000000  0.6091420000000  0.5588000000000 1.0
C      1  0.4636630000000  0.3885780000000  0.5072690000000 1.0
C      1  0.4486680000000  0.4010470000000  0.4485240000000 1.0
C      1  0.4574580000000  0.5223040000000  0.5781780000000 1.0
C      1  0.5134440000000  0.5873860000000  0.5325210000000 1.0
C      1  0.4953370000000  0.4663620000000  0.4455900000000 1.0
C      1  0.4465640000000  0.5636040000000  0.4326600000000 1.0
C      1  0.4486810000000  0.4298100000000  0.4848980000000 1.0
C      1  0.4352070000000  0.4673860000000  0.4850340000000 1.0
C      1  0.5418770000000  0.5198600000000  0.4845410000000 1.0
C      1  0.4251600000000  0.5175240000000  0.4935080000000 1.0
C      1  0.5031530000000  0.5590290000000  0.4052580000000 1.0
C      1  0.4334760000000  0.5624130000000  0.5253450000000 1.0
C      1  0.5112840000000  0.5298210000000  0.5536690000000 1.0
C      1  0.5722220000000  0.4601240000000  0.4285780000000 1.0
C      1  0.4511920000000  0.4134900000000  0.5492900000000 1.0
C      1  0.4616950000000  0.4962000000000  0.4392240000000 1.0
C      1  0.6087830000000  0.4699450000000  0.4759260000000 1.0
C      1  0.5457330000000  0.5251850000000  0.5312600000000 1.0
C      1  0.5673220000000  0.5796370000000  0.5436810000000 1.0
C      1  0.4010430000000  0.5368010000000  0.4792460000000 1.0
C      1  0.4968040000000  0.5891170000000  0.5685570000000 1.0
C      1  0.5343130000000  0.3921500000000  0.4934150000000 1.0
C      1  0.4603580000000  0.4006310000000  0.4786600000000 1.0
C      1  0.4655050000000  0.4990110000000  0.5577490000000 1.0
C      1  0.5068320000000  0.4574270000000  0.5987420000000 1.0
C      1  0.5920790000000  0.5080400000000  0.4455720000000 1.0
C      1  0.5085020000000  0.4958590000000  0.3939180000000 1.0
C      1  0.5457550000000  0.4387700000000  0.4288180000000 1.0
C      1  0.5052310000000  0.5399640000000  0.5839860000000 1.0
C      1  0.5247830000000  0.5698560000000  0.5665540000000 1.0
C      1  0.5411390000000  0.5208620000000  0.5627310000000 1.0
C      1  0.4512580000000  0.4519770000000  0.4366590000000 1.0
C      1  0.5301360000000  0.3881250000000  0.4539120000000 1.0
C      1  0.4672980000000  0.4282460000000  0.5754050000000 1.0
C      1  0.5742530000000  0.5878430000000  0.5008280000000 1.0
C      1  0.4282520000000  0.4184990000000  0.5062440000000 1.0
C      1  0.4857560000000  0.5638760000000  0.5814560000000 1.0
C      1  0.3930210000000  0.4483200000000  0.5288630000000 1.0
C      1  0.4771900000000  0.4548750000000  0.5940920000000 1.0
C      1  0.5412580000000  0.4889370000000  0.4316120000000 1.0
C      1  0.4040220000000  0.5361730000000  0.5317010000000 1.0
C      1  0.5464830000000  0.5472260000000  0.5799830000000 1.0
C      1  0.5033780000000  0.5759000000000  0.4671790000000 1.0
C      1  0.3963350000000  0.4559960000000  0.4567500000000 1.0
C      1  0.5363210000000  0.5949380000000  0.4289970000000 1.0
C      1  0.5572390000000  0.4461280000000  0.4922430000000 1.0
C      1  0.5786050000000  0.4955230000000  0.4929870000000 1.0
C      1  0.4701200000000  0.4042960000000  0.5910890000000 1.0
C      1  0.4903960000000  0.3932080000000  0.5150880000000 1.0
C      1  0.5059360000000  0.4525370000000  0.5664530000000 1.0
C      1  0.4195360000000  0.4642230000000  0.4366140000000 1.0
C      1  0.5403150000000  0.6074570000000  0.5361720000000 1.0
C      1  0.4455290000000  0.5392050000000  0.5052610000000 1.0
C      1  0.4716850000000  0.5263170000000  0.4270300000000 1.0
C      1  0.5276340000000  0.4774460000000  0.4074690000000 1.0
C      1  0.3963660000000  0.4930170000000  0.5525120000000 1.0
C      1  0.5479590000000  0.6002690000000  0.4606660000000 1.0
C      1  0.4516250000000  0.4997280000000  0.5058940000000 1.0
C      1  0.5582810000000  0.4999250000000  0.4660740000000 1.0
C      1  0.6029820000000  0.4957680000000  0.5151860000000 1.0
C      1  0.5068360000000  0.5841520000000  0.4169110000000 1.0
C      1  0.4382490000000  0.4777460000000  0.5801420000000 1.0
C      1  0.5874560000000  0.4387810000000  0.5042130000000 1.0
C      1  0.5065000000000  0.6220650000000  0.4944460000000 1.0
C      1  0.4847620000000  0.5930450000000  0.4313670000000 1.0
C      1  0.4909770000000  0.4911100000000  0.4226820000000 1.0
C      1  0.4824720000000  0.4991270000000  0.4640710000000 1.0
C      1  0.5759800000000  0.5919000000000  0.4722340000000 1.0
C      1  0.5417010000000  0.5646850000000  0.4155840000000 1.0
C      1  0.5916730000000  0.5713990000000  0.4620460000000 1.0
C      1  0.4420840000000  0.4770640000000  0.4061820000000 1.0
C      1  0.5782270000000  0.5159710000000  0.5273220000000 1.0
C      1  0.5804650000000  0.4741510000000  0.4663820000000 1.0
C      1  0.5721260000000  0.4208250000000  0.4771150000000 1.0
C      1  0.4966730000000  0.4435080000000  0.4123250000000 1.0
C      1  0.4171890000000  0.4956020000000  0.5742950000000 1.0
C      1  0.5092160000000  0.5537720000000  0.5296020000000 1.0
C      1  0.5447820000000  0.4030450000000  0.5872720000000 1.0
C      1  0.4534840000000  0.5638710000000  0.4055750000000 1.0
C      1  0.5415000000000  0.5579150000000  0.5394450000000 1.0
C      1  0.5235170000000  0.4504820000000  0.4084050000000 1.0
C      1  0.4920570000000  0.4997710000000  0.5091800000000 1.0
C      1  0.4571180000000  0.5754310000000  0.4789820000000 1.0
C      1  0.5275660000000  0.4143570000000  0.5341430000000 1.0
C      1  0.5113970000000  0.5245040000000  0.4743050000000 1.0
C      1  0.4165790000000  0.5198090000000  0.4256640000000 1.0
C      1  0.4935760000000  0.4837790000000  0.5718690000000 1.0
C      1  0.5326360000000  0.4411010000000  0.5142410000000 1.0
C      1  0.5507100000000  0.4283030000000  0.5786100000000 1.0
C      1  0.4992040000000  0.4600660000000  0.4787820000000 1.0
C      1  0.5334280000000  0.4709200000000  0.4550270000000 1.0
C      1  0.4369280000000  0.4841700000000  0.4552010000000 1.0
C      1  0.4456040000000  0.4645820000000  0.5550200000000 1.0
C      1  0.6133780000000  0.4736250000000  0.5351900000000 1.0
C      1  0.5739390000000  0.4920930000000  0.4255170000000 1.0
C      1  0.4077230000000  0.4658080000000  0.4971380000000 1.0
C      1  0.6082340000000  0.4607780000000  0.5046460000000 1.0
C      1  0.5177510000000  0.4671910000000  0.5263900000000 1.0
C      1  0.5204570000000  0.3926230000000  0.5185440000000 1.0
C      1  0.4747550000000  0.5681940000000  0.4505260000000 1.0
C      1  0.5403500000000  0.5650730000000  0.5062230000000 1.0
C      1  0.4947260000000  0.4227190000000  0.5129770000000 1.0
C      1  0.4840350000000  0.6140410000000  0.5091860000000 1.0
C      1  0.5845020000000  0.5457080000000  0.5326660000000 1.0
C      1  0.5827500000000  0.4276570000000  0.5321990000000 1.0
C      1  0.5290040000000  0.4756160000000  0.6077590000000 1.0
C      1  0.4252990000000  0.5097870000000  0.4632210000000 1.0
C      1  0.4719960000000  0.6170980000000  0.4314980000000 1.0
C      1  0.5111360000000  0.4344830000000  0.4890830000000 1.0
C      1  0.5603920000000  0.3950510000000  0.4848070000000 1.0
C      1  0.5324500000000  0.5151740000000  0.3955760000000 1.0
C      1  0.4425760000000  0.5687500000000  0.5524260000000 1.0
C      1  0.5559770000000  0.4764880000000  0.5937140000000 1.0
C      1  0.4426630000000  0.5317600000000  0.4439250000000 1.0
C      1  0.5562260000000  0.5477560000000  0.4853460000000 1.0
C      1  0.4915560000000  0.4224860000000  0.4347300000000 1.0
C      1  0.4610800000000  0.4778080000000  0.5972330000000 1.0
C      1  0.5145590000000  0.4060710000000  0.4730260000000 1.0
C      1  0.5290740000000  0.5258000000000  0.6004580000000 1.0
C      1  0.4299670000000  0.5780380000000  0.4962490000000 1.0
C      1  0.4769940000000  0.5507410000000  0.5327850000000 1.0
C      1  0.4098060000000  0.4778940000000  0.5288590000000 1.0
C      1  0.3854420000000  0.5180050000000  0.5445200000000 1.0
C      1  0.5450760000000  0.5962330000000  0.5079740000000 1.0
C      1  0.4205020000000  0.4929300000000  0.4184110000000 1.0
C      1  0.5302070000000  0.4844640000000  0.5036300000000 1.0
C      1  0.5592410000000  0.4786210000000  0.5152540000000 1.0
C      1  0.4826440000000  0.5827660000000  0.5224630000000 1.0
C      1  0.4580800000000  0.4537910000000  0.5062130000000 1.0
C      1  0.5357650000000  0.4738830000000  0.5509940000000 1.0
C      1  0.3954370000000  0.5296790000000  0.4460600000000 1.0
C      1  0.4854970000000  0.5701860000000  0.4931450000000 1.0
C      1  0.5291990000000  0.5741190000000  0.4541860000000 1.0
C      1  0.4626110000000  0.5216910000000  0.4698970000000 1.0
C      1  0.5242320000000  0.5380590000000  0.4132760000000 1.0
C      1  0.4750900000000  0.4523890000000  0.5527470000000 1.0
C      1  0.4923700000000  0.5390970000000  0.4501880000000 1.0
C      1  0.4597590000000  0.4217630000000  0.4341610000000 1.0
C      1  0.5515590000000  0.4935320000000  0.5673840000000 1.0
C      1  0.4721870000000  0.4644990000000  0.4129090000000 1.0
C      1  0.4023580000000  0.4323540000000  0.5016370000000 1.0
C      1  0.5577970000000  0.5054940000000  0.3992620000000 1.0
C      1  0.4956770000000  0.5062360000000  0.5481430000000 1.0
C      1  0.4729350000000  0.4791720000000  0.4891380000000 1.0
C      1  0.5876850000000  0.5453110000000  0.4809300000000 1.0
C      1  0.5962250000000  0.4748410000000  0.5580250000000 1.0
C      1  0.5169930000000  0.4417090000000  0.4467150000000 1.0
C      1  0.5099370000000  0.4979780000000  0.5960840000000 1.0
C      1  0.4866830000000  0.4035120000000  0.4603880000000 1.0
C      1  0.4979350000000  0.5287650000000  0.6152500000000 1.0
C      1  0.5591280000000  0.4489050000000  0.4584030000000 1.0
C      1  0.4426700000000  0.5476850000000  0.4739740000000 1.0
C      1  0.5101740000000  0.5162230000000  0.4352210000000 1.0
C      1  0.5886550000000  0.4685390000000  0.5841040000000 1.0
C      1  0.5305420000000  0.6121900000000  0.4860750000000 1.0
C      1  0.4347500000000  0.5460360000000  0.5693380000000 1.0
C      1  0.3879570000000  0.4780260000000  0.4755440000000 1.0
C      1  0.4671100000000  0.5842230000000  0.5526790000000 1.0
C      1  0.5675170000000  0.4460750000000  0.5901270000000 1.0
C      1  0.4394130000000  0.4926580000000  0.5368640000000 1.0
C      1  0.4081020000000  0.5530950000000  0.5047160000000 1.0
C      1  0.4718880000000  0.5254390000000  0.5150810000000 1.0
C      1  0.4615940000000  0.4556590000000  0.4669740000000 1.0
C      1  0.5743350000000  0.5545460000000  0.5618360000000 1.0
C      1  0.3934010000000  0.4320220000000  0.4701420000000 1.0
C      1  0.5605520000000  0.4490020000000  0.5319780000000 1.0
C      1  0.5350800000000  0.4400330000000  0.5541520000000 1.0
C      1  0.5122190000000  0.5495460000000  0.4958440000000 1.0
END
