TITL C-3371512-288-52 0.000656184526483507 125000 -425.985602687136 0 0 76 (C1) n - 1
REM
REM in /nfs/bkarasulu/CARBON/AIRSS/Generating-Clusters/AIREBO/with-SteepDescent/Only-C1/SD-CG-opt/Try1-1.4A-POS3A/HFTN-CG
REM
REM
REM
REM
REM
REM ./C.cell (11c1c37f851c82e70ff6c80c92926a4b)
REM
REM compiler GCC version 9.2.1 20190827 (Red Hat 9.2.1-1)
REM options -cpp -mtune=generic -march=x86-64 -g -O0 -fpre-include=/usr/include/finclude/math-vector-fortran.h
REM seed -2023332673 -320598370 -13802125 709042510 649943925 -290644214 -2108418027 -940878813 -1110441928 -828190520 1709439476 2089768431 335081637 -1898729205 270703081 2062592471 -1673438986 267319771 -319027460 -288983176 1816518080 -50717385 -1289822053 617083649 -336170233 -129094232 512043722 -1498161569 1589003161 1406252621 1353915418 -1574693813 574066217
REM
CELL 1.54180   50.00000   50.00000   50.00000   90.00000   90.00000   90.00000
LATT -1
SFAC C  
C      1  0.4316810000000  0.5218100000000  0.4601320000000 1.0
C      1  0.4605440000000  0.5206610000000  0.5746410000000 1.0
C      1  0.5460380000000  0.4913180000000  0.4549920000000 1.0
C      1  0.4638970000000  0.5212750000000  0.4986820000000 1.0
C      1  0.5421120000000  0.5235210000000  0.5646550000000 1.0
C      1  0.4728900000000  0.5049310000000  0.4369610000000 1.0
C      1  0.4690350000000  0.5380090000000  0.5496730000000 1.0
C      1  0.4772200000000  0.5491180000000  0.4926690000000 1.0
C      1  0.5390470000000  0.4739900000000  0.4350320000000 1.0
C      1  0.4360580000000  0.4670480000000  0.4639580000000 1.0
C      1  0.5230660000000  0.5401630000000  0.5723740000000 1.0
C      1  0.4491790000000  0.4948860000000  0.4559800000000 1.0
C      1  0.4889750000000  0.4889060000000  0.4230090000000 1.0
C      1  0.5108450000000  0.4373760000000  0.5025910000000 1.0
C      1  0.4628850000000  0.4663820000000  0.5243280000000 1.0
C      1  0.5501430000000  0.4576170000000  0.5244640000000 1.0
C      1  0.5738880000000  0.4729000000000  0.5138300000000 1.0
C      1  0.4964230000000  0.5386930000000  0.4698970000000 1.0
C      1  0.5169020000000  0.5668680000000  0.4895460000000 1.0
C      1  0.5046440000000  0.4941560000000  0.4839860000000 1.0
C      1  0.4597210000000  0.4954830000000  0.5359590000000 1.0
C      1  0.5239720000000  0.4782730000000  0.5312760000000 1.0
C      1  0.5364650000000  0.4465410000000  0.5521400000000 1.0
C      1  0.5638750000000  0.5156550000000  0.5424030000000 1.0
C      1  0.4512190000000  0.5423310000000  0.5221760000000 1.0
C      1  0.4736330000000  0.4700390000000  0.4766200000000 1.0
C      1  0.4960720000000  0.4183340000000  0.4604490000000 1.0
C      1  0.5719260000000  0.4967420000000  0.4987360000000 1.0
C      1  0.5092720000000  0.4703330000000  0.5849950000000 1.0
C      1  0.4654660000000  0.4941550000000  0.5672670000000 1.0
C      1  0.4512340000000  0.4280810000000  0.4913250000000 1.0
C      1  0.4870260000000  0.5141090000000  0.5335050000000 1.0
C      1  0.5106730000000  0.4398230000000  0.5344740000000 1.0
C      1  0.4785580000000  0.4508670000000  0.4276540000000 1.0
C      1  0.5045960000000  0.4061790000000  0.4903450000000 1.0
C      1  0.4625560000000  0.4413680000000  0.5443590000000 1.0
C      1  0.5250740000000  0.5385210000000  0.4421800000000 1.0
C      1  0.4351870000000  0.5116180000000  0.5243680000000 1.0
C      1  0.5096950000000  0.4642000000000  0.4307880000000 1.0
C      1  0.5148270000000  0.5328570000000  0.5262260000000 1.0
C      1  0.5332070000000  0.5555150000000  0.5158340000000 1.0
C      1  0.5424760000000  0.4334160000000  0.5087280000000 1.0
C      1  0.4840720000000  0.4287610000000  0.5482250000000 1.0
C      1  0.5565630000000  0.5469370000000  0.4751190000000 1.0
C      1  0.4961760000000  0.5783940000000  0.4732570000000 1.0
C      1  0.4553250000000  0.5620790000000  0.4719390000000 1.0
C      1  0.5311690000000  0.5817870000000  0.5356360000000 1.0
C      1  0.5528030000000  0.5489310000000  0.4463890000000 1.0
C      1  0.5935740000000  0.4912080000000  0.4561360000000 1.0
C      1  0.5032480000000  0.5725230000000  0.5360810000000 1.0
C      1  0.4470210000000  0.4613700000000  0.4959320000000 1.0
C      1  0.4616640000000  0.4580200000000  0.4471500000000 1.0
C      1  0.4870090000000  0.4762930000000  0.5687670000000 1.0
C      1  0.5367920000000  0.4080900000000  0.4948950000000 1.0
C      1  0.4742050000000  0.5019460000000  0.4778930000000 1.0
C      1  0.4756840000000  0.5318480000000  0.4448170000000 1.0
C      1  0.4732130000000  0.4158110000000  0.4831500000000 1.0
C      1  0.5680610000000  0.5199290000000  0.5149270000000 1.0
C      1  0.4475570000000  0.5693340000000  0.5102200000000 1.0
C      1  0.4678340000000  0.5874990000000  0.4897710000000 1.0
C      1  0.5022980000000  0.5614870000000  0.4459040000000 1.0
C      1  0.5056060000000  0.4445110000000  0.4560450000000 1.0
C      1  0.4930540000000  0.4668800000000  0.5400940000000 1.0
C      1  0.4865580000000  0.5734990000000  0.5144600000000 1.0
C      1  0.5425780000000  0.4926670000000  0.5550660000000 1.0
C      1  0.4496230000000  0.5435410000000  0.4520730000000 1.0
C      1  0.4994120000000  0.5467570000000  0.5526850000000 1.0
C      1  0.4252640000000  0.4863700000000  0.5036470000000 1.0
C      1  0.5593520000000  0.5443380000000  0.5041290000000 1.0
C      1  0.5338280000000  0.4677650000000  0.5709530000000 1.0
C      1  0.5235130000000  0.5103300000000  0.4621090000000 1.0
C      1  0.5035500000000  0.4600830000000  0.4829280000000 1.0
C      1  0.5111010000000  0.5012480000000  0.5139650000000 1.0
C      1  0.5271950000000  0.5357440000000  0.4818060000000 1.0
C      1  0.5701660000000  0.4932240000000  0.4697820000000 1.0
C      1  0.4327320000000  0.5167270000000  0.4908410000000 1.0
END
