TITL C-3371512-288-66 -0.0033951227274992 125000 -822.004783061709 0 0 154 (C1) n - 1
REM
REM in /nfs/bkarasulu/CARBON/AIRSS/Generating-Clusters/AIREBO/with-SteepDescent/Only-C1/SD-CG-opt/Try1-1.4A-POS3A/HFTN-CG
REM
REM
REM
REM
REM
REM ./C.cell (11c1c37f851c82e70ff6c80c92926a4b)
REM
REM compiler GCC version 9.2.1 20190827 (Red Hat 9.2.1-1)
REM options -cpp -mtune=generic -march=x86-64 -g -O0 -fpre-include=/usr/include/finclude/math-vector-fortran.h
REM seed 2116211510 315971671 -177655528 1635544751 1169981368 -1722847149 -1524714232 1929042338 -1642933237 -761751025 157807941 -1389388824 253423844 -1726655561 -1958193265 -189079055 -185773376 945183011 -744993893 53189758 1596423187 -1410851193 -746351306 1272527507 450629262 -1155920911 195975724 819542041 -1812093892 -178430812 -1810929523 -798567714 533188722
REM
CELL 1.54180   50.00000   50.00000   50.00000   90.00000   90.00000   90.00000
LATT -1
SFAC C  
C      1  0.4971190000000  0.5618330000000  0.5114490000000 1.0
C      1  0.5143870000000  0.5800410000000  0.4350170000000 1.0
C      1  0.5899920000000  0.4720180000000  0.5545850000000 1.0
C      1  0.5583480000000  0.4957460000000  0.5489300000000 1.0
C      1  0.5460980000000  0.4368780000000  0.5566820000000 1.0
C      1  0.5287620000000  0.4989300000000  0.5613950000000 1.0
C      1  0.4830410000000  0.3973050000000  0.4610150000000 1.0
C      1  0.5897850000000  0.5424530000000  0.5000190000000 1.0
C      1  0.4906400000000  0.5010820000000  0.6061210000000 1.0
C      1  0.4021700000000  0.4621720000000  0.4715390000000 1.0
C      1  0.4938800000000  0.5649500000000  0.5440460000000 1.0
C      1  0.5027320000000  0.4076270000000  0.4427310000000 1.0
C      1  0.4772910000000  0.4704980000000  0.5369880000000 1.0
C      1  0.4491040000000  0.4729860000000  0.4540540000000 1.0
C      1  0.4407780000000  0.4240940000000  0.4727770000000 1.0
C      1  0.4012910000000  0.4935600000000  0.5326270000000 1.0
C      1  0.4962860000000  0.4168590000000  0.5768190000000 1.0
C      1  0.4264110000000  0.5591640000000  0.4942150000000 1.0
C      1  0.4652160000000  0.5128920000000  0.4646260000000 1.0
C      1  0.4752680000000  0.4705060000000  0.6070870000000 1.0
C      1  0.5069030000000  0.4646610000000  0.3908450000000 1.0
C      1  0.5107130000000  0.5159300000000  0.5430290000000 1.0
C      1  0.4414320000000  0.5655270000000  0.5306440000000 1.0
C      1  0.4641090000000  0.5288170000000  0.4082700000000 1.0
C      1  0.5263810000000  0.5493800000000  0.5098830000000 1.0
C      1  0.4666450000000  0.4482430000000  0.5603940000000 1.0
C      1  0.4582010000000  0.4131470000000  0.4998990000000 1.0
C      1  0.5344340000000  0.4692020000000  0.5354090000000 1.0
C      1  0.4707730000000  0.5425170000000  0.4517950000000 1.0
C      1  0.4035340000000  0.4787590000000  0.4900980000000 1.0
C      1  0.4482570000000  0.5704920000000  0.5618480000000 1.0
C      1  0.4665280000000  0.5886430000000  0.4728870000000 1.0
C      1  0.4970160000000  0.5941970000000  0.5055380000000 1.0
C      1  0.4420650000000  0.5053330000000  0.5844430000000 1.0
C      1  0.4267290000000  0.4936010000000  0.5100610000000 1.0
C      1  0.5491000000000  0.4745020000000  0.4130610000000 1.0
C      1  0.4461140000000  0.5074560000000  0.5343420000000 1.0
C      1  0.4351130000000  0.4976040000000  0.4345290000000 1.0
C      1  0.4662670000000  0.5620090000000  0.5772530000000 1.0
C      1  0.5587750000000  0.5170320000000  0.5827620000000 1.0
C      1  0.5292200000000  0.4106630000000  0.4537490000000 1.0
C      1  0.5366360000000  0.4728240000000  0.4425750000000 1.0
C      1  0.5677120000000  0.4944580000000  0.4907180000000 1.0
C      1  0.6010670000000  0.5418340000000  0.4517850000000 1.0
C      1  0.4728290000000  0.5895380000000  0.5266170000000 1.0
C      1  0.5531520000000  0.4033280000000  0.4969630000000 1.0
C      1  0.5410420000000  0.5344590000000  0.4102730000000 1.0
C      1  0.4343470000000  0.4308410000000  0.5172240000000 1.0
C      1  0.4196220000000  0.5427760000000  0.5296230000000 1.0
C      1  0.5650160000000  0.5458140000000  0.5729920000000 1.0
C      1  0.5347760000000  0.5668030000000  0.4187500000000 1.0
C      1  0.5163590000000  0.5902700000000  0.4625890000000 1.0
C      1  0.4552560000000  0.4523890000000  0.4817880000000 1.0
C      1  0.4944190000000  0.4689680000000  0.5828190000000 1.0
C      1  0.5038460000000  0.4497470000000  0.4811470000000 1.0
C      1  0.5214990000000  0.4210000000000  0.4803260000000 1.0
C      1  0.5140760000000  0.5172930000000  0.4059020000000 1.0
C      1  0.5903510000000  0.4561920000000  0.4497060000000 1.0
C      1  0.4985220000000  0.4915010000000  0.3920520000000 1.0
C      1  0.5691910000000  0.4303070000000  0.4958680000000 1.0
C      1  0.4802540000000  0.4861080000000  0.5647470000000 1.0
C      1  0.5759060000000  0.4632290000000  0.5013970000000 1.0
C      1  0.4389340000000  0.4632840000000  0.5216020000000 1.0
C      1  0.5838130000000  0.4968890000000  0.5714450000000 1.0
C      1  0.5334110000000  0.5681780000000  0.4820290000000 1.0
C      1  0.5216460000000  0.4262160000000  0.5640800000000 1.0
C      1  0.5597700000000  0.5807780000000  0.5337080000000 1.0
C      1  0.4410700000000  0.4534920000000  0.4264280000000 1.0
C      1  0.4404540000000  0.4945100000000  0.4789480000000 1.0
C      1  0.4887720000000  0.4010140000000  0.4912880000000 1.0
C      1  0.5684510000000  0.5195980000000  0.4173120000000 1.0
C      1  0.4048420000000  0.5030300000000  0.4396870000000 1.0
C      1  0.4953280000000  0.4330960000000  0.4322420000000 1.0
C      1  0.5768260000000  0.5187830000000  0.5070550000000 1.0
C      1  0.5179190000000  0.5316370000000  0.4868460000000 1.0
C      1  0.4404110000000  0.5324660000000  0.4401920000000 1.0
C      1  0.4937160000000  0.4305360000000  0.5074130000000 1.0
C      1  0.5688580000000  0.6039930000000  0.5464000000000 1.0
C      1  0.4726130000000  0.5125390000000  0.5800140000000 1.0
C      1  0.4597630000000  0.5316560000000  0.5408500000000 1.0
C      1  0.5512730000000  0.4665590000000  0.5648750000000 1.0
C      1  0.5097390000000  0.5510920000000  0.4645870000000 1.0
C      1  0.5675410000000  0.4411150000000  0.4648830000000 1.0
C      1  0.5049950000000  0.4983540000000  0.4610720000000 1.0
C      1  0.5244940000000  0.5026380000000  0.6089280000000 1.0
C      1  0.5360670000000  0.5367490000000  0.5343160000000 1.0
C      1  0.4715350000000  0.4940940000000  0.3996310000000 1.0
C      1  0.4377350000000  0.5440320000000  0.4115840000000 1.0
C      1  0.4907390000000  0.4508740000000  0.4532520000000 1.0
C      1  0.4839640000000  0.5519830000000  0.4816760000000 1.0
C      1  0.5031760000000  0.5366910000000  0.4388620000000 1.0
C      1  0.5389330000000  0.5027530000000  0.4585470000000 1.0
C      1  0.5730230000000  0.5011760000000  0.4599370000000 1.0
C      1  0.5553120000000  0.5838130000000  0.4995890000000 1.0
C      1  0.4067890000000  0.5427600000000  0.4760710000000 1.0
C      1  0.5338160000000  0.4070670000000  0.5313330000000 1.0
C      1  0.5200450000000  0.4801270000000  0.5855690000000 1.0
C      1  0.4911570000000  0.5424630000000  0.4095610000000 1.0
C      1  0.4661080000000  0.4921280000000  0.5164460000000 1.0
C      1  0.4976270000000  0.5511430000000  0.5847220000000 1.0
C      1  0.5363520000000  0.5306350000000  0.4432190000000 1.0
C      1  0.4804450000000  0.6015470000000  0.5534600000000 1.0
C      1  0.5467630000000  0.4646820000000  0.4742290000000 1.0
C      1  0.5028190000000  0.4797420000000  0.4973740000000 1.0
C      1  0.5448870000000  0.5602240000000  0.5538900000000 1.0
C      1  0.5206130000000  0.3947790000000  0.5019520000000 1.0
C      1  0.4213180000000  0.5189040000000  0.4648420000000 1.0
C      1  0.5430250000000  0.4576260000000  0.5079870000000 1.0
C      1  0.4703740000000  0.4805450000000  0.4871750000000 1.0
C      1  0.5338260000000  0.4917110000000  0.4902010000000 1.0
C      1  0.3815660000000  0.5483070000000  0.4728460000000 1.0
C      1  0.4524270000000  0.4086620000000  0.5331040000000 1.0
C      1  0.4226780000000  0.4733860000000  0.5497050000000 1.0
C      1  0.5021340000000  0.4178120000000  0.5377430000000 1.0
C      1  0.4553390000000  0.4610140000000  0.5834280000000 1.0
C      1  0.5077260000000  0.4843140000000  0.5307300000000 1.0
C      1  0.3888330000000  0.4689590000000  0.5483660000000 1.0
C      1  0.5784790000000  0.5652540000000  0.5102590000000 1.0
C      1  0.4559890000000  0.4004860000000  0.4563080000000 1.0
C      1  0.4111290000000  0.5820950000000  0.5104820000000 1.0
C      1  0.4673370000000  0.5044330000000  0.4317540000000 1.0
C      1  0.4866870000000  0.5338520000000  0.5575690000000 1.0
C      1  0.4660150000000  0.5749940000000  0.4478910000000 1.0
C      1  0.4687280000000  0.4496510000000  0.5123610000000 1.0
C      1  0.6073320000000  0.5439810000000  0.4783400000000 1.0
C      1  0.5511940000000  0.4873240000000  0.5922990000000 1.0
C      1  0.4819270000000  0.4782870000000  0.4469010000000 1.0
C      1  0.4641260000000  0.5204720000000  0.4977630000000 1.0
C      1  0.4668410000000  0.5486440000000  0.5156670000000 1.0
C      1  0.5856410000000  0.4809320000000  0.4397970000000 1.0
C      1  0.5275140000000  0.4329520000000  0.5102610000000 1.0
C      1  0.5019130000000  0.5977750000000  0.5660240000000 1.0
C      1  0.5540690000000  0.4188040000000  0.4470550000000 1.0
C      1  0.4310540000000  0.5265760000000  0.5028270000000 1.0
C      1  0.4252630000000  0.4488190000000  0.4561690000000 1.0
C      1  0.5726980000000  0.4909430000000  0.4148210000000 1.0
C      1  0.4881120000000  0.5715210000000  0.4269990000000 1.0
C      1  0.5140700000000  0.4941140000000  0.4286470000000 1.0
C      1  0.4985730000000  0.4435900000000  0.4064800000000 1.0
C      1  0.4725910000000  0.4189850000000  0.5524710000000 1.0
C      1  0.4932140000000  0.5988100000000  0.4782150000000 1.0
C      1  0.5947990000000  0.4634190000000  0.5246860000000 1.0
C      1  0.5854910000000  0.5274440000000  0.5566230000000 1.0
C      1  0.5852580000000  0.4411990000000  0.5455690000000 1.0
C      1  0.3962870000000  0.5418560000000  0.5408580000000 1.0
C      1  0.5506360000000  0.5516900000000  0.4577880000000 1.0
C      1  0.4960300000000  0.5118090000000  0.4897950000000 1.0
C      1  0.5621270000000  0.4257360000000  0.5288380000000 1.0
C      1  0.4501380000000  0.5821930000000  0.5022850000000 1.0
C      1  0.5064400000000  0.5312390000000  0.6054260000000 1.0
C      1  0.5188350000000  0.5703360000000  0.5663400000000 1.0
C      1  0.5794430000000  0.5270050000000  0.4428180000000 1.0
C      1  0.4358090000000  0.4800030000000  0.5759030000000 1.0
C      1  0.5636320000000  0.5216320000000  0.5331580000000 1.0
END
