TITL C-3371507-1587-9 0.00166103504109457 125000 -813.396063293408 0 0 158 (C1) n - 1
REM
REM in /nfs/bkarasulu/CARBON/AIRSS/Generating-Clusters/AIREBO/with-SteepDescent/Only-C1/SD-CG-opt/Try1-1.4A-POS3A/HFTN-CG
REM
REM
REM
REM
REM
REM ./C.cell (11c1c37f851c82e70ff6c80c92926a4b)
REM
REM compiler GCC version 9.2.1 20190827 (Red Hat 9.2.1-1)
REM options -cpp -mtune=generic -march=x86-64 -g -O0 -fpre-include=/usr/include/finclude/math-vector-fortran.h
REM seed 1746532675 1941757949 -813635145 -1503374713 -635510078 -1301806983 1671656943 1999064390 -1876204669 -1081252087 471994451 1590027653 -120410800 67359890 -90319552 -1949404095 1823848875 1809717168 -1162529327 1935225741 2115024643 1085271770 -537390345 1590154222 -1167380029 -2062591661 1550745683 -1060375692 -726619218 -1013477966 -668071629 2102449298 -833240495
REM
CELL 1.54180   50.00000   50.00000   50.00000   90.00000   90.00000   90.00000
LATT -1
SFAC C  
C      1  0.5200080000000  0.4116100000000  0.4401740000000 1.0
C      1  0.5672600000000  0.4298380000000  0.5603090000000 1.0
C      1  0.5020440000000  0.6001450000000  0.4750680000000 1.0
C      1  0.5332210000000  0.4077280000000  0.5287060000000 1.0
C      1  0.4096380000000  0.4675750000000  0.5360180000000 1.0
C      1  0.5655360000000  0.5176820000000  0.5195460000000 1.0
C      1  0.5410510000000  0.4452440000000  0.6050100000000 1.0
C      1  0.5752430000000  0.4005100000000  0.4945380000000 1.0
C      1  0.4749410000000  0.5388360000000  0.6282630000000 1.0
C      1  0.3993170000000  0.5017070000000  0.5042390000000 1.0
C      1  0.5177520000000  0.5028250000000  0.5376340000000 1.0
C      1  0.5029130000000  0.5359160000000  0.5534970000000 1.0
C      1  0.4618130000000  0.4462560000000  0.4951700000000 1.0
C      1  0.5800920000000  0.4775480000000  0.5689460000000 1.0
C      1  0.5656000000000  0.5144670000000  0.4352410000000 1.0
C      1  0.4855520000000  0.4556610000000  0.4544520000000 1.0
C      1  0.5804330000000  0.5091680000000  0.5710700000000 1.0
C      1  0.5910940000000  0.4519950000000  0.4997780000000 1.0
C      1  0.4689490000000  0.5036070000000  0.4742820000000 1.0
C      1  0.4096790000000  0.5723860000000  0.4744430000000 1.0
C      1  0.5480060000000  0.4843530000000  0.5756780000000 1.0
C      1  0.4604390000000  0.5263370000000  0.5156610000000 1.0
C      1  0.5172500000000  0.4511800000000  0.4429410000000 1.0
C      1  0.4337440000000  0.5166220000000  0.5683030000000 1.0
C      1  0.5243790000000  0.4332750000000  0.4143370000000 1.0
C      1  0.5127060000000  0.5771570000000  0.5469630000000 1.0
C      1  0.4567460000000  0.4734540000000  0.4512780000000 1.0
C      1  0.4607090000000  0.4138490000000  0.5031130000000 1.0
C      1  0.5741910000000  0.4322500000000  0.4846830000000 1.0
C      1  0.4961970000000  0.5291170000000  0.4573450000000 1.0
C      1  0.4245160000000  0.4849150000000  0.5764160000000 1.0
C      1  0.4304530000000  0.5102550000000  0.5149610000000 1.0
C      1  0.5087650000000  0.4743480000000  0.3925040000000 1.0
C      1  0.4830780000000  0.4009590000000  0.4614700000000 1.0
C      1  0.4474070000000  0.5279370000000  0.4045610000000 1.0
C      1  0.5143990000000  0.5111160000000  0.5968460000000 1.0
C      1  0.4485310000000  0.4395290000000  0.5627870000000 1.0
C      1  0.5851550000000  0.5197460000000  0.4844460000000 1.0
C      1  0.4803960000000  0.4886510000000  0.4981890000000 1.0
C      1  0.5332900000000  0.4107410000000  0.4687360000000 1.0
C      1  0.4379990000000  0.4589480000000  0.4744690000000 1.0
C      1  0.5627210000000  0.4782250000000  0.4121050000000 1.0
C      1  0.4958150000000  0.4338940000000  0.5372590000000 1.0
C      1  0.4408690000000  0.5239470000000  0.4436240000000 1.0
C      1  0.5188090000000  0.5546720000000  0.5220040000000 1.0
C      1  0.4453060000000  0.4940040000000  0.4033610000000 1.0
C      1  0.4842000000000  0.4715780000000  0.5434410000000 1.0
C      1  0.5018180000000  0.5408310000000  0.4887720000000 1.0
C      1  0.5074800000000  0.4486980000000  0.5089590000000 1.0
C      1  0.4592680000000  0.5017720000000  0.4325430000000 1.0
C      1  0.4451620000000  0.5635280000000  0.5658600000000 1.0
C      1  0.4700930000000  0.4260730000000  0.4474640000000 1.0
C      1  0.4128320000000  0.4462420000000  0.4934820000000 1.0
C      1  0.5846360000000  0.4508790000000  0.5630010000000 1.0
C      1  0.5561340000000  0.5560380000000  0.5457170000000 1.0
C      1  0.4579330000000  0.4690920000000  0.3969140000000 1.0
C      1  0.4746160000000  0.4230290000000  0.5756220000000 1.0
C      1  0.5081730000000  0.5917740000000  0.4426890000000 1.0
C      1  0.4858960000000  0.5944950000000  0.5352520000000 1.0
C      1  0.5845010000000  0.5385490000000  0.4359000000000 1.0
C      1  0.4601930000000  0.4856800000000  0.5254140000000 1.0
C      1  0.5960330000000  0.5317940000000  0.5143700000000 1.0
C      1  0.5468770000000  0.4536700000000  0.5044650000000 1.0
C      1  0.5246410000000  0.5983650000000  0.4975690000000 1.0
C      1  0.4202250000000  0.4966010000000  0.5443770000000 1.0
C      1  0.5662520000000  0.5662670000000  0.5008190000000 1.0
C      1  0.4636250000000  0.5374170000000  0.3827010000000 1.0
C      1  0.5461990000000  0.4774640000000  0.5256400000000 1.0
C      1  0.4595740000000  0.5122660000000  0.5466100000000 1.0
C      1  0.5683520000000  0.4818530000000  0.4454400000000 1.0
C      1  0.5216380000000  0.5011510000000  0.4394740000000 1.0
C      1  0.4874160000000  0.4056860000000  0.4882660000000 1.0
C      1  0.5777450000000  0.4832680000000  0.4998490000000 1.0
C      1  0.4986230000000  0.5461210000000  0.5856670000000 1.0
C      1  0.5312420000000  0.5016280000000  0.5069560000000 1.0
C      1  0.5462850000000  0.4199910000000  0.4997990000000 1.0
C      1  0.4819950000000  0.4658690000000  0.5906750000000 1.0
C      1  0.4404920000000  0.4232790000000  0.4567910000000 1.0
C      1  0.4938940000000  0.4418880000000  0.5816060000000 1.0
C      1  0.5099640000000  0.5748280000000  0.5755900000000 1.0
C      1  0.5009380000000  0.5082710000000  0.5731960000000 1.0
C      1  0.5445630000000  0.5735170000000  0.4596300000000 1.0
C      1  0.4470960000000  0.5800010000000  0.4417940000000 1.0
C      1  0.4278680000000  0.4974450000000  0.4771740000000 1.0
C      1  0.5011110000000  0.5799450000000  0.5092790000000 1.0
C      1  0.4490700000000  0.4681300000000  0.5784630000000 1.0
C      1  0.4891880000000  0.5254090000000  0.3852210000000 1.0
C      1  0.4880480000000  0.4748260000000  0.4264690000000 1.0
C      1  0.5352970000000  0.4753780000000  0.4501040000000 1.0
C      1  0.5039410000000  0.5077910000000  0.4929670000000 1.0
C      1  0.4433170000000  0.5258210000000  0.4766590000000 1.0
C      1  0.5123090000000  0.5985300000000  0.4186650000000 1.0
C      1  0.5905140000000  0.4982140000000  0.4654080000000 1.0
C      1  0.3979280000000  0.5013700000000  0.4708210000000 1.0
C      1  0.5246150000000  0.5492910000000  0.4194720000000 1.0
C      1  0.5563120000000  0.5014880000000  0.5475010000000 1.0
C      1  0.5527900000000  0.5100110000000  0.4061400000000 1.0
C      1  0.6038820000000  0.4695730000000  0.5260920000000 1.0
C      1  0.5598680000000  0.5416220000000  0.4782810000000 1.0
C      1  0.6041960000000  0.4751830000000  0.4797950000000 1.0
C      1  0.5421810000000  0.5195570000000  0.4593730000000 1.0
C      1  0.4680620000000  0.5756410000000  0.5049090000000 1.0
C      1  0.4734560000000  0.4019570000000  0.5287650000000 1.0
C      1  0.5794290000000  0.5548720000000  0.4547370000000 1.0
C      1  0.4006050000000  0.4678370000000  0.5090520000000 1.0
C      1  0.4717920000000  0.5524650000000  0.4569960000000 1.0
C      1  0.5944300000000  0.4995200000000  0.5223590000000 1.0
C      1  0.4543130000000  0.5962900000000  0.4621880000000 1.0
C      1  0.4509350000000  0.5501600000000  0.4302260000000 1.0
C      1  0.5467890000000  0.4346190000000  0.4398750000000 1.0
C      1  0.4334160000000  0.4205880000000  0.4847560000000 1.0
C      1  0.5187860000000  0.4450350000000  0.5597230000000 1.0
C      1  0.4217580000000  0.5442680000000  0.5644580000000 1.0
C      1  0.5128400000000  0.4212850000000  0.4937680000000 1.0
C      1  0.4376440000000  0.4802250000000  0.5007280000000 1.0
C      1  0.5522080000000  0.4966510000000  0.4824730000000 1.0
C      1  0.4600770000000  0.5152460000000  0.5897750000000 1.0
C      1  0.5504860000000  0.4653390000000  0.4771090000000 1.0
C      1  0.4550980000000  0.5567440000000  0.5277910000000 1.0
C      1  0.4232190000000  0.5577640000000  0.5332500000000 1.0
C      1  0.4728080000000  0.4907170000000  0.5693490000000 1.0
C      1  0.5417270000000  0.5057620000000  0.5972030000000 1.0
C      1  0.4928990000000  0.4254540000000  0.4245360000000 1.0
C      1  0.5404450000000  0.5343150000000  0.5052360000000 1.0
C      1  0.4604790000000  0.6011740000000  0.5402030000000 1.0
C      1  0.4094120000000  0.5251990000000  0.4555940000000 1.0
C      1  0.5296130000000  0.4861990000000  0.4099880000000 1.0
C      1  0.4949000000000  0.4957280000000  0.3770760000000 1.0
C      1  0.4152270000000  0.5457920000000  0.4800150000000 1.0
C      1  0.5148410000000  0.4689890000000  0.5359050000000 1.0
C      1  0.5692100000000  0.4483300000000  0.4556290000000 1.0
C      1  0.5762930000000  0.5555900000000  0.5247760000000 1.0
C      1  0.4883730000000  0.4606020000000  0.4880590000000 1.0
C      1  0.4698910000000  0.5437860000000  0.5555300000000 1.0
C      1  0.4932220000000  0.5337270000000  0.5209500000000 1.0
C      1  0.5360020000000  0.5286720000000  0.5501530000000 1.0
C      1  0.4227750000000  0.4448140000000  0.4475290000000 1.0
C      1  0.5041380000000  0.4044400000000  0.5289210000000 1.0
C      1  0.4863270000000  0.4517320000000  0.4043940000000 1.0
C      1  0.4796780000000  0.5304470000000  0.6024490000000 1.0
C      1  0.5465540000000  0.5994400000000  0.5214550000000 1.0
C      1  0.5424180000000  0.5805950000000  0.5411000000000 1.0
C      1  0.4601380000000  0.4096460000000  0.5515170000000 1.0
C      1  0.4625510000000  0.5482960000000  0.4894550000000 1.0
C      1  0.5360830000000  0.4581680000000  0.5828260000000 1.0
C      1  0.5217860000000  0.5644970000000  0.6028140000000 1.0
C      1  0.5244890000000  0.5474870000000  0.4513570000000 1.0
C      1  0.4096860000000  0.5366530000000  0.5102510000000 1.0
C      1  0.4839260000000  0.5021290000000  0.4091140000000 1.0
C      1  0.5418820000000  0.4235370000000  0.5504630000000 1.0
C      1  0.4671010000000  0.4465230000000  0.5280710000000 1.0
C      1  0.4375370000000  0.5861610000000  0.5476910000000 1.0
C      1  0.5010270000000  0.5674360000000  0.4658090000000 1.0
C      1  0.5676090000000  0.5191370000000  0.5948000000000 1.0
C      1  0.4718930000000  0.5974240000000  0.4828020000000 1.0
C      1  0.5491730000000  0.5829660000000  0.4847620000000 1.0
C      1  0.4400390000000  0.4621360000000  0.5400260000000 1.0
C      1  0.4894500000000  0.5005750000000  0.4486340000000 1.0
END
