TITL C-3371500-4992-10 -0.000778070236548598 125000 -352.88124924902 0 0 65 (C1) n - 1
REM
REM in /nfs/bkarasulu/CARBON/AIRSS/Generating-Clusters/AIREBO/with-SteepDescent/Only-C1/SD-CG-opt/Try1-1.4A-POS3A/HFTN-CG
REM
REM
REM
REM
REM
REM ./C.cell (11c1c37f851c82e70ff6c80c92926a4b)
REM
REM compiler GCC version 9.2.1 20190827 (Red Hat 9.2.1-1)
REM options -cpp -mtune=generic -march=x86-64 -g -O0 -fpre-include=/usr/include/finclude/math-vector-fortran.h
REM seed 105002435 -227197840 -1656435861 1583040461 -849422142 -1812681565 -1687476256 -272315166 641061966 -1338725071 -420596063 -641987174 1178993900 2021233833 996209370 1413886325 -811638087 -647543589 -1981763736 -1294698060 -964601134 1719144070 -856179047 243597647 -872463267 -816142890 -1846003093 -948949368 1839857141 -730187572 -1445674082 -1472648685 -1333542078
REM
CELL 1.54180   50.00000   50.00000   50.00000   90.00000   90.00000   90.00000
LATT -1
SFAC C  
C      1  0.5257800000000  0.4528150000000  0.4536970000000 1.0
C      1  0.4409500000000  0.4917540000000  0.4721280000000 1.0
C      1  0.5631320000000  0.3962380000000  0.5329080000000 1.0
C      1  0.5334120000000  0.5131950000000  0.4991560000000 1.0
C      1  0.4842730000000  0.5872290000000  0.4936870000000 1.0
C      1  0.5377490000000  0.4371290000000  0.5106390000000 1.0
C      1  0.5515610000000  0.5110050000000  0.5579480000000 1.0
C      1  0.5142820000000  0.4948210000000  0.4288860000000 1.0
C      1  0.5071330000000  0.5448240000000  0.5690480000000 1.0
C      1  0.4874830000000  0.4437820000000  0.5321260000000 1.0
C      1  0.4254920000000  0.5282820000000  0.4948730000000 1.0
C      1  0.5172170000000  0.5604360000000  0.4602110000000 1.0
C      1  0.4941660000000  0.5443970000000  0.5178460000000 1.0
C      1  0.5248010000000  0.5017120000000  0.5469350000000 1.0
C      1  0.4757950000000  0.5126550000000  0.5344430000000 1.0
C      1  0.4462900000000  0.4672290000000  0.5405410000000 1.0
C      1  0.4623240000000  0.5292030000000  0.4240060000000 1.0
C      1  0.5709480000000  0.4926290000000  0.5639630000000 1.0
C      1  0.4664480000000  0.5208000000000  0.4820580000000 1.0
C      1  0.4428850000000  0.4925350000000  0.5249900000000 1.0
C      1  0.5397280000000  0.5675160000000  0.5006980000000 1.0
C      1  0.4827320000000  0.5023630000000  0.4275920000000 1.0
C      1  0.5220880000000  0.5342440000000  0.4749310000000 1.0
C      1  0.5175600000000  0.5637200000000  0.4330520000000 1.0
C      1  0.5015040000000  0.4970600000000  0.5704050000000 1.0
C      1  0.5175490000000  0.4655350000000  0.4295390000000 1.0
C      1  0.5321940000000  0.5095760000000  0.4444840000000 1.0
C      1  0.4754130000000  0.4320930000000  0.4800300000000 1.0
C      1  0.5020550000000  0.4958090000000  0.4817520000000 1.0
C      1  0.4582620000000  0.4469940000000  0.5254810000000 1.0
C      1  0.5310340000000  0.4955520000000  0.4714530000000 1.0
C      1  0.4638300000000  0.5537920000000  0.5197260000000 1.0
C      1  0.4482290000000  0.5193430000000  0.5452130000000 1.0
C      1  0.5064840000000  0.4680930000000  0.5359450000000 1.0
C      1  0.5089620000000  0.4428380000000  0.4982580000000 1.0
C      1  0.5097680000000  0.5800980000000  0.4773860000000 1.0
C      1  0.4479900000000  0.5473680000000  0.5410810000000 1.0
C      1  0.4936060000000  0.4724400000000  0.5049690000000 1.0
C      1  0.5400430000000  0.4677670000000  0.4727860000000 1.0
C      1  0.5531250000000  0.5278180000000  0.4634660000000 1.0
C      1  0.4595340000000  0.5784080000000  0.4885110000000 1.0
C      1  0.4870950000000  0.4212010000000  0.5100490000000 1.0
C      1  0.4711880000000  0.4979490000000  0.5069270000000 1.0
C      1  0.5509490000000  0.4159890000000  0.5207280000000 1.0
C      1  0.5810510000000  0.5462570000000  0.4681200000000 1.0
C      1  0.5129530000000  0.4058240000000  0.4573940000000 1.0
C      1  0.5287240000000  0.4865040000000  0.5179600000000 1.0
C      1  0.5067670000000  0.4317880000000  0.4664290000000 1.0
C      1  0.5547630000000  0.5559110000000  0.4827100000000 1.0
C      1  0.5331130000000  0.5551350000000  0.5711440000000 1.0
C      1  0.4961760000000  0.5257930000000  0.4929100000000 1.0
C      1  0.4567430000000  0.4700480000000  0.5668120000000 1.0
C      1  0.4981510000000  0.5215280000000  0.5844930000000 1.0
C      1  0.4822910000000  0.4772210000000  0.5745450000000 1.0
C      1  0.4519890000000  0.4369390000000  0.4993730000000 1.0
C      1  0.4603370000000  0.5103190000000  0.4522120000000 1.0
C      1  0.4816140000000  0.4694960000000  0.4732840000000 1.0
C      1  0.4500790000000  0.5480320000000  0.4918200000000 1.0
C      1  0.5428120000000  0.4639070000000  0.5007650000000 1.0
C      1  0.4762750000000  0.4756250000000  0.4102300000000 1.0
C      1  0.5023650000000  0.5264600000000  0.5432990000000 1.0
C      1  0.5536930000000  0.5386100000000  0.5628880000000 1.0
C      1  0.4960430000000  0.4559600000000  0.4129140000000 1.0
C      1  0.5089160000000  0.5706670000000  0.5100430000000 1.0
C      1  0.4321060000000  0.5017410000000  0.4961060000000 1.0
END
