TITL C-3371506-7941-8 415.589263656195 125000 -823.928587478617 0 0 154 (C1) n - 1
REM
REM in /nfs/bkarasulu/CARBON/AIRSS/Generating-Clusters/AIREBO/with-SteepDescent/Only-C1/SD-CG-opt/Try1-1.4A-POS3A/HFTN-CG
REM
REM
REM
REM
REM
REM ./C.cell (11c1c37f851c82e70ff6c80c92926a4b)
REM
REM compiler GCC version 9.2.1 20190827 (Red Hat 9.2.1-1)
REM options -cpp -mtune=generic -march=x86-64 -g -O0 -fpre-include=/usr/include/finclude/math-vector-fortran.h
REM seed 582960908 30925421 -1375409376 1735566439 1246655857 1976069684 1119497946 -1061703135 -1688437273 -2100108495 -2008251260 383415415 572308607 1599647666 -294136713 -2092119656 1085351610 -400377098 1607422110 -1003967278 -1135313537 -1352857614 1711693886 -1938702960 1176966144 -58376216 -1661359606 1901790835 -1406352642 -1530257520 229514858 -1222631006 -594868526
REM
CELL 1.54180   50.00000   50.00000   50.00000   90.00000   90.00000   90.00000
LATT -1
SFAC C  
C      1  0.5580440000000  0.4180410000000  0.4907310000000 1.0
C      1  0.4248890000000  0.4285630000000  0.5391020000000 1.0
C      1  0.4178360000000  0.4959590000000  0.4173900000000 1.0
C      1  0.5053420000000  0.4306730000000  0.4212670000000 1.0
C      1  0.5833430000000  0.5403590000000  0.5402610000000 1.0
C      1  0.5992660000000  0.4950900000000  0.5396320000000 1.0
C      1  0.4647880000000  0.5612200000000  0.5622220000000 1.0
C      1  0.4383590000000  0.5558870000000  0.4709550000000 1.0
C      1  0.5390910000000  0.4149580000000  0.5527850000000 1.0
C      1  0.5889790000000  0.5024930000000  0.5014020000000 1.0
C      1  0.5149570000000  0.5171760000000  0.4604400000000 1.0
C      1  0.5211620000000  0.4402110000000  0.4888920000000 1.0
C      1  0.5166790000000  0.4981870000000  0.5224250000000 1.0
C      1  0.4653700000000  0.5681490000000  0.4275930000000 1.0
C      1  0.5453310000000  0.5941740000000  0.5335230000000 1.0
C      1  0.4874150000000  0.5087400000000  0.5995380000000 1.0
C      1  0.4566080000000  0.5246100000000  0.5341600000000 1.0
C      1  0.5828500000000  0.4346650000000  0.4405630000000 1.0
C      1  0.5269870000000  0.4540140000000  0.5186360000000 1.0
C      1  0.4808390000000  0.3890260000000  0.5009760000000 1.0
C      1  0.4740470000000  0.4467700000000  0.5895310000000 1.0
C      1  0.4837900000000  0.5874840000000  0.5636730000000 1.0
C      1  0.4923040000000  0.5061800000000  0.4162090000000 1.0
C      1  0.4696910000000  0.4974320000000  0.3953150000000 1.0
C      1  0.4008950000000  0.4851110000000  0.4016780000000 1.0
C      1  0.4890030000000  0.4465550000000  0.4539700000000 1.0
C      1  0.4003220000000  0.5169060000000  0.4685750000000 1.0
C      1  0.5148220000000  0.5813730000000  0.5622160000000 1.0
C      1  0.5171950000000  0.5510250000000  0.4627500000000 1.0
C      1  0.5079480000000  0.4240300000000  0.4647550000000 1.0
C      1  0.5881060000000  0.4594900000000  0.4844150000000 1.0
C      1  0.4384700000000  0.5221260000000  0.5055090000000 1.0
C      1  0.4887900000000  0.5739490000000  0.5328830000000 1.0
C      1  0.6076790000000  0.5073680000000  0.4770730000000 1.0
C      1  0.4378280000000  0.5118350000000  0.4351340000000 1.0
C      1  0.5857680000000  0.4299790000000  0.4827410000000 1.0
C      1  0.5641610000000  0.5750490000000  0.4809900000000 1.0
C      1  0.4325380000000  0.4902780000000  0.5007010000000 1.0
C      1  0.5348760000000  0.5908510000000  0.4847960000000 1.0
C      1  0.4580350000000  0.5476090000000  0.5893200000000 1.0
C      1  0.4871950000000  0.4935540000000  0.5690280000000 1.0
C      1  0.5521200000000  0.4111160000000  0.5287190000000 1.0
C      1  0.4599220000000  0.5757860000000  0.4537570000000 1.0
C      1  0.3967560000000  0.5287020000000  0.4935640000000 1.0
C      1  0.4651270000000  0.4522550000000  0.4904060000000 1.0
C      1  0.5675920000000  0.5666940000000  0.4482100000000 1.0
C      1  0.4638320000000  0.4176150000000  0.4426610000000 1.0
C      1  0.5277380000000  0.5393780000000  0.5900880000000 1.0
C      1  0.5554120000000  0.5322760000000  0.5050690000000 1.0
C      1  0.5348660000000  0.4098820000000  0.4672190000000 1.0
C      1  0.4116680000000  0.4637850000000  0.4666850000000 1.0
C      1  0.5303430000000  0.4372000000000  0.4346380000000 1.0
C      1  0.5263050000000  0.4851780000000  0.4624810000000 1.0
C      1  0.4851310000000  0.5908950000000  0.4677560000000 1.0
C      1  0.4967900000000  0.6007510000000  0.5159930000000 1.0
C      1  0.5530920000000  0.5535650000000  0.4245110000000 1.0
C      1  0.5081430000000  0.4750740000000  0.5561290000000 1.0
C      1  0.4601660000000  0.5731830000000  0.5148900000000 1.0
C      1  0.4732120000000  0.6124230000000  0.5760060000000 1.0
C      1  0.5480550000000  0.5050470000000  0.5242040000000 1.0
C      1  0.5628370000000  0.4806420000000  0.4361990000000 1.0
C      1  0.5175020000000  0.5358180000000  0.5491520000000 1.0
C      1  0.5013910000000  0.4638860000000  0.4274650000000 1.0
C      1  0.5585580000000  0.4417820000000  0.5154780000000 1.0
C      1  0.5747860000000  0.5421740000000  0.4787410000000 1.0
C      1  0.5935450000000  0.5223500000000  0.4584450000000 1.0
C      1  0.4492760000000  0.4173590000000  0.5253770000000 1.0
C      1  0.5587290000000  0.4974700000000  0.4866840000000 1.0
C      1  0.3930900000000  0.4890450000000  0.4698070000000 1.0
C      1  0.4094020000000  0.4838740000000  0.5206490000000 1.0
C      1  0.4501210000000  0.5842660000000  0.4855710000000 1.0
C      1  0.5380800000000  0.4532800000000  0.4624340000000 1.0
C      1  0.5158230000000  0.5622580000000  0.5158890000000 1.0
C      1  0.5989700000000  0.5216970000000  0.5278080000000 1.0
C      1  0.5714300000000  0.4557530000000  0.4557480000000 1.0
C      1  0.5920750000000  0.4718690000000  0.5158520000000 1.0
C      1  0.5046670000000  0.5454810000000  0.3791170000000 1.0
C      1  0.5462990000000  0.5745570000000  0.5595280000000 1.0
C      1  0.5065180000000  0.4034800000000  0.5012470000000 1.0
C      1  0.4908000000000  0.4329040000000  0.5015230000000 1.0
C      1  0.4842120000000  0.4967940000000  0.5269880000000 1.0
C      1  0.4763510000000  0.6043010000000  0.4958700000000 1.0
C      1  0.5306840000000  0.5163970000000  0.4901790000000 1.0
C      1  0.5825500000000  0.5067860000000  0.4341070000000 1.0
C      1  0.4855740000000  0.4894960000000  0.4450650000000 1.0
C      1  0.4781280000000  0.4773510000000  0.3802470000000 1.0
C      1  0.4962960000000  0.3988260000000  0.5631020000000 1.0
C      1  0.4598970000000  0.5112690000000  0.4814070000000 1.0
C      1  0.4760550000000  0.4373250000000  0.5318420000000 1.0
C      1  0.4590860000000  0.5204760000000  0.4148170000000 1.0
C      1  0.5384930000000  0.5635010000000  0.5889600000000 1.0
C      1  0.5327100000000  0.4767940000000  0.4307280000000 1.0
C      1  0.6085530000000  0.4498770000000  0.5274730000000 1.0
C      1  0.5162260000000  0.5304710000000  0.5165450000000 1.0
C      1  0.5025000000000  0.5232270000000  0.5739790000000 1.0
C      1  0.4547500000000  0.4231070000000  0.4753360000000 1.0
C      1  0.4591290000000  0.4828460000000  0.5611390000000 1.0
C      1  0.5658000000000  0.4734160000000  0.5710050000000 1.0
C      1  0.4675340000000  0.5405110000000  0.4734970000000 1.0
C      1  0.4815790000000  0.4148160000000  0.4222420000000 1.0
C      1  0.5183500000000  0.4665620000000  0.5989760000000 1.0
C      1  0.4844540000000  0.5412100000000  0.5431710000000 1.0
C      1  0.5265400000000  0.5609980000000  0.4241220000000 1.0
C      1  0.5039820000000  0.4792840000000  0.4971730000000 1.0
C      1  0.5547500000000  0.5135830000000  0.4596370000000 1.0
C      1  0.5603270000000  0.4735140000000  0.5277250000000 1.0
C      1  0.5154980000000  0.6015840000000  0.4601520000000 1.0
C      1  0.5652280000000  0.5822400000000  0.5127010000000 1.0
C      1  0.4523530000000  0.4557280000000  0.5754820000000 1.0
C      1  0.4426660000000  0.5060680000000  0.5534130000000 1.0
C      1  0.5071360000000  0.5708120000000  0.4841480000000 1.0
C      1  0.5333030000000  0.4003410000000  0.5059200000000 1.0
C      1  0.5376990000000  0.5113640000000  0.5883320000000 1.0
C      1  0.4810450000000  0.5540480000000  0.4980850000000 1.0
C      1  0.5461570000000  0.5446180000000  0.4626820000000 1.0
C      1  0.5250890000000  0.6012820000000  0.5133640000000 1.0
C      1  0.5382830000000  0.4792760000000  0.5529810000000 1.0
C      1  0.4568100000000  0.4645080000000  0.5360100000000 1.0
C      1  0.5840270000000  0.4947780000000  0.5627250000000 1.0
C      1  0.4313600000000  0.4399010000000  0.5647490000000 1.0
C      1  0.5509020000000  0.5421360000000  0.5503220000000 1.0
C      1  0.4028900000000  0.5299170000000  0.5409370000000 1.0
C      1  0.5462160000000  0.5566790000000  0.5199460000000 1.0
C      1  0.4073400000000  0.4499600000000  0.5192360000000 1.0
C      1  0.4210510000000  0.5499350000000  0.5308140000000 1.0
C      1  0.5178790000000  0.4937090000000  0.5981040000000 1.0
C      1  0.4569700000000  0.4046130000000  0.5002220000000 1.0
C      1  0.4553630000000  0.4479030000000  0.4520750000000 1.0
C      1  0.4417560000000  0.4704100000000  0.4736300000000 1.0
C      1  0.4829550000000  0.5228820000000  0.4511510000000 1.0
C      1  0.5053620000000  0.5432170000000  0.4090940000000 1.0
C      1  0.4431710000000  0.5643320000000  0.5392150000000 1.0
C      1  0.4634460000000  0.4814630000000  0.5077450000000 1.0
C      1  0.4377250000000  0.4523160000000  0.5106490000000 1.0
C      1  0.5533860000000  0.5221910000000  0.4267720000000 1.0
C      1  0.5275400000000  0.4405280000000  0.5506210000000 1.0
C      1  0.4537230000000  0.4951060000000  0.4555770000000 1.0
C      1  0.4155300000000  0.5030280000000  0.5472340000000 1.0
C      1  0.3921780000000  0.5131330000000  0.5168640000000 1.0
C      1  0.4957040000000  0.4646190000000  0.5267150000000 1.0
C      1  0.5212700000000  0.5191090000000  0.4270750000000 1.0
C      1  0.5353230000000  0.4769610000000  0.4942540000000 1.0
C      1  0.4787360000000  0.5429130000000  0.4239750000000 1.0
C      1  0.4884470000000  0.4239880000000  0.5568810000000 1.0
C      1  0.4662180000000  0.5305070000000  0.6056530000000 1.0
C      1  0.4953550000000  0.4611420000000  0.3941080000000 1.0
C      1  0.5236360000000  0.3950770000000  0.5654880000000 1.0
C      1  0.4217680000000  0.5312280000000  0.4538150000000 1.0
C      1  0.5530750000000  0.5093040000000  0.5590120000000 1.0
C      1  0.3919810000000  0.4628390000000  0.4917640000000 1.0
C      1  0.5046610000000  0.4476270000000  0.5747560000000 1.0
C      1  0.4779460000000  0.5229960000000  0.5077360000000 1.0
C      1  0.4200920000000  0.5488760000000  0.4987730000000 1.0
C      1  0.4874740000000  0.4721680000000  0.4742620000000 1.0
END
