TITL C-3371507-1587-55 5.64603678471818e-05 125000 -355.38676980249 0 0 65 (C1) n - 1
REM
REM in /nfs/bkarasulu/CARBON/AIRSS/Generating-Clusters/AIREBO/with-SteepDescent/Only-C1/SD-CG-opt/Try1-1.4A-POS3A/HFTN-CG
REM
REM
REM
REM
REM
REM ./C.cell (11c1c37f851c82e70ff6c80c92926a4b)
REM
REM compiler GCC version 9.2.1 20190827 (Red Hat 9.2.1-1)
REM options -cpp -mtune=generic -march=x86-64 -g -O0 -fpre-include=/usr/include/finclude/math-vector-fortran.h
REM seed 2117127867 1383290124 1231523565 607254368 -886722039 -434861759 604102925 1289863301 -2112861796 1476500058 -1825027591 -1315924996 840545355 1701380820 -1854393300 2126853520 -699683259 1221532790 2054632130 831839685 1974622261 -1361166466 -1623973297 871506723 -1454075295 -1984164892 -944337908 -1504418432 -327610170 739436471 -474824678 1655120896 -1742441900
REM
CELL 1.54180   50.00000   50.00000   50.00000   90.00000   90.00000   90.00000
LATT -1
SFAC C  
C      1  0.4580760000000  0.5102960000000  0.5536770000000 1.0
C      1  0.4490130000000  0.5075260000000  0.4736410000000 1.0
C      1  0.4953960000000  0.5802240000000  0.4977320000000 1.0
C      1  0.4511080000000  0.4678780000000  0.5060430000000 1.0
C      1  0.5005970000000  0.4611890000000  0.5010170000000 1.0
C      1  0.5376970000000  0.5413100000000  0.4957920000000 1.0
C      1  0.5101880000000  0.5442070000000  0.4546630000000 1.0
C      1  0.5063110000000  0.5640240000000  0.5457840000000 1.0
C      1  0.5206300000000  0.5345010000000  0.5409880000000 1.0
C      1  0.5110550000000  0.4986250000000  0.5102010000000 1.0
C      1  0.5437830000000  0.4896980000000  0.4535720000000 1.0
C      1  0.4711620000000  0.4578410000000  0.4575840000000 1.0
C      1  0.5517920000000  0.4320090000000  0.4950940000000 1.0
C      1  0.4756530000000  0.5393300000000  0.5160600000000 1.0
C      1  0.4049060000000  0.5030330000000  0.5033760000000 1.0
C      1  0.5376810000000  0.5485540000000  0.4694260000000 1.0
C      1  0.4897920000000  0.5413020000000  0.5652650000000 1.0
C      1  0.5566770000000  0.4584700000000  0.5082960000000 1.0
C      1  0.5273410000000  0.4523860000000  0.4819480000000 1.0
C      1  0.5169640000000  0.5703340000000  0.5138750000000 1.0
C      1  0.5243960000000  0.4893340000000  0.5362650000000 1.0
C      1  0.5543890000000  0.5275010000000  0.5211570000000 1.0
C      1  0.4985190000000  0.5270550000000  0.4784200000000 1.0
C      1  0.4979780000000  0.4495390000000  0.4386420000000 1.0
C      1  0.4832600000000  0.5135700000000  0.5659080000000 1.0
C      1  0.5283780000000  0.4625990000000  0.5205700000000 1.0
C      1  0.4747890000000  0.5582900000000  0.4914330000000 1.0
C      1  0.4626630000000  0.5127140000000  0.5221180000000 1.0
C      1  0.5253990000000  0.4187600000000  0.5034260000000 1.0
C      1  0.5352820000000  0.5076670000000  0.4341360000000 1.0
C      1  0.5509000000000  0.5032230000000  0.5412430000000 1.0
C      1  0.5609820000000  0.4906660000000  0.5661630000000 1.0
C      1  0.5250260000000  0.4863160000000  0.4817400000000 1.0
C      1  0.4990160000000  0.5911580000000  0.4705120000000 1.0
C      1  0.4643040000000  0.4628860000000  0.5357910000000 1.0
C      1  0.4792700000000  0.4868750000000  0.5075220000000 1.0
C      1  0.5081190000000  0.5316340000000  0.5094980000000 1.0
C      1  0.4717770000000  0.5520550000000  0.4625620000000 1.0
C      1  0.4537680000000  0.4468470000000  0.4852690000000 1.0
C      1  0.4932500000000  0.5705120000000  0.4510390000000 1.0
C      1  0.5122420000000  0.5238470000000  0.4328390000000 1.0
C      1  0.5162580000000  0.4338550000000  0.5275420000000 1.0
C      1  0.5666510000000  0.4796110000000  0.4929710000000 1.0
C      1  0.5498060000000  0.5035770000000  0.4974260000000 1.0
C      1  0.4798880000000  0.5041140000000  0.4787880000000 1.0
C      1  0.4293040000000  0.5091590000000  0.5261210000000 1.0
C      1  0.5427570000000  0.5579410000000  0.5311660000000 1.0
C      1  0.4882690000000  0.5098930000000  0.4303650000000 1.0
C      1  0.4433090000000  0.4979150000000  0.4426990000000 1.0
C      1  0.4950710000000  0.4807680000000  0.4665790000000 1.0
C      1  0.4747100000000  0.5565210000000  0.5415300000000 1.0
C      1  0.5682240000000  0.4778300000000  0.4641550000000 1.0
C      1  0.5321440000000  0.4939390000000  0.5752100000000 1.0
C      1  0.5082220000000  0.4173550000000  0.4802950000000 1.0
C      1  0.5002920000000  0.4369610000000  0.5506130000000 1.0
C      1  0.4853060000000  0.4611730000000  0.5531750000000 1.0
C      1  0.5021590000000  0.4876240000000  0.5604510000000 1.0
C      1  0.4293440000000  0.5076180000000  0.5591490000000 1.0
C      1  0.4925280000000  0.4819430000000  0.4340350000000 1.0
C      1  0.5164960000000  0.4370340000000  0.4552840000000 1.0
C      1  0.5236910000000  0.5204350000000  0.5676590000000 1.0
C      1  0.4866070000000  0.4395180000000  0.4817190000000 1.0
C      1  0.4353310000000  0.4936590000000  0.4965070000000 1.0
C      1  0.4499330000000  0.4714770000000  0.4380390000000 1.0
C      1  0.4641690000000  0.5242940000000  0.4482340000000 1.0
END
