TITL C-3371500-4992-31 -0.000279358182357006 125000 -603.115489640514 0 0 110 (C1) n - 1
REM
REM in /nfs/bkarasulu/CARBON/AIRSS/Generating-Clusters/AIREBO/with-SteepDescent/Only-C1/SD-CG-opt/Try1-1.4A-POS3A/HFTN-CG
REM
REM
REM
REM
REM
REM ./C.cell (11c1c37f851c82e70ff6c80c92926a4b)
REM
REM compiler GCC version 9.2.1 20190827 (Red Hat 9.2.1-1)
REM options -cpp -mtune=generic -march=x86-64 -g -O0 -fpre-include=/usr/include/finclude/math-vector-fortran.h
REM seed 499100551 1203937745 -651014083 -1526764290 -1881647963 -182536515 1020834135 -978068122 60598638 -966210421 -1437885154 -2137872987 841947486 1792322124 1008758064 538112385 1436285290 279868856 1137747293 -1615461627 422946232 689772653 -1832681888 -2024681931 1069374482 96505731 2089124701 -12765889 611996124 -317128164 996850337 178420825 1527573422
REM
CELL 1.54180   50.00000   50.00000   50.00000   90.00000   90.00000   90.00000
LATT -1
SFAC C  
C      1  0.5025610000000  0.5515110000000  0.4235830000000 1.0
C      1  0.5012100000000  0.5065610000000  0.4416460000000 1.0
C      1  0.4258280000000  0.4922580000000  0.5478590000000 1.0
C      1  0.5342630000000  0.5077400000000  0.5771240000000 1.0
C      1  0.4845390000000  0.4191380000000  0.5421930000000 1.0
C      1  0.5525920000000  0.5266040000000  0.5063920000000 1.0
C      1  0.4372960000000  0.4503970000000  0.4483280000000 1.0
C      1  0.4421930000000  0.5690000000000  0.4665250000000 1.0
C      1  0.5304290000000  0.5067980000000  0.4917320000000 1.0
C      1  0.5762050000000  0.4905940000000  0.5023000000000 1.0
C      1  0.5207220000000  0.4612290000000  0.4278030000000 1.0
C      1  0.5314240000000  0.4548570000000  0.5244270000000 1.0
C      1  0.5634360000000  0.5677930000000  0.4839150000000 1.0
C      1  0.5871640000000  0.4622850000000  0.4958590000000 1.0
C      1  0.5275790000000  0.5464670000000  0.4363460000000 1.0
C      1  0.5355240000000  0.4962040000000  0.5311390000000 1.0
C      1  0.5258870000000  0.5417530000000  0.5102180000000 1.0
C      1  0.4795450000000  0.4311350000000  0.4915510000000 1.0
C      1  0.5045980000000  0.5426350000000  0.5924010000000 1.0
C      1  0.5013260000000  0.4095260000000  0.4958430000000 1.0
C      1  0.5806250000000  0.5150090000000  0.4806880000000 1.0
C      1  0.5139830000000  0.4197980000000  0.5412710000000 1.0
C      1  0.5489390000000  0.4257740000000  0.4960800000000 1.0
C      1  0.4799520000000  0.5952950000000  0.4780160000000 1.0
C      1  0.4860700000000  0.5117990000000  0.4938170000000 1.0
C      1  0.4372390000000  0.4980340000000  0.5783100000000 1.0
C      1  0.5736920000000  0.4417650000000  0.5102010000000 1.0
C      1  0.4629160000000  0.4494270000000  0.5149080000000 1.0
C      1  0.4653890000000  0.5827050000000  0.4567220000000 1.0
C      1  0.4993230000000  0.4685260000000  0.4077470000000 1.0
C      1  0.4259940000000  0.4656510000000  0.4765350000000 1.0
C      1  0.4983630000000  0.4792860000000  0.5855380000000 1.0
C      1  0.4716620000000  0.5377530000000  0.4834280000000 1.0
C      1  0.4692620000000  0.5310540000000  0.4320880000000 1.0
C      1  0.5233470000000  0.5686710000000  0.5440290000000 1.0
C      1  0.4381180000000  0.5319040000000  0.5042020000000 1.0
C      1  0.4290110000000  0.5034670000000  0.4378820000000 1.0
C      1  0.4964070000000  0.5666070000000  0.5538440000000 1.0
C      1  0.5039330000000  0.5226350000000  0.5186030000000 1.0
C      1  0.4896540000000  0.5243530000000  0.4078360000000 1.0
C      1  0.4807430000000  0.4809060000000  0.4806310000000 1.0
C      1  0.4731490000000  0.5569360000000  0.5078220000000 1.0
C      1  0.4289810000000  0.4432290000000  0.5481460000000 1.0
C      1  0.5151420000000  0.5220220000000  0.4654510000000 1.0
C      1  0.5466090000000  0.5313650000000  0.4670140000000 1.0
C      1  0.5225970000000  0.5223320000000  0.4049740000000 1.0
C      1  0.4723250000000  0.4640420000000  0.5598660000000 1.0
C      1  0.5626030000000  0.5096250000000  0.5772650000000 1.0
C      1  0.5392050000000  0.5147510000000  0.4322610000000 1.0
C      1  0.5636210000000  0.5374440000000  0.5463610000000 1.0
C      1  0.4694070000000  0.4445430000000  0.4442090000000 1.0
C      1  0.5063140000000  0.4660850000000  0.5074590000000 1.0
C      1  0.5417340000000  0.4540910000000  0.4794690000000 1.0
C      1  0.4278370000000  0.4958390000000  0.4704150000000 1.0
C      1  0.5664070000000  0.4812470000000  0.4522780000000 1.0
C      1  0.5169170000000  0.4479370000000  0.4567190000000 1.0
C      1  0.5620110000000  0.4517850000000  0.5340390000000 1.0
C      1  0.4466260000000  0.4798590000000  0.4390930000000 1.0
C      1  0.4908800000000  0.4515710000000  0.5341390000000 1.0
C      1  0.4875440000000  0.5397140000000  0.4585140000000 1.0
C      1  0.5675190000000  0.5076860000000  0.5303800000000 1.0
C      1  0.4662420000000  0.5163190000000  0.5782570000000 1.0
C      1  0.5675030000000  0.5111670000000  0.4510360000000 1.0
C      1  0.4696160000000  0.5754740000000  0.5532050000000 1.0
C      1  0.5175800000000  0.5185200000000  0.5494840000000 1.0
C      1  0.4533760000000  0.5096340000000  0.4836620000000 1.0
C      1  0.4860550000000  0.4920840000000  0.4165730000000 1.0
C      1  0.5366700000000  0.5626280000000  0.4648560000000 1.0
C      1  0.4426030000000  0.5647660000000  0.4966970000000 1.0
C      1  0.4717880000000  0.5395600000000  0.5352190000000 1.0
C      1  0.5205770000000  0.5686790000000  0.4938300000000 1.0
C      1  0.4403370000000  0.5280140000000  0.5627940000000 1.0
C      1  0.5893680000000  0.4611040000000  0.4677260000000 1.0
C      1  0.5575440000000  0.5868420000000  0.5045110000000 1.0
C      1  0.5389730000000  0.4613770000000  0.5726090000000 1.0
C      1  0.5743790000000  0.4917330000000  0.5577480000000 1.0
C      1  0.4405420000000  0.5022250000000  0.5206300000000 1.0
C      1  0.4438880000000  0.5541750000000  0.5480340000000 1.0
C      1  0.4166790000000  0.4605260000000  0.5054950000000 1.0
C      1  0.4830950000000  0.5672750000000  0.4406040000000 1.0
C      1  0.4410620000000  0.5296210000000  0.4351170000000 1.0
C      1  0.4664570000000  0.4821400000000  0.5114930000000 1.0
C      1  0.5271220000000  0.4868400000000  0.4475100000000 1.0
C      1  0.4868740000000  0.4503390000000  0.4670450000000 1.0
C      1  0.4288210000000  0.5465620000000  0.4551180000000 1.0
C      1  0.4497210000000  0.4410750000000  0.4785740000000 1.0
C      1  0.5445700000000  0.4781700000000  0.5034410000000 1.0
C      1  0.5238580000000  0.4172640000000  0.4532410000000 1.0
C      1  0.5375140000000  0.5449060000000  0.5491640000000 1.0
C      1  0.4417540000000  0.4679320000000  0.5624990000000 1.0
C      1  0.4191140000000  0.5286250000000  0.4761860000000 1.0
C      1  0.4835830000000  0.4542490000000  0.5905300000000 1.0
C      1  0.5242110000000  0.4145180000000  0.5166870000000 1.0
C      1  0.5333280000000  0.5810910000000  0.5208680000000 1.0
C      1  0.4829110000000  0.4952030000000  0.5614600000000 1.0
C      1  0.5515100000000  0.4648820000000  0.4280530000000 1.0
C      1  0.5270970000000  0.4067470000000  0.4782110000000 1.0
C      1  0.5632620000000  0.4475780000000  0.4539590000000 1.0
C      1  0.5642330000000  0.4651840000000  0.5588780000000 1.0
C      1  0.4783940000000  0.5060080000000  0.5325950000000 1.0
C      1  0.4119360000000  0.4850620000000  0.5190240000000 1.0
C      1  0.4919590000000  0.5782430000000  0.4956300000000 1.0
C      1  0.4907060000000  0.5343620000000  0.5630120000000 1.0
C      1  0.5137820000000  0.4824340000000  0.4785480000000 1.0
C      1  0.4241490000000  0.5554490000000  0.5243740000000 1.0
C      1  0.4739480000000  0.4888910000000  0.4482690000000 1.0
C      1  0.5255780000000  0.4824550000000  0.5853550000000 1.0
C      1  0.4338520000000  0.4439870000000  0.5209560000000 1.0
C      1  0.5749390000000  0.5434050000000  0.4920370000000 1.0
C      1  0.5205680000000  0.4476650000000  0.5537640000000 1.0
END
