TITL C-3371501-9953-10 -0.00116867621113919 125000 -746.345433702207 0 0 141 (C1) n - 1
REM
REM in /nfs/bkarasulu/CARBON/AIRSS/Generating-Clusters/AIREBO/with-SteepDescent/Only-C1/SD-CG-opt/Try1-1.4A-POS3A/HFTN-CG
REM
REM
REM
REM
REM
REM ./C.cell (11c1c37f851c82e70ff6c80c92926a4b)
REM
REM compiler GCC version 9.2.1 20190827 (Red Hat 9.2.1-1)
REM options -cpp -mtune=generic -march=x86-64 -g -O0 -fpre-include=/usr/include/finclude/math-vector-fortran.h
REM seed -1625869672 -1439814406 1587229672 -604470583 1058983571 -508566387 -2013794065 779452881 438985856 -605920654 -1737880727 414416495 1021843334 -1805612406 -636966148 1911550869 511126915 342098611 1363761995 256175195 1939634195 -984459072 95857722 -1908266469 68669533 2092258305 315241688 1379240915 2060837663 938475776 1943446028 -353812861 656863882
REM
CELL 1.54180   50.00000   50.00000   50.00000   90.00000   90.00000   90.00000
LATT -1
SFAC C  
C      1  0.4554350000000  0.4705660000000  0.4821180000000 1.0
C      1  0.5905620000000  0.4868190000000  0.5502200000000 1.0
C      1  0.4997350000000  0.5256160000000  0.4032420000000 1.0
C      1  0.4841090000000  0.4569970000000  0.4943700000000 1.0
C      1  0.5580520000000  0.5087940000000  0.5016240000000 1.0
C      1  0.5217270000000  0.4933020000000  0.4974700000000 1.0
C      1  0.5055870000000  0.3974400000000  0.5300860000000 1.0
C      1  0.5084160000000  0.5328650000000  0.4519510000000 1.0
C      1  0.5475680000000  0.5895020000000  0.5321710000000 1.0
C      1  0.4961290000000  0.6033020000000  0.4934030000000 1.0
C      1  0.4314080000000  0.4667810000000  0.5031610000000 1.0
C      1  0.4786280000000  0.5267610000000  0.5876420000000 1.0
C      1  0.5672620000000  0.5390860000000  0.5822930000000 1.0
C      1  0.4962410000000  0.5860980000000  0.5809200000000 1.0
C      1  0.4390510000000  0.4770710000000  0.5315600000000 1.0
C      1  0.4036820000000  0.4732380000000  0.4908830000000 1.0
C      1  0.4972610000000  0.5744030000000  0.5113130000000 1.0
C      1  0.4888150000000  0.4864190000000  0.4487250000000 1.0
C      1  0.4218720000000  0.5408380000000  0.5084690000000 1.0
C      1  0.4195760000000  0.5094410000000  0.4548860000000 1.0
C      1  0.4768210000000  0.5324170000000  0.4550300000000 1.0
C      1  0.5066810000000  0.5273400000000  0.5398790000000 1.0
C      1  0.4858480000000  0.4852480000000  0.5120770000000 1.0
C      1  0.5826470000000  0.4456370000000  0.4597380000000 1.0
C      1  0.4093820000000  0.4485370000000  0.4682210000000 1.0
C      1  0.5331200000000  0.5756350000000  0.4519630000000 1.0
C      1  0.5376830000000  0.5680390000000  0.5523100000000 1.0
C      1  0.5426080000000  0.4632620000000  0.4725260000000 1.0
C      1  0.5069700000000  0.5613410000000  0.5390450000000 1.0
C      1  0.4460110000000  0.4909100000000  0.5780830000000 1.0
C      1  0.5506640000000  0.5222860000000  0.4729500000000 1.0
C      1  0.4597590000000  0.5014930000000  0.5200080000000 1.0
C      1  0.4638860000000  0.4432160000000  0.5815190000000 1.0
C      1  0.4473420000000  0.5235030000000  0.4972290000000 1.0
C      1  0.4674740000000  0.5916990000000  0.4879550000000 1.0
C      1  0.4810490000000  0.4679560000000  0.4082760000000 1.0
C      1  0.4468460000000  0.4380990000000  0.4767800000000 1.0
C      1  0.5293580000000  0.5214500000000  0.5149320000000 1.0
C      1  0.4651910000000  0.4603140000000  0.5454820000000 1.0
C      1  0.5020760000000  0.5655660000000  0.4465170000000 1.0
C      1  0.5096840000000  0.4790230000000  0.4229030000000 1.0
C      1  0.4808210000000  0.4088840000000  0.5018060000000 1.0
C      1  0.4437660000000  0.4348960000000  0.5247210000000 1.0
C      1  0.5657080000000  0.4513100000000  0.5836640000000 1.0
C      1  0.5727480000000  0.5314390000000  0.5326600000000 1.0
C      1  0.5173730000000  0.5663570000000  0.5772150000000 1.0
C      1  0.5729880000000  0.5206830000000  0.4152170000000 1.0
C      1  0.5776720000000  0.5470840000000  0.4286670000000 1.0
C      1  0.4968380000000  0.5659810000000  0.4797660000000 1.0
C      1  0.4512530000000  0.4217830000000  0.4992510000000 1.0
C      1  0.5240430000000  0.5948800000000  0.4785010000000 1.0
C      1  0.3870370000000  0.5179140000000  0.4983250000000 1.0
C      1  0.5585070000000  0.4191150000000  0.5327240000000 1.0
C      1  0.5375150000000  0.4829570000000  0.4037700000000 1.0
C      1  0.4413850000000  0.5010000000000  0.4764190000000 1.0
C      1  0.6015330000000  0.4621720000000  0.5057100000000 1.0
C      1  0.4671210000000  0.4885610000000  0.5571180000000 1.0
C      1  0.4803460000000  0.4938280000000  0.4796400000000 1.0
C      1  0.4943650000000  0.4807480000000  0.5843970000000 1.0
C      1  0.5407990000000  0.4993520000000  0.4522520000000 1.0
C      1  0.5675010000000  0.4481390000000  0.4900780000000 1.0
C      1  0.5346340000000  0.4648670000000  0.5056610000000 1.0
C      1  0.5145060000000  0.5126210000000  0.4252750000000 1.0
C      1  0.5611370000000  0.5483090000000  0.5574360000000 1.0
C      1  0.5629230000000  0.4894240000000  0.4205600000000 1.0
C      1  0.5882260000000  0.5042310000000  0.4760140000000 1.0
C      1  0.5336330000000  0.4747880000000  0.5837940000000 1.0
C      1  0.4919730000000  0.5195830000000  0.4927160000000 1.0
C      1  0.5418240000000  0.4365650000000  0.5771620000000 1.0
C      1  0.4745250000000  0.4066790000000  0.5352420000000 1.0
C      1  0.5289710000000  0.5631520000000  0.4896890000000 1.0
C      1  0.5063780000000  0.5386670000000  0.5719500000000 1.0
C      1  0.4660550000000  0.4614580000000  0.4447840000000 1.0
C      1  0.4705680000000  0.5578860000000  0.5228910000000 1.0
C      1  0.4724130000000  0.4408710000000  0.4190690000000 1.0
C      1  0.4678970000000  0.5691960000000  0.4676750000000 1.0
C      1  0.5118930000000  0.4890800000000  0.5297610000000 1.0
C      1  0.5814270000000  0.4636990000000  0.5328920000000 1.0
C      1  0.4366260000000  0.5056910000000  0.4256690000000 1.0
C      1  0.5293090000000  0.4367690000000  0.4594460000000 1.0
C      1  0.5981220000000  0.5362640000000  0.4816800000000 1.0
C      1  0.4420450000000  0.5543600000000  0.4276270000000 1.0
C      1  0.5125550000000  0.4442520000000  0.5031420000000 1.0
C      1  0.4226430000000  0.5260950000000  0.5371880000000 1.0
C      1  0.4085110000000  0.5311400000000  0.4786430000000 1.0
C      1  0.4764880000000  0.4436340000000  0.5210040000000 1.0
C      1  0.4522050000000  0.5203190000000  0.5789130000000 1.0
C      1  0.4400560000000  0.4605210000000  0.5765520000000 1.0
C      1  0.5477120000000  0.4632820000000  0.5346410000000 1.0
C      1  0.5652260000000  0.4853900000000  0.5806680000000 1.0
C      1  0.4613510000000  0.4882790000000  0.4086820000000 1.0
C      1  0.5181300000000  0.4477260000000  0.4308310000000 1.0
C      1  0.4522910000000  0.5427230000000  0.4706860000000 1.0
C      1  0.5780810000000  0.5553510000000  0.5110930000000 1.0
C      1  0.4831740000000  0.5726300000000  0.5576550000000 1.0
C      1  0.4607680000000  0.4220670000000  0.4412070000000 1.0
C      1  0.5772250000000  0.5593190000000  0.4774650000000 1.0
C      1  0.4273380000000  0.5424430000000  0.4522180000000 1.0
C      1  0.4782460000000  0.4105380000000  0.4679150000000 1.0
C      1  0.5425050000000  0.4247920000000  0.4856540000000 1.0
C      1  0.4060320000000  0.4806680000000  0.4576170000000 1.0
C      1  0.4139560000000  0.4990090000000  0.5328390000000 1.0
C      1  0.5364860000000  0.4894650000000  0.5532480000000 1.0
C      1  0.4731490000000  0.5352810000000  0.4112950000000 1.0
C      1  0.5669680000000  0.5060840000000  0.5537290000000 1.0
C      1  0.3955230000000  0.4951060000000  0.5111480000000 1.0
C      1  0.4408770000000  0.5366050000000  0.5577360000000 1.0
C      1  0.4678130000000  0.4279480000000  0.5558120000000 1.0
C      1  0.5024000000000  0.4222000000000  0.4470160000000 1.0
C      1  0.5442600000000  0.5256470000000  0.4327140000000 1.0
C      1  0.5753140000000  0.4352530000000  0.5183630000000 1.0
C      1  0.5180030000000  0.4852230000000  0.4661380000000 1.0
C      1  0.4733470000000  0.5622150000000  0.4286220000000 1.0
C      1  0.5059720000000  0.4311550000000  0.5334800000000 1.0
C      1  0.5546270000000  0.5503030000000  0.4537150000000 1.0
C      1  0.4342180000000  0.4637420000000  0.4489440000000 1.0
C      1  0.4694140000000  0.5099210000000  0.4336400000000 1.0
C      1  0.5184000000000  0.4496320000000  0.5915660000000 1.0
C      1  0.5747740000000  0.4992880000000  0.4508720000000 1.0
C      1  0.5570750000000  0.5864720000000  0.4733940000000 1.0
C      1  0.5355500000000  0.4354710000000  0.5474160000000 1.0
C      1  0.4266550000000  0.5715590000000  0.5097430000000 1.0
C      1  0.4956840000000  0.4994460000000  0.5559580000000 1.0
C      1  0.5273800000000  0.5132710000000  0.5757830000000 1.0
C      1  0.5548290000000  0.5163170000000  0.5902390000000 1.0
C      1  0.4798950000000  0.5288400000000  0.5197590000000 1.0
C      1  0.4306100000000  0.4300930000000  0.4490290000000 1.0
C      1  0.4887090000000  0.4533600000000  0.5910660000000 1.0
C      1  0.4367330000000  0.5328310000000  0.4067470000000 1.0
C      1  0.4268220000000  0.4508850000000  0.5494870000000 1.0
C      1  0.4843860000000  0.4440620000000  0.4647100000000 1.0
C      1  0.5544410000000  0.5761070000000  0.5054820000000 1.0
C      1  0.4571110000000  0.5590770000000  0.5516980000000 1.0
C      1  0.5898390000000  0.5176190000000  0.5076470000000 1.0
C      1  0.4526970000000  0.5795630000000  0.5093240000000 1.0
C      1  0.4905990000000  0.5918900000000  0.4283050000000 1.0
C      1  0.5150110000000  0.4111590000000  0.5003370000000 1.0
C      1  0.5007170000000  0.5071230000000  0.5948120000000 1.0
C      1  0.5208830000000  0.5316230000000  0.4835970000000 1.0
C      1  0.5764900000000  0.4802580000000  0.4968280000000 1.0
C      1  0.5652250000000  0.4681830000000  0.4471680000000 1.0
END
