TITL C-3371511-147-50 0.00141382152790991 125000 -550.982574496836 0 0 101 (C1) n - 1
REM
REM in /nfs/bkarasulu/CARBON/AIRSS/Generating-Clusters/AIREBO/with-SteepDescent/Only-C1/SD-CG-opt/Try1-1.4A-POS3A/HFTN-CG
REM
REM
REM
REM
REM
REM ./C.cell (11c1c37f851c82e70ff6c80c92926a4b)
REM
REM compiler GCC version 9.2.1 20190827 (Red Hat 9.2.1-1)
REM options -cpp -mtune=generic -march=x86-64 -g -O0 -fpre-include=/usr/include/finclude/math-vector-fortran.h
REM seed -442918133 -295828616 -630012845 1970231048 -1699212514 -1995314351 -2113070791 -2046681078 -1532265574 1327259244 -1136689246 -1131034480 1781816549 -1190475635 -1541703592 -1129614671 -413538010 287479141 782857052 1623453468 -329366436 196653152 1622902946 -1327115102 -1171828439 1078325171 457977915 -781987954 -869183465 -1499089768 175450549 -1637195200 2073174754
REM
CELL 1.54180   50.00000   50.00000   50.00000   90.00000   90.00000   90.00000
LATT -1
SFAC C  
C      1  0.5809910000000  0.5054930000000  0.5515930000000 1.0
C      1  0.5285610000000  0.4219260000000  0.4699850000000 1.0
C      1  0.4701300000000  0.4690330000000  0.4190060000000 1.0
C      1  0.5404240000000  0.5380750000000  0.5679290000000 1.0
C      1  0.4312140000000  0.4813010000000  0.5745540000000 1.0
C      1  0.4431800000000  0.5198690000000  0.4466440000000 1.0
C      1  0.4948380000000  0.4871420000000  0.5514310000000 1.0
C      1  0.4715840000000  0.4723260000000  0.5147490000000 1.0
C      1  0.4937920000000  0.4509200000000  0.4354310000000 1.0
C      1  0.4306650000000  0.4844400000000  0.5221860000000 1.0
C      1  0.4945200000000  0.5447190000000  0.5786630000000 1.0
C      1  0.5592540000000  0.5554550000000  0.4624570000000 1.0
C      1  0.5336620000000  0.5172900000000  0.5184920000000 1.0
C      1  0.4747290000000  0.5301650000000  0.4727890000000 1.0
C      1  0.5201820000000  0.5767020000000  0.5292980000000 1.0
C      1  0.5157090000000  0.5437350000000  0.4557740000000 1.0
C      1  0.4273740000000  0.4557570000000  0.5659140000000 1.0
C      1  0.4600160000000  0.4423090000000  0.5200770000000 1.0
C      1  0.5918310000000  0.5240170000000  0.5076960000000 1.0
C      1  0.5082370000000  0.5546480000000  0.5510830000000 1.0
C      1  0.4904610000000  0.5175480000000  0.5796500000000 1.0
C      1  0.4749790000000  0.4330120000000  0.5686570000000 1.0
C      1  0.4525620000000  0.4942380000000  0.4992400000000 1.0
C      1  0.5060590000000  0.5073090000000  0.3995070000000 1.0
C      1  0.5551440000000  0.4920920000000  0.5635640000000 1.0
C      1  0.5028150000000  0.5118950000000  0.4785780000000 1.0
C      1  0.4254810000000  0.5120170000000  0.4748290000000 1.0
C      1  0.5395990000000  0.4125520000000  0.5654040000000 1.0
C      1  0.5917210000000  0.4883120000000  0.4896650000000 1.0
C      1  0.5319490000000  0.4392860000000  0.4982690000000 1.0
C      1  0.5047020000000  0.4710130000000  0.5749380000000 1.0
C      1  0.5376880000000  0.5121270000000  0.5782440000000 1.0
C      1  0.4637400000000  0.5018540000000  0.4263980000000 1.0
C      1  0.4709750000000  0.5603020000000  0.5673680000000 1.0
C      1  0.4724040000000  0.6010100000000  0.5136230000000 1.0
C      1  0.5450950000000  0.4904110000000  0.5320260000000 1.0
C      1  0.4462780000000  0.4698560000000  0.4425550000000 1.0
C      1  0.5617770000000  0.4503820000000  0.4994650000000 1.0
C      1  0.4881250000000  0.5025460000000  0.5143680000000 1.0
C      1  0.5209800000000  0.4281610000000  0.5537230000000 1.0
C      1  0.5358700000000  0.5413490000000  0.5363850000000 1.0
C      1  0.4983430000000  0.4520630000000  0.5157780000000 1.0
C      1  0.4706470000000  0.5086100000000  0.5550970000000 1.0
C      1  0.5350750000000  0.3945470000000  0.4732180000000 1.0
C      1  0.5021920000000  0.5301830000000  0.5183030000000 1.0
C      1  0.5460410000000  0.5095140000000  0.4298700000000 1.0
C      1  0.4660260000000  0.5729210000000  0.4471430000000 1.0
C      1  0.4801680000000  0.4174320000000  0.4789830000000 1.0
C      1  0.5229850000000  0.4898690000000  0.4719730000000 1.0
C      1  0.4522700000000  0.5577280000000  0.5341290000000 1.0
C      1  0.4564800000000  0.5470780000000  0.4513070000000 1.0
C      1  0.4280140000000  0.5413430000000  0.5270550000000 1.0
C      1  0.5687170000000  0.4774490000000  0.5111470000000 1.0
C      1  0.5437710000000  0.5377590000000  0.4454560000000 1.0
C      1  0.5420100000000  0.5754240000000  0.4749240000000 1.0
C      1  0.4178820000000  0.4607630000000  0.4782370000000 1.0
C      1  0.4753670000000  0.4868210000000  0.4535010000000 1.0
C      1  0.4258010000000  0.4558560000000  0.5344980000000 1.0
C      1  0.4857180000000  0.5223450000000  0.4131830000000 1.0
C      1  0.5435280000000  0.5693040000000  0.5541760000000 1.0
C      1  0.5454020000000  0.4569200000000  0.4362620000000 1.0
C      1  0.5825910000000  0.5077400000000  0.4724300000000 1.0
C      1  0.5332370000000  0.5656950000000  0.5028540000000 1.0
C      1  0.4478890000000  0.4879270000000  0.4698570000000 1.0
C      1  0.5718190000000  0.4428960000000  0.4743750000000 1.0
C      1  0.5232540000000  0.4916490000000  0.4143060000000 1.0
C      1  0.5607260000000  0.4683180000000  0.5773410000000 1.0
C      1  0.5182050000000  0.4305950000000  0.5263310000000 1.0
C      1  0.4953590000000  0.5784500000000  0.4520600000000 1.0
C      1  0.4897350000000  0.5261820000000  0.4444720000000 1.0
C      1  0.4795010000000  0.5389680000000  0.5420820000000 1.0
C      1  0.4492050000000  0.5876730000000  0.5187060000000 1.0
C      1  0.5743260000000  0.5386240000000  0.4840080000000 1.0
C      1  0.4656270000000  0.5254070000000  0.5030320000000 1.0
C      1  0.5264340000000  0.4701230000000  0.4942970000000 1.0
C      1  0.4962320000000  0.4738780000000  0.4680610000000 1.0
C      1  0.5508370000000  0.5024340000000  0.4627850000000 1.0
C      1  0.5133230000000  0.4816080000000  0.5234890000000 1.0
C      1  0.5179620000000  0.5398510000000  0.4894930000000 1.0
C      1  0.5008780000000  0.4256450000000  0.4571200000000 1.0
C      1  0.5833930000000  0.5048120000000  0.5249180000000 1.0
C      1  0.4514900000000  0.4392240000000  0.5501200000000 1.0
C      1  0.5610510000000  0.4801180000000  0.4380620000000 1.0
C      1  0.5510560000000  0.4375650000000  0.4552170000000 1.0
C      1  0.4598370000000  0.4246880000000  0.4997390000000 1.0
C      1  0.4148900000000  0.4845740000000  0.4919100000000 1.0
C      1  0.4330670000000  0.5327740000000  0.4965400000000 1.0
C      1  0.5016290000000  0.4427070000000  0.5699640000000 1.0
C      1  0.4409290000000  0.4997180000000  0.5509310000000 1.0
C      1  0.4677760000000  0.4479970000000  0.4572700000000 1.0
C      1  0.4734880000000  0.5581930000000  0.5075650000000 1.0
C      1  0.5107550000000  0.5826320000000  0.4747800000000 1.0
C      1  0.4364340000000  0.4423150000000  0.4692080000000 1.0
C      1  0.4206080000000  0.5231480000000  0.5458740000000 1.0
C      1  0.4869870000000  0.4501470000000  0.4852710000000 1.0
C      1  0.5122960000000  0.5005130000000  0.5846540000000 1.0
C      1  0.4397540000000  0.5660710000000  0.4974020000000 1.0
C      1  0.5465610000000  0.5220560000000  0.4898880000000 1.0
C      1  0.4972790000000  0.5824780000000  0.5046770000000 1.0
C      1  0.5212840000000  0.4639610000000  0.4229700000000 1.0
C      1  0.4965600000000  0.5541240000000  0.4294960000000 1.0
END
