TITL C-3371509-8222-43 0.000875972250984873 125000 -561.083067283383 0 0 101 (C1) n - 1
REM
REM in /nfs/bkarasulu/CARBON/AIRSS/Generating-Clusters/AIREBO/with-SteepDescent/Only-C1/SD-CG-opt/Try1-1.4A-POS3A/HFTN-CG
REM
REM
REM
REM
REM
REM ./C.cell (11c1c37f851c82e70ff6c80c92926a4b)
REM
REM compiler GCC version 9.2.1 20190827 (Red Hat 9.2.1-1)
REM options -cpp -mtune=generic -march=x86-64 -g -O0 -fpre-include=/usr/include/finclude/math-vector-fortran.h
REM seed 1138447284 1807569096 948034269 -504298415 263043439 941959819 -299025707 -1111668758 -32000469 2010097305 1050088315 1825313651 753111754 2066253827 -1065728606 -906595709 778033455 1611931186 -1730592015 1004342517 -1123806625 -1127675631 816402631 112793344 -700280938 1501555264 -1114502869 -64072502 -185988108 1342988999 1241785313 2049715632 388909857
REM
CELL 1.54180   50.00000   50.00000   50.00000   90.00000   90.00000   90.00000
LATT -1
SFAC C  
C      1  0.5432940000000  0.5671700000000  0.4943500000000 1.0
C      1  0.5437540000000  0.5454990000000  0.5445100000000 1.0
C      1  0.5306470000000  0.5477870000000  0.5692570000000 1.0
C      1  0.5315840000000  0.5284670000000  0.4405000000000 1.0
C      1  0.4568520000000  0.4836330000000  0.4268930000000 1.0
C      1  0.4541940000000  0.4290690000000  0.5102410000000 1.0
C      1  0.5635530000000  0.5014590000000  0.5328050000000 1.0
C      1  0.4812500000000  0.6053680000000  0.5692510000000 1.0
C      1  0.5036870000000  0.4614410000000  0.5030320000000 1.0
C      1  0.5195260000000  0.4186020000000  0.4846130000000 1.0
C      1  0.6022170000000  0.4777860000000  0.5088360000000 1.0
C      1  0.5727590000000  0.4812200000000  0.4575760000000 1.0
C      1  0.5043130000000  0.5413130000000  0.5730270000000 1.0
C      1  0.5099390000000  0.4154300000000  0.4527830000000 1.0
C      1  0.4562550000000  0.4376160000000  0.4392560000000 1.0
C      1  0.5608080000000  0.5371210000000  0.4531170000000 1.0
C      1  0.4869770000000  0.4876920000000  0.4374750000000 1.0
C      1  0.5492300000000  0.4637130000000  0.4990060000000 1.0
C      1  0.5522470000000  0.5654230000000  0.5271370000000 1.0
C      1  0.4385670000000  0.4682180000000  0.5398960000000 1.0
C      1  0.4682840000000  0.4372220000000  0.4678190000000 1.0
C      1  0.4570650000000  0.5563710000000  0.4450870000000 1.0
C      1  0.4805630000000  0.5694100000000  0.4363230000000 1.0
C      1  0.5191880000000  0.4391890000000  0.4302110000000 1.0
C      1  0.4092700000000  0.4829400000000  0.4737320000000 1.0
C      1  0.4708750000000  0.4761240000000  0.5347800000000 1.0
C      1  0.5194760000000  0.4579990000000  0.4113190000000 1.0
C      1  0.4674370000000  0.5555390000000  0.5422720000000 1.0
C      1  0.5011760000000  0.5522340000000  0.4343480000000 1.0
C      1  0.4906930000000  0.5201480000000  0.5191770000000 1.0
C      1  0.4498860000000  0.5362830000000  0.4280650000000 1.0
C      1  0.5530690000000  0.4581380000000  0.4683140000000 1.0
C      1  0.5041940000000  0.5201850000000  0.4220920000000 1.0
C      1  0.5465920000000  0.4385200000000  0.5175970000000 1.0
C      1  0.5145280000000  0.5810410000000  0.4834710000000 1.0
C      1  0.5282000000000  0.6112890000000  0.5435490000000 1.0
C      1  0.4918940000000  0.4541830000000  0.5297500000000 1.0
C      1  0.5394500000000  0.4323230000000  0.4536380000000 1.0
C      1  0.5295890000000  0.5391050000000  0.5077040000000 1.0
C      1  0.4705600000000  0.5142480000000  0.4236690000000 1.0
C      1  0.5202260000000  0.5885820000000  0.5331380000000 1.0
C      1  0.4766920000000  0.5055940000000  0.5451230000000 1.0
C      1  0.5359620000000  0.4824030000000  0.5719030000000 1.0
C      1  0.4209940000000  0.4692250000000  0.4953400000000 1.0
C      1  0.5251450000000  0.4902310000000  0.4490940000000 1.0
C      1  0.4200050000000  0.4808570000000  0.5207280000000 1.0
C      1  0.4399690000000  0.5745780000000  0.5485290000000 1.0
C      1  0.4541060000000  0.4989130000000  0.4571420000000 1.0
C      1  0.5188890000000  0.5062090000000  0.4784530000000 1.0
C      1  0.4836590000000  0.4074260000000  0.4734690000000 1.0
C      1  0.4986260000000  0.4436830000000  0.4785090000000 1.0
C      1  0.4450960000000  0.5102190000000  0.5949030000000 1.0
C      1  0.4722810000000  0.5238900000000  0.4624490000000 1.0
C      1  0.4834370000000  0.4567660000000  0.5720460000000 1.0
C      1  0.4227860000000  0.5026700000000  0.4600850000000 1.0
C      1  0.4576350000000  0.5087960000000  0.5726830000000 1.0
C      1  0.4364080000000  0.5674630000000  0.5200800000000 1.0
C      1  0.4596720000000  0.4771300000000  0.4808680000000 1.0
C      1  0.5537510000000  0.5040250000000  0.4497420000000 1.0
C      1  0.4873260000000  0.5714580000000  0.5017570000000 1.0
C      1  0.5753090000000  0.5321190000000  0.4924660000000 1.0
C      1  0.4779370000000  0.4153790000000  0.5043850000000 1.0
C      1  0.4256310000000  0.5419110000000  0.5155560000000 1.0
C      1  0.5129000000000  0.5660620000000  0.5200340000000 1.0
C      1  0.4441560000000  0.5794430000000  0.4742920000000 1.0
C      1  0.4474920000000  0.4554720000000  0.4240730000000 1.0
C      1  0.5165870000000  0.4471180000000  0.5520370000000 1.0
C      1  0.4904620000000  0.4808300000000  0.4663310000000 1.0
C      1  0.5471320000000  0.5197560000000  0.4858980000000 1.0
C      1  0.5133770000000  0.4875040000000  0.4195510000000 1.0
C      1  0.5040500000000  0.5305210000000  0.4603580000000 1.0
C      1  0.4672670000000  0.5855860000000  0.5583010000000 1.0
C      1  0.5397570000000  0.4924680000000  0.5956290000000 1.0
C      1  0.5715490000000  0.4718750000000  0.5198700000000 1.0
C      1  0.4895590000000  0.4998930000000  0.4937360000000 1.0
C      1  0.4574980000000  0.5484020000000  0.4781520000000 1.0
C      1  0.5904650000000  0.4715820000000  0.4346690000000 1.0
C      1  0.5003000000000  0.4211970000000  0.5266300000000 1.0
C      1  0.5047280000000  0.4161270000000  0.5594530000000 1.0
C      1  0.4544880000000  0.5806020000000  0.5015560000000 1.0
C      1  0.4824830000000  0.5352240000000  0.5586430000000 1.0
C      1  0.5059640000000  0.4783830000000  0.5581390000000 1.0
C      1  0.4479720000000  0.4364740000000  0.5360740000000 1.0
C      1  0.5883150000000  0.4902120000000  0.4813370000000 1.0
C      1  0.5246870000000  0.4832870000000  0.5029030000000 1.0
C      1  0.5845880000000  0.5791990000000  0.4688720000000 1.0
C      1  0.5853430000000  0.5080040000000  0.5101610000000 1.0
C      1  0.4572080000000  0.4524020000000  0.5635360000000 1.0
C      1  0.4450440000000  0.4485940000000  0.4878630000000 1.0
C      1  0.4629360000000  0.4932450000000  0.5086800000000 1.0
C      1  0.4946990000000  0.4322480000000  0.5817690000000 1.0
C      1  0.4477090000000  0.5176350000000  0.5128330000000 1.0
C      1  0.5665940000000  0.5591830000000  0.4758820000000 1.0
C      1  0.4179340000000  0.5096960000000  0.5220240000000 1.0
C      1  0.5447420000000  0.4473210000000  0.5439370000000 1.0
C      1  0.5135120000000  0.4981160000000  0.5314480000000 1.0
C      1  0.5270960000000  0.4197920000000  0.5109930000000 1.0
C      1  0.5392460000000  0.5175670000000  0.5312930000000 1.0
C      1  0.5586940000000  0.4742430000000  0.5514900000000 1.0
C      1  0.4685860000000  0.5443280000000  0.5100650000000 1.0
C      1  0.5196890000000  0.4643690000000  0.4665700000000 1.0
END
