TITL C-3371501-9953-45 0.00410236613487715 125000 -136.27742480482 0 0 28 (C1) n - 1
REM
REM in /nfs/bkarasulu/CARBON/AIRSS/Generating-Clusters/AIREBO/with-SteepDescent/Only-C1/SD-CG-opt/Try1-1.4A-POS3A/HFTN-CG
REM
REM
REM
REM
REM
REM ./C.cell (11c1c37f851c82e70ff6c80c92926a4b)
REM
REM compiler GCC version 9.2.1 20190827 (Red Hat 9.2.1-1)
REM options -cpp -mtune=generic -march=x86-64 -g -O0 -fpre-include=/usr/include/finclude/math-vector-fortran.h
REM seed -281206716 1773986020 -1976229050 1566016633 -146325019 -969331902 1303489698 1680977868 -1861542208 1128429196 853113063 -963013902 -888857693 736578218 992511116 341205633 -1234623948 -8597373 470988424 -9771609 -1315968990 -1764879757 -18399342 -1203757640 -1852093781 -1373240753 115191087 -1107321389 -751716692 -255038415 -1070764292 1894743935 1466036631
REM
CELL 1.54180   50.00000   50.00000   50.00000   90.00000   90.00000   90.00000
LATT -1
SFAC C  
C      1  0.4625020000000  0.5124890000000  0.5139760000000 1.0
C      1  0.5158810000000  0.4739770000000  0.4821590000000 1.0
C      1  0.4916800000000  0.5256360000000  0.5013610000000 1.0
C      1  0.4733270000000  0.5511250000000  0.5143870000000 1.0
C      1  0.5524820000000  0.4727760000000  0.5129610000000 1.0
C      1  0.5674620000000  0.5706950000000  0.5149670000000 1.0
C      1  0.4473150000000  0.5425850000000  0.5184100000000 1.0
C      1  0.4896600000000  0.4537020000000  0.5335630000000 1.0
C      1  0.5236570000000  0.5022980000000  0.5476100000000 1.0
C      1  0.4765410000000  0.4692650000000  0.4845910000000 1.0
C      1  0.5279880000000  0.4846660000000  0.5187200000000 1.0
C      1  0.4863220000000  0.5059450000000  0.4547950000000 1.0
C      1  0.4693340000000  0.4827430000000  0.4590140000000 1.0
C      1  0.5707950000000  0.5529600000000  0.5393970000000 1.0
C      1  0.5203370000000  0.5438240000000  0.4991420000000 1.0
C      1  0.4968900000000  0.4460080000000  0.4785350000000 1.0
C      1  0.4967250000000  0.5459200000000  0.4745190000000 1.0
C      1  0.4630570000000  0.4616690000000  0.5361000000000 1.0
C      1  0.5414920000000  0.4729470000000  0.4719230000000 1.0
C      1  0.5021200000000  0.4672690000000  0.5115960000000 1.0
C      1  0.5006950000000  0.5006850000000  0.4803780000000 1.0
C      1  0.4985590000000  0.4203980000000  0.4756600000000 1.0
C      1  0.4890390000000  0.5341390000000  0.4511980000000 1.0
C      1  0.4503490000000  0.4739750000000  0.4421940000000 1.0
C      1  0.5475780000000  0.5431210000000  0.5165890000000 1.0
C      1  0.4520720000000  0.4918730000000  0.5385010000000 1.0
C      1  0.4599100000000  0.4791610000000  0.5077560000000 1.0
C      1  0.5262320000000  0.5181510000000  0.5199950000000 1.0
END
