TITL C-3371502-3785-32 -0.00225999466913228 125000 -523.782551556465 0 0 97 (C1) n - 1
REM
REM in /nfs/bkarasulu/CARBON/AIRSS/Generating-Clusters/AIREBO/with-SteepDescent/Only-C1/SD-CG-opt/Try1-1.4A-POS3A/HFTN-CG
REM
REM
REM
REM
REM
REM ./C.cell (11c1c37f851c82e70ff6c80c92926a4b)
REM
REM compiler GCC version 9.2.1 20190827 (Red Hat 9.2.1-1)
REM options -cpp -mtune=generic -march=x86-64 -g -O0 -fpre-include=/usr/include/finclude/math-vector-fortran.h
REM seed -191210131 -302333338 519833295 1595332982 -2017811020 176990654 -105826215 -706208503 -1044928548 -984740403 -2049851030 825582121 -1454093625 -1487601344 153325680 867653259 -1263333686 481685145 1500317908 1827177003 -344062067 522428202 1611968637 298019702 -418823929 1969661227 -549493753 -1692734253 -2079425747 -703508881 -289250383 716968015 -1518379410
REM
CELL 1.54180   50.00000   50.00000   50.00000   90.00000   90.00000   90.00000
LATT -1
SFAC C  
C      1  0.5625480000000  0.4935100000000  0.4384870000000 1.0
C      1  0.4992330000000  0.4927650000000  0.5391580000000 1.0
C      1  0.4856000000000  0.4985490000000  0.4590100000000 1.0
C      1  0.5824710000000  0.5282050000000  0.5023760000000 1.0
C      1  0.4731930000000  0.4592750000000  0.5835860000000 1.0
C      1  0.5007950000000  0.4180630000000  0.4444890000000 1.0
C      1  0.4764770000000  0.5453380000000  0.5677590000000 1.0
C      1  0.4732900000000  0.5698290000000  0.5570970000000 1.0
C      1  0.5104090000000  0.5043080000000  0.6199410000000 1.0
C      1  0.5324260000000  0.4528990000000  0.4153770000000 1.0
C      1  0.4019560000000  0.4614660000000  0.5423400000000 1.0
C      1  0.5466810000000  0.5734530000000  0.4799320000000 1.0
C      1  0.4505360000000  0.5771410000000  0.4320190000000 1.0
C      1  0.4951250000000  0.5602700000000  0.4720010000000 1.0
C      1  0.5267740000000  0.5081730000000  0.4947680000000 1.0
C      1  0.5180780000000  0.4989670000000  0.4357040000000 1.0
C      1  0.5470280000000  0.4873290000000  0.4817310000000 1.0
C      1  0.4622990000000  0.5182670000000  0.4696070000000 1.0
C      1  0.5072260000000  0.4356890000000  0.4253210000000 1.0
C      1  0.5350160000000  0.4270700000000  0.5181560000000 1.0
C      1  0.4552800000000  0.5356080000000  0.5146390000000 1.0
C      1  0.4830720000000  0.5372990000000  0.4515080000000 1.0
C      1  0.4258590000000  0.4856370000000  0.4813840000000 1.0
C      1  0.5395210000000  0.4773700000000  0.5346580000000 1.0
C      1  0.4929030000000  0.5246900000000  0.5490210000000 1.0
C      1  0.5668920000000  0.4627530000000  0.5205610000000 1.0
C      1  0.5233640000000  0.4523580000000  0.5198310000000 1.0
C      1  0.4630320000000  0.5153010000000  0.5357560000000 1.0
C      1  0.5524100000000  0.4610600000000  0.4377210000000 1.0
C      1  0.4553010000000  0.5561670000000  0.4461380000000 1.0
C      1  0.4981980000000  0.4552670000000  0.5724950000000 1.0
C      1  0.4358810000000  0.5356300000000  0.4652140000000 1.0
C      1  0.4469790000000  0.5126620000000  0.4156080000000 1.0
C      1  0.4962570000000  0.5043160000000  0.5971570000000 1.0
C      1  0.5775300000000  0.4890250000000  0.5365320000000 1.0
C      1  0.5841570000000  0.5020330000000  0.4807090000000 1.0
C      1  0.5198520000000  0.4093410000000  0.5025570000000 1.0
C      1  0.5011620000000  0.5548470000000  0.5173130000000 1.0
C      1  0.4370670000000  0.5127870000000  0.5532830000000 1.0
C      1  0.5300390000000  0.5243390000000  0.4503080000000 1.0
C      1  0.5093200000000  0.4592200000000  0.4678690000000 1.0
C      1  0.5585080000000  0.5511840000000  0.4577840000000 1.0
C      1  0.4717600000000  0.5101890000000  0.4041740000000 1.0
C      1  0.4321660000000  0.4636550000000  0.4562240000000 1.0
C      1  0.4501870000000  0.4393720000000  0.5030870000000 1.0
C      1  0.4511510000000  0.4863960000000  0.5268490000000 1.0
C      1  0.4295650000000  0.4656650000000  0.5430550000000 1.0
C      1  0.5085500000000  0.4261230000000  0.4763530000000 1.0
C      1  0.4559170000000  0.4819340000000  0.5846980000000 1.0
C      1  0.5469080000000  0.5561240000000  0.5400980000000 1.0
C      1  0.5618450000000  0.5174190000000  0.4601680000000 1.0
C      1  0.4324830000000  0.4519270000000  0.4856740000000 1.0
C      1  0.5844200000000  0.4700280000000  0.4923370000000 1.0
C      1  0.4582020000000  0.5297980000000  0.5830590000000 1.0
C      1  0.5063190000000  0.5029380000000  0.5714490000000 1.0
C      1  0.5831380000000  0.5006640000000  0.5593250000000 1.0
C      1  0.5745680000000  0.5460380000000  0.5492970000000 1.0
C      1  0.4241360000000  0.5327790000000  0.5060380000000 1.0
C      1  0.5049520000000  0.4695710000000  0.4247630000000 1.0
C      1  0.4698470000000  0.4646820000000  0.4795680000000 1.0
C      1  0.4457130000000  0.4418310000000  0.5296080000000 1.0
C      1  0.5127300000000  0.3834610000000  0.5071560000000 1.0
C      1  0.4768600000000  0.5076730000000  0.4968160000000 1.0
C      1  0.5051200000000  0.5219020000000  0.4724440000000 1.0
C      1  0.5280730000000  0.5564940000000  0.5030750000000 1.0
C      1  0.5330060000000  0.5099440000000  0.5277340000000 1.0
C      1  0.5222350000000  0.5377680000000  0.5378130000000 1.0
C      1  0.5643120000000  0.5004430000000  0.5079400000000 1.0
C      1  0.5240830000000  0.5558600000000  0.4616010000000 1.0
C      1  0.5859860000000  0.4259950000000  0.4484790000000 1.0
C      1  0.4520080000000  0.4625740000000  0.4378540000000 1.0
C      1  0.5802560000000  0.5495550000000  0.5194460000000 1.0
C      1  0.5318700000000  0.4762780000000  0.4573200000000 1.0
C      1  0.4573700000000  0.5752030000000  0.4980270000000 1.0
C      1  0.4808880000000  0.4375620000000  0.4924940000000 1.0
C      1  0.5627330000000  0.4317100000000  0.5229770000000 1.0
C      1  0.4738600000000  0.5719830000000  0.5232790000000 1.0
C      1  0.5036710000000  0.4616550000000  0.5000350000000 1.0
C      1  0.5611490000000  0.4365790000000  0.4526980000000 1.0
C      1  0.4820870000000  0.4680650000000  0.4495350000000 1.0
C      1  0.4172770000000  0.5256010000000  0.5378560000000 1.0
C      1  0.4354010000000  0.5594910000000  0.4898090000000 1.0
C      1  0.5855910000000  0.5270860000000  0.5661110000000 1.0
C      1  0.4157650000000  0.5134950000000  0.4813880000000 1.0
C      1  0.4741980000000  0.5828980000000  0.4776140000000 1.0
C      1  0.5135120000000  0.4675530000000  0.5542940000000 1.0
C      1  0.4749790000000  0.5984590000000  0.5447330000000 1.0
C      1  0.5578470000000  0.5707970000000  0.5111330000000 1.0
C      1  0.4537600000000  0.4840940000000  0.4961080000000 1.0
C      1  0.5415380000000  0.4261940000000  0.4680790000000 1.0
C      1  0.4804830000000  0.5415700000000  0.4963970000000 1.0
C      1  0.4299230000000  0.5235960000000  0.4339700000000 1.0
C      1  0.5003010000000  0.4916920000000  0.5083330000000 1.0
C      1  0.4978770000000  0.5034630000000  0.4087080000000 1.0
C      1  0.4674940000000  0.5058200000000  0.5959280000000 1.0
C      1  0.4373970000000  0.4869300000000  0.5642940000000 1.0
C      1  0.5467870000000  0.5339650000000  0.4857920000000 1.0
END
