TITL C-3371504-3437-42 -0.00016484336636573 125000 -523.888887674825 0 0 94 (C1) n - 1
REM
REM in /nfs/bkarasulu/CARBON/AIRSS/Generating-Clusters/AIREBO/with-SteepDescent/Only-C1/SD-CG-opt/Try1-1.4A-POS3A/HFTN-CG
REM
REM
REM
REM
REM
REM ./C.cell (11c1c37f851c82e70ff6c80c92926a4b)
REM
REM compiler GCC version 9.2.1 20190827 (Red Hat 9.2.1-1)
REM options -cpp -mtune=generic -march=x86-64 -g -O0 -fpre-include=/usr/include/finclude/math-vector-fortran.h
REM seed 569560192 -1169082877 1898851659 -967735662 -1972743423 -1842209253 -1046984932 -2066630407 1666639652 1723914336 721567954 -929713526 1361279689 -182612037 435750636 607590153 -2024366427 1647011360 1172206128 1976898797 544260601 1414658000 -572176445 1768621634 -1296431028 747317406 938857847 1020886867 -863861781 644599854 -1072095118 -972839136 869500891
REM
CELL 1.54180   50.00000   50.00000   50.00000   90.00000   90.00000   90.00000
LATT -1
SFAC C  
C      1  0.4515330000000  0.4300870000000  0.5208490000000 1.0
C      1  0.4830560000000  0.4950800000000  0.5450010000000 1.0
C      1  0.5445140000000  0.4782010000000  0.4161840000000 1.0
C      1  0.4398450000000  0.4443270000000  0.5670500000000 1.0
C      1  0.4743580000000  0.5383700000000  0.4851370000000 1.0
C      1  0.5582960000000  0.5149910000000  0.5231660000000 1.0
C      1  0.5216230000000  0.5539540000000  0.5075700000000 1.0
C      1  0.4843870000000  0.5025380000000  0.5864280000000 1.0
C      1  0.4914440000000  0.5240520000000  0.4592910000000 1.0
C      1  0.4584640000000  0.5109830000000  0.4962030000000 1.0
C      1  0.4485880000000  0.4361230000000  0.4937680000000 1.0
C      1  0.4729700000000  0.4971470000000  0.4102760000000 1.0
C      1  0.5368240000000  0.4668860000000  0.4461090000000 1.0
C      1  0.5599160000000  0.5009700000000  0.4148340000000 1.0
C      1  0.4185180000000  0.4961770000000  0.5423960000000 1.0
C      1  0.5282020000000  0.4244170000000  0.5190430000000 1.0
C      1  0.4973620000000  0.4687590000000  0.5509330000000 1.0
C      1  0.4085560000000  0.5219320000000  0.4763330000000 1.0
C      1  0.5041120000000  0.4368240000000  0.4228480000000 1.0
C      1  0.4259900000000  0.5098900000000  0.4979560000000 1.0
C      1  0.5687760000000  0.4900310000000  0.4788180000000 1.0
C      1  0.5510270000000  0.5832750000000  0.5344680000000 1.0
C      1  0.4324040000000  0.5605880000000  0.4863350000000 1.0
C      1  0.3899810000000  0.5737990000000  0.4283220000000 1.0
C      1  0.5098660000000  0.5155920000000  0.5831760000000 1.0
C      1  0.4523350000000  0.5405730000000  0.5578150000000 1.0
C      1  0.4953550000000  0.4484580000000  0.5301720000000 1.0
C      1  0.5038650000000  0.5542380000000  0.4823570000000 1.0
C      1  0.5510530000000  0.5534400000000  0.5295810000000 1.0
C      1  0.4473760000000  0.4757390000000  0.4466610000000 1.0
C      1  0.4447140000000  0.4636770000000  0.4740270000000 1.0
C      1  0.6580680000000  0.5040140000000  0.5267520000000 1.0
C      1  0.4687540000000  0.5006180000000  0.4689190000000 1.0
C      1  0.5668070000000  0.4372640000000  0.4892570000000 1.0
C      1  0.5436740000000  0.4328690000000  0.4659240000000 1.0
C      1  0.4455960000000  0.4893030000000  0.5569370000000 1.0
C      1  0.4993900000000  0.4577640000000  0.5830420000000 1.0
C      1  0.5477950000000  0.5373180000000  0.5008570000000 1.0
C      1  0.4238270000000  0.4690070000000  0.5284880000000 1.0
C      1  0.5704300000000  0.4447910000000  0.5366210000000 1.0
C      1  0.4346250000000  0.4447860000000  0.5388260000000 1.0
C      1  0.5647130000000  0.4645940000000  0.5093830000000 1.0
C      1  0.5475930000000  0.5233630000000  0.4748060000000 1.0
C      1  0.5323120000000  0.5868530000000  0.4492650000000 1.0
C      1  0.5512040000000  0.5697100000000  0.4388990000000 1.0
C      1  0.5559500000000  0.4266220000000  0.5176810000000 1.0
C      1  0.4133420000000  0.5488340000000  0.4697420000000 1.0
C      1  0.5816290000000  0.5076310000000  0.4569310000000 1.0
C      1  0.4606600000000  0.5845290000000  0.5151490000000 1.0
C      1  0.5019230000000  0.4933060000000  0.4707170000000 1.0
C      1  0.4925140000000  0.4375380000000  0.4539440000000 1.0
C      1  0.5173290000000  0.5404350000000  0.4556660000000 1.0
C      1  0.5060630000000  0.5335280000000  0.5596730000000 1.0
C      1  0.5147250000000  0.4507620000000  0.5037150000000 1.0
C      1  0.5777620000000  0.4947190000000  0.5095700000000 1.0
C      1  0.5466810000000  0.5399310000000  0.4455850000000 1.0
C      1  0.4860330000000  0.5453060000000  0.5223850000000 1.0
C      1  0.4559140000000  0.4925000000000  0.5246490000000 1.0
C      1  0.4320030000000  0.4785570000000  0.4241360000000 1.0
C      1  0.4738040000000  0.4494690000000  0.4767170000000 1.0
C      1  0.5349110000000  0.4930910000000  0.4783190000000 1.0
C      1  0.4217770000000  0.5194680000000  0.5264230000000 1.0
C      1  0.6327330000000  0.4999220000000  0.5214320000000 1.0
C      1  0.4563220000000  0.5547970000000  0.5088340000000 1.0
C      1  0.4912950000000  0.4686040000000  0.4915380000000 1.0
C      1  0.5097360000000  0.5793340000000  0.4627360000000 1.0
C      1  0.5166310000000  0.4343340000000  0.4748540000000 1.0
C      1  0.5660670000000  0.5174620000000  0.4368370000000 1.0
C      1  0.4003840000000  0.5620320000000  0.4493050000000 1.0
C      1  0.5262900000000  0.4645170000000  0.5689120000000 1.0
C      1  0.4362090000000  0.4781830000000  0.5003420000000 1.0
C      1  0.4960450000000  0.5002540000000  0.5034850000000 1.0
C      1  0.5058620000000  0.5714750000000  0.5312670000000 1.0
C      1  0.4634270000000  0.5141280000000  0.5652130000000 1.0
C      1  0.5356180000000  0.4755760000000  0.5060590000000 1.0
C      1  0.5590500000000  0.4628750000000  0.4681320000000 1.0
C      1  0.4463170000000  0.4898450000000  0.4029060000000 1.0
C      1  0.5035980000000  0.4686070000000  0.4470650000000 1.0
C      1  0.6073250000000  0.4978970000000  0.5145820000000 1.0
C      1  0.5259460000000  0.4520920000000  0.4183360000000 1.0
C      1  0.4903520000000  0.5122510000000  0.3956930000000 1.0
C      1  0.4769850000000  0.4747990000000  0.5899780000000 1.0
C      1  0.4783890000000  0.4875060000000  0.4391290000000 1.0
C      1  0.4962010000000  0.5593720000000  0.5582330000000 1.0
C      1  0.5025720000000  0.5167470000000  0.5309030000000 1.0
C      1  0.5513340000000  0.5296220000000  0.5525900000000 1.0
C      1  0.4781380000000  0.4243400000000  0.5292980000000 1.0
C      1  0.5274410000000  0.5936080000000  0.5335570000000 1.0
C      1  0.5311280000000  0.4989800000000  0.5268000000000 1.0
C      1  0.4524600000000  0.4678470000000  0.5766100000000 1.0
C      1  0.4691030000000  0.5620150000000  0.5653790000000 1.0
C      1  0.5401950000000  0.5204480000000  0.5754560000000 1.0
C      1  0.5052670000000  0.4097690000000  0.5289950000000 1.0
C      1  0.4384610000000  0.5411680000000  0.5334610000000 1.0
END
