TITL C-3371508-3820-62 0.0013716343218905 125000 -778.02522319916 0 0 145 (C1) n - 1
REM
REM in /nfs/bkarasulu/CARBON/AIRSS/Generating-Clusters/AIREBO/with-SteepDescent/Only-C1/SD-CG-opt/Try1-1.4A-POS3A/HFTN-CG
REM
REM
REM
REM
REM
REM ./C.cell (11c1c37f851c82e70ff6c80c92926a4b)
REM
REM compiler GCC version 9.2.1 20190827 (Red Hat 9.2.1-1)
REM options -cpp -mtune=generic -march=x86-64 -g -O0 -fpre-include=/usr/include/finclude/math-vector-fortran.h
REM seed 1842644339 -1775029093 369475132 -1213025984 2128246638 -1285147799 -1662466682 1247140157 -1794898125 964523182 -1006584172 -1660867085 -1743236821 670711705 -1868934292 -1371697596 1177902108 1865244400 -1336161468 -1812116 1020826178 1715692263 -2139469409 211939459 1339329115 -29900334 -929873104 1274137756 81564098 -932121109 905394930 -1611393857 -1123546019
REM
CELL 1.54180   50.00000   50.00000   50.00000   90.00000   90.00000   90.00000
LATT -1
SFAC C  
C      1  0.4574030000000  0.4088920000000  0.5382680000000 1.0
C      1  0.5631740000000  0.4180900000000  0.4766480000000 1.0
C      1  0.4799280000000  0.5220550000000  0.4093130000000 1.0
C      1  0.5263930000000  0.5503790000000  0.4766710000000 1.0
C      1  0.4522180000000  0.4514630000000  0.4402350000000 1.0
C      1  0.4331450000000  0.5862430000000  0.4750180000000 1.0
C      1  0.5238350000000  0.4816600000000  0.4645200000000 1.0
C      1  0.3998450000000  0.4811640000000  0.4891020000000 1.0
C      1  0.5951960000000  0.5267910000000  0.5035540000000 1.0
C      1  0.5809990000000  0.4955710000000  0.5261960000000 1.0
C      1  0.5824440000000  0.4877030000000  0.4619540000000 1.0
C      1  0.5791960000000  0.4640330000000  0.4861490000000 1.0
C      1  0.4563370000000  0.5024990000000  0.4538480000000 1.0
C      1  0.4177270000000  0.5256840000000  0.4774700000000 1.0
C      1  0.5035940000000  0.5617440000000  0.4952330000000 1.0
C      1  0.5265900000000  0.5227870000000  0.3924750000000 1.0
C      1  0.5988550000000  0.4513540000000  0.4643910000000 1.0
C      1  0.5725520000000  0.4921190000000  0.4996620000000 1.0
C      1  0.4838660000000  0.4251310000000  0.5782380000000 1.0
C      1  0.5016210000000  0.4710330000000  0.5686840000000 1.0
C      1  0.4789150000000  0.6104250000000  0.4993410000000 1.0
C      1  0.4234230000000  0.4548190000000  0.4558690000000 1.0
C      1  0.5368250000000  0.5599840000000  0.4272600000000 1.0
C      1  0.4180880000000  0.5638760000000  0.5436880000000 1.0
C      1  0.4593410000000  0.4727670000000  0.4147110000000 1.0
C      1  0.4752900000000  0.5626790000000  0.5893290000000 1.0
C      1  0.5173950000000  0.5253470000000  0.4554910000000 1.0
C      1  0.4561380000000  0.5628080000000  0.5138880000000 1.0
C      1  0.4415310000000  0.5251820000000  0.5820410000000 1.0
C      1  0.5572870000000  0.5699260000000  0.4468490000000 1.0
C      1  0.5111420000000  0.4503750000000  0.4071110000000 1.0
C      1  0.5822750000000  0.5556540000000  0.5013410000000 1.0
C      1  0.4664670000000  0.4240610000000  0.4545610000000 1.0
C      1  0.4416450000000  0.4222830000000  0.5110760000000 1.0
C      1  0.4151140000000  0.5440350000000  0.4486110000000 1.0
C      1  0.4805210000000  0.4477830000000  0.4212270000000 1.0
C      1  0.5336820000000  0.4069950000000  0.5228420000000 1.0
C      1  0.5166240000000  0.5239300000000  0.4953830000000 1.0
C      1  0.5436970000000  0.4629490000000  0.5774590000000 1.0
C      1  0.5168640000000  0.5505970000000  0.5706500000000 1.0
C      1  0.4751670000000  0.4446640000000  0.5300210000000 1.0
C      1  0.4754730000000  0.5514220000000  0.4925220000000 1.0
C      1  0.4883390000000  0.5180940000000  0.5133720000000 1.0
C      1  0.4265460000000  0.5254540000000  0.5086830000000 1.0
C      1  0.4181900000000  0.4955930000000  0.5164630000000 1.0
C      1  0.3844950000000  0.4913800000000  0.5144510000000 1.0
C      1  0.5722840000000  0.5592020000000  0.5398390000000 1.0
C      1  0.5931850000000  0.4559690000000  0.4401230000000 1.0
C      1  0.5177340000000  0.4409800000000  0.5767760000000 1.0
C      1  0.5261280000000  0.4358600000000  0.4774030000000 1.0
C      1  0.5672600000000  0.4796280000000  0.5439280000000 1.0
C      1  0.4577750000000  0.5306820000000  0.5215820000000 1.0
C      1  0.4763770000000  0.5286660000000  0.5499990000000 1.0
C      1  0.5128750000000  0.4075780000000  0.4672420000000 1.0
C      1  0.4860110000000  0.4065930000000  0.4750340000000 1.0
C      1  0.5450710000000  0.4085210000000  0.4563400000000 1.0
C      1  0.4800210000000  0.6019620000000  0.4690370000000 1.0
C      1  0.4837850000000  0.4846260000000  0.4446860000000 1.0
C      1  0.5423490000000  0.5252700000000  0.5260020000000 1.0
C      1  0.4074830000000  0.4783890000000  0.4622430000000 1.0
C      1  0.5758870000000  0.5271180000000  0.5315690000000 1.0
C      1  0.4577780000000  0.5028670000000  0.4204090000000 1.0
C      1  0.5053750000000  0.5685340000000  0.4339440000000 1.0
C      1  0.5678070000000  0.4742730000000  0.4342530000000 1.0
C      1  0.4338350000000  0.4426630000000  0.4846710000000 1.0
C      1  0.4540370000000  0.4688000000000  0.4765560000000 1.0
C      1  0.4975750000000  0.4962400000000  0.5360410000000 1.0
C      1  0.4750900000000  0.4216800000000  0.5049430000000 1.0
C      1  0.5377700000000  0.4602920000000  0.4246360000000 1.0
C      1  0.4265360000000  0.5097490000000  0.4282990000000 1.0
C      1  0.5146030000000  0.4992580000000  0.5653200000000 1.0
C      1  0.5185770000000  0.5513120000000  0.4007390000000 1.0
C      1  0.5274670000000  0.4948140000000  0.5198670000000 1.0
C      1  0.4772960000000  0.6048230000000  0.5233990000000 1.0
C      1  0.4663300000000  0.4983080000000  0.5493300000000 1.0
C      1  0.4172540000000  0.5544230000000  0.5174810000000 1.0
C      1  0.4712020000000  0.5778690000000  0.5403930000000 1.0
C      1  0.5407490000000  0.5202300000000  0.5595950000000 1.0
C      1  0.5218120000000  0.5036440000000  0.6044130000000 1.0
C      1  0.4828900000000  0.3966550000000  0.5260530000000 1.0
C      1  0.4734440000000  0.4439110000000  0.4794510000000 1.0
C      1  0.5285480000000  0.4359790000000  0.4439260000000 1.0
C      1  0.4943410000000  0.4427360000000  0.6014070000000 1.0
C      1  0.4808870000000  0.5317430000000  0.5817640000000 1.0
C      1  0.5559790000000  0.3917680000000  0.5171240000000 1.0
C      1  0.5044880000000  0.4576230000000  0.4788180000000 1.0
C      1  0.5955630000000  0.5141800000000  0.4758980000000 1.0
C      1  0.4568790000000  0.5817860000000  0.4625010000000 1.0
C      1  0.5503410000000  0.5169740000000  0.4542140000000 1.0
C      1  0.5439070000000  0.4707930000000  0.5318720000000 1.0
C      1  0.5449780000000  0.5748920000000  0.5265670000000 1.0
C      1  0.4609580000000  0.5142160000000  0.6030250000000 1.0
C      1  0.5009220000000  0.5790010000000  0.4660070000000 1.0
C      1  0.5606210000000  0.5764430000000  0.4979420000000 1.0
C      1  0.5802630000000  0.5172960000000  0.5638280000000 1.0
C      1  0.4441620000000  0.5316450000000  0.4569620000000 1.0
C      1  0.5572850000000  0.5367050000000  0.4976700000000 1.0
C      1  0.5447030000000  0.4930560000000  0.4227320000000 1.0
C      1  0.4919850000000  0.5518670000000  0.5334480000000 1.0
C      1  0.5223870000000  0.5528880000000  0.5221810000000 1.0
C      1  0.4478500000000  0.5539640000000  0.5792830000000 1.0
C      1  0.5369030000000  0.4758340000000  0.4931690000000 1.0
C      1  0.5407660000000  0.5268270000000  0.4231120000000 1.0
C      1  0.4889630000000  0.5506910000000  0.4099610000000 1.0
C      1  0.5257380000000  0.5791900000000  0.5542880000000 1.0
C      1  0.5057140000000  0.4465390000000  0.5454520000000 1.0
C      1  0.4134590000000  0.5042240000000  0.4514100000000 1.0
C      1  0.5811870000000  0.5544250000000  0.4447970000000 1.0
C      1  0.4931480000000  0.5069550000000  0.4682410000000 1.0
C      1  0.5382370000000  0.4391450000000  0.5235790000000 1.0
C      1  0.4312650000000  0.4529690000000  0.5169700000000 1.0
C      1  0.5148750000000  0.4974310000000  0.4362280000000 1.0
C      1  0.5511520000000  0.4390770000000  0.5550410000000 1.0
C      1  0.5474160000000  0.5709360000000  0.4732010000000 1.0
C      1  0.5691870000000  0.4209150000000  0.5612430000000 1.0
C      1  0.4386620000000  0.5054440000000  0.5611170000000 1.0
C      1  0.4907730000000  0.5447880000000  0.4484920000000 1.0
C      1  0.5476070000000  0.5538690000000  0.5603630000000 1.0
C      1  0.4265420000000  0.4604780000000  0.5464370000000 1.0
C      1  0.5148620000000  0.4398870000000  0.3832630000000 1.0
C      1  0.4197060000000  0.4888730000000  0.5485420000000 1.0
C      1  0.4487050000000  0.4807890000000  0.5139890000000 1.0
C      1  0.5048980000000  0.5079910000000  0.4072780000000 1.0
C      1  0.5349950000000  0.4829610000000  0.6016230000000 1.0
C      1  0.5526980000000  0.4457150000000  0.4935070000000 1.0
C      1  0.4723190000000  0.5201860000000  0.4859460000000 1.0
C      1  0.4599940000000  0.4244370000000  0.5621240000000 1.0
C      1  0.5002660000000  0.4548290000000  0.4451470000000 1.0
C      1  0.4424980000000  0.5687030000000  0.5563640000000 1.0
C      1  0.5314900000000  0.4159510000000  0.5861910000000 1.0
C      1  0.5100060000000  0.3942340000000  0.5305410000000 1.0
C      1  0.5097970000000  0.4545130000000  0.5129920000000 1.0
C      1  0.4489550000000  0.5004940000000  0.4870020000000 1.0
C      1  0.5099950000000  0.5251110000000  0.5846160000000 1.0
C      1  0.5580140000000  0.4930840000000  0.5706850000000 1.0
C      1  0.4831010000000  0.6235590000000  0.4514290000000 1.0
C      1  0.4937650000000  0.5750810000000  0.5656980000000 1.0
C      1  0.4737410000000  0.4683970000000  0.5543630000000 1.0
C      1  0.5791180000000  0.5283490000000  0.4556230000000 1.0
C      1  0.4295020000000  0.5740160000000  0.4994670000000 1.0
C      1  0.4489010000000  0.4507640000000  0.5603780000000 1.0
C      1  0.4819880000000  0.4738970000000  0.5156950000000 1.0
C      1  0.5454530000000  0.5081040000000  0.4867050000000 1.0
C      1  0.4841600000000  0.4820600000000  0.4845300000000 1.0
C      1  0.4653880000000  0.5518570000000  0.4625680000000 1.0
END
