TITL C-3371512-288-51 0.000928798957161103 125000 -962.055142241628 0 0 181 (C1) n - 1
REM
REM in /nfs/bkarasulu/CARBON/AIRSS/Generating-Clusters/AIREBO/with-SteepDescent/Only-C1/SD-CG-opt/Try1-1.4A-POS3A/HFTN-CG
REM
REM
REM
REM
REM
REM ./C.cell (11c1c37f851c82e70ff6c80c92926a4b)
REM
REM compiler GCC version 9.2.1 20190827 (Red Hat 9.2.1-1)
REM options -cpp -mtune=generic -march=x86-64 -g -O0 -fpre-include=/usr/include/finclude/math-vector-fortran.h
REM seed -597716632 1923531423 -1457572926 501166178 786338432 -1014425472 -67159101 -323540358 1912043977 99453868 -1629293902 -219617181 2104250614 -1620477821 1451085244 -420670193 -1532260055 -554056465 -1432206655 1205011989 -2132800297 146582889 -466372888 1133587008 1228447730 781801692 -1951040610 -1822183093 -199029675 978105233 -931982301 -276743288 -1509058536
REM
CELL 1.54180   50.00000   50.00000   50.00000   90.00000   90.00000   90.00000
LATT -1
SFAC C  
C      1  0.4188880000000  0.4971040000000  0.4871250000000 1.0
C      1  0.4690530000000  0.6359170000000  0.4571690000000 1.0
C      1  0.4253430000000  0.5244300000000  0.4270910000000 1.0
C      1  0.5087280000000  0.5060770000000  0.6147170000000 1.0
C      1  0.4839700000000  0.5191980000000  0.5720560000000 1.0
C      1  0.3951160000000  0.5063390000000  0.4456480000000 1.0
C      1  0.4686170000000  0.4383710000000  0.5833090000000 1.0
C      1  0.4709670000000  0.5701710000000  0.5180910000000 1.0
C      1  0.5292230000000  0.4436650000000  0.5220630000000 1.0
C      1  0.5121510000000  0.4536350000000  0.4245010000000 1.0
C      1  0.5237740000000  0.5635920000000  0.5914970000000 1.0
C      1  0.4603630000000  0.4948860000000  0.5762420000000 1.0
C      1  0.5041240000000  0.4829580000000  0.5187320000000 1.0
C      1  0.4035800000000  0.4804370000000  0.5491870000000 1.0
C      1  0.4631400000000  0.4700970000000  0.4807130000000 1.0
C      1  0.4259410000000  0.4638590000000  0.5624290000000 1.0
C      1  0.4276290000000  0.4327380000000  0.5521920000000 1.0
C      1  0.5616650000000  0.4695730000000  0.4407330000000 1.0
C      1  0.5730100000000  0.4579570000000  0.5619490000000 1.0
C      1  0.5006960000000  0.4612650000000  0.5887680000000 1.0
C      1  0.4519400000000  0.5656670000000  0.4711970000000 1.0
C      1  0.5393010000000  0.4442380000000  0.4369750000000 1.0
C      1  0.5142530000000  0.5901930000000  0.5763860000000 1.0
C      1  0.5396170000000  0.5456130000000  0.5687430000000 1.0
C      1  0.4410570000000  0.5652180000000  0.5095270000000 1.0
C      1  0.3966590000000  0.4674040000000  0.5244790000000 1.0
C      1  0.5065400000000  0.5467950000000  0.4121880000000 1.0
C      1  0.4695210000000  0.4219010000000  0.4378360000000 1.0
C      1  0.5072970000000  0.5223900000000  0.4586930000000 1.0
C      1  0.6064260000000  0.4712100000000  0.4734050000000 1.0
C      1  0.4765290000000  0.4749490000000  0.5983910000000 1.0
C      1  0.5659890000000  0.5494530000000  0.5174520000000 1.0
C      1  0.4342590000000  0.5272090000000  0.4549870000000 1.0
C      1  0.4613880000000  0.5190670000000  0.4710340000000 1.0
C      1  0.5234410000000  0.3893860000000  0.4708030000000 1.0
C      1  0.5241500000000  0.5671220000000  0.4492840000000 1.0
C      1  0.4811420000000  0.4597160000000  0.5076330000000 1.0
C      1  0.4726480000000  0.5074020000000  0.4271330000000 1.0
C      1  0.4401530000000  0.5310750000000  0.5932590000000 1.0
C      1  0.3975420000000  0.5209560000000  0.5108010000000 1.0
C      1  0.5304970000000  0.4824950000000  0.4451610000000 1.0
C      1  0.4519530000000  0.4156950000000  0.5424280000000 1.0
C      1  0.4952150000000  0.4338950000000  0.4805750000000 1.0
C      1  0.4124670000000  0.5407200000000  0.5460610000000 1.0
C      1  0.5245860000000  0.5843340000000  0.4767000000000 1.0
C      1  0.5502370000000  0.4005450000000  0.4541440000000 1.0
C      1  0.4621550000000  0.5815470000000  0.5552370000000 1.0
C      1  0.4315630000000  0.4471460000000  0.4872780000000 1.0
C      1  0.5680440000000  0.4568010000000  0.4122090000000 1.0
C      1  0.4564860000000  0.4474780000000  0.4561560000000 1.0
C      1  0.6158530000000  0.4842900000000  0.4985830000000 1.0
C      1  0.4819660000000  0.6123760000000  0.4622240000000 1.0
C      1  0.5444430000000  0.5925690000000  0.5307380000000 1.0
C      1  0.5476270000000  0.4160050000000  0.4310260000000 1.0
C      1  0.5162800000000  0.4841590000000  0.4166140000000 1.0
C      1  0.5295370000000  0.4606990000000  0.6067800000000 1.0
C      1  0.5275960000000  0.4905080000000  0.5924980000000 1.0
C      1  0.5944750000000  0.4381020000000  0.5491990000000 1.0
C      1  0.5842530000000  0.4848380000000  0.4537970000000 1.0
C      1  0.5941450000000  0.5658980000000  0.5232090000000 1.0
C      1  0.4765660000000  0.4754940000000  0.4362570000000 1.0
C      1  0.4652890000000  0.4968870000000  0.5368710000000 1.0
C      1  0.5421720000000  0.5499620000000  0.4662630000000 1.0
C      1  0.4182630000000  0.4434180000000  0.5241590000000 1.0
C      1  0.4830670000000  0.4407700000000  0.4157660000000 1.0
C      1  0.4978690000000  0.4243680000000  0.5737390000000 1.0
C      1  0.4778210000000  0.5386790000000  0.5274520000000 1.0
C      1  0.4867320000000  0.5026530000000  0.4864690000000 1.0
C      1  0.4707560000000  0.5868630000000  0.4537880000000 1.0
C      1  0.4432280000000  0.4912290000000  0.4695400000000 1.0
C      1  0.4947150000000  0.6178900000000  0.5239240000000 1.0
C      1  0.4076750000000  0.4698770000000  0.4958380000000 1.0
C      1  0.4676370000000  0.6014660000000  0.5309570000000 1.0
C      1  0.5530090000000  0.4078560000000  0.4055190000000 1.0
C      1  0.4529660000000  0.4548310000000  0.4231290000000 1.0
C      1  0.5052130000000  0.6096290000000  0.4762070000000 1.0
C      1  0.5896350000000  0.5380800000000  0.5654190000000 1.0
C      1  0.5950700000000  0.5450990000000  0.4725340000000 1.0
C      1  0.5385330000000  0.4171990000000  0.5396480000000 1.0
C      1  0.4974920000000  0.5001880000000  0.5472900000000 1.0
C      1  0.5048110000000  0.5121220000000  0.3904990000000 1.0
C      1  0.4488830000000  0.5266690000000  0.5373490000000 1.0
C      1  0.3999030000000  0.5457640000000  0.4876640000000 1.0
C      1  0.4614400000000  0.4309160000000  0.4840550000000 1.0
C      1  0.4189100000000  0.5888110000000  0.5148680000000 1.0
C      1  0.5886450000000  0.5117020000000  0.4743210000000 1.0
C      1  0.4203390000000  0.4183010000000  0.5013490000000 1.0
C      1  0.4095800000000  0.5077660000000  0.5484150000000 1.0
C      1  0.5702450000000  0.5605500000000  0.5722480000000 1.0
C      1  0.5409430000000  0.5142190000000  0.5256880000000 1.0
C      1  0.5807830000000  0.5526260000000  0.4074490000000 1.0
C      1  0.5185190000000  0.5507130000000  0.5425660000000 1.0
C      1  0.4665950000000  0.5257020000000  0.6005820000000 1.0
C      1  0.5306980000000  0.4938780000000  0.5004280000000 1.0
C      1  0.4483830000000  0.4022140000000  0.4907820000000 1.0
C      1  0.4616900000000  0.5618340000000  0.4326310000000 1.0
C      1  0.5292420000000  0.5601710000000  0.4210470000000 1.0
C      1  0.4477810000000  0.4649360000000  0.5852300000000 1.0
C      1  0.5858410000000  0.5154570000000  0.4406450000000 1.0
C      1  0.5123930000000  0.4585520000000  0.4965370000000 1.0
C      1  0.5871710000000  0.4546540000000  0.4960320000000 1.0
C      1  0.5500190000000  0.3970450000000  0.5237060000000 1.0
C      1  0.4098980000000  0.5578570000000  0.5178500000000 1.0
C      1  0.4781520000000  0.5348700000000  0.4464040000000 1.0
C      1  0.5510380000000  0.4780830000000  0.4782190000000 1.0
C      1  0.5053510000000  0.5299030000000  0.4918890000000 1.0
C      1  0.4954820000000  0.3939510000000  0.4844340000000 1.0
C      1  0.4669590000000  0.3966270000000  0.4460410000000 1.0
C      1  0.5428600000000  0.4483730000000  0.4688820000000 1.0
C      1  0.4417880000000  0.5575490000000  0.5497440000000 1.0
C      1  0.4933260000000  0.5472400000000  0.5635860000000 1.0
C      1  0.5134950000000  0.5619970000000  0.4998590000000 1.0
C      1  0.4731600000000  0.4340110000000  0.5231620000000 1.0
C      1  0.4170510000000  0.4941060000000  0.4227020000000 1.0
C      1  0.4231820000000  0.4632600000000  0.4203950000000 1.0
C      1  0.5038830000000  0.6002960000000  0.5471390000000 1.0
C      1  0.4237690000000  0.5505330000000  0.5766980000000 1.0
C      1  0.5559260000000  0.5925060000000  0.4820890000000 1.0
C      1  0.5737610000000  0.5716470000000  0.4774920000000 1.0
C      1  0.4210290000000  0.5538770000000  0.4644530000000 1.0
C      1  0.5271130000000  0.4223180000000  0.4784200000000 1.0
C      1  0.4311160000000  0.5577080000000  0.4310180000000 1.0
C      1  0.4700740000000  0.3901550000000  0.4732180000000 1.0
C      1  0.4600740000000  0.4930400000000  0.5056200000000 1.0
C      1  0.4523880000000  0.4687630000000  0.5448210000000 1.0
C      1  0.6048240000000  0.4770040000000  0.5240990000000 1.0
C      1  0.3997060000000  0.5158630000000  0.4714530000000 1.0
C      1  0.5323980000000  0.5408070000000  0.6077600000000 1.0
C      1  0.5763160000000  0.4868340000000  0.4940300000000 1.0
C      1  0.4358480000000  0.5140180000000  0.5660900000000 1.0
C      1  0.5051140000000  0.4181940000000  0.5410860000000 1.0
C      1  0.4958140000000  0.4520220000000  0.4517300000000 1.0
C      1  0.5409300000000  0.5635420000000  0.5220520000000 1.0
C      1  0.4733130000000  0.4479040000000  0.5527340000000 1.0
C      1  0.4850230000000  0.5739140000000  0.5701740000000 1.0
C      1  0.5121060000000  0.4838220000000  0.4737820000000 1.0
C      1  0.4296310000000  0.5193440000000  0.5109330000000 1.0
C      1  0.5724830000000  0.4066610000000  0.4732870000000 1.0
C      1  0.4904780000000  0.5215650000000  0.3704990000000 1.0
C      1  0.5627850000000  0.5214530000000  0.5747460000000 1.0
C      1  0.5016850000000  0.5758030000000  0.5286030000000 1.0
C      1  0.5569280000000  0.5246540000000  0.4333000000000 1.0
C      1  0.5427230000000  0.5175890000000  0.5973870000000 1.0
C      1  0.5906790000000  0.4254270000000  0.4790150000000 1.0
C      1  0.5849350000000  0.4846960000000  0.5446610000000 1.0
C      1  0.5482080000000  0.4006060000000  0.4939120000000 1.0
C      1  0.5050840000000  0.5153300000000  0.4243570000000 1.0
C      1  0.4041060000000  0.4457720000000  0.4165030000000 1.0
C      1  0.5532380000000  0.4751530000000  0.5176880000000 1.0
C      1  0.5463700000000  0.4713360000000  0.5469580000000 1.0
C      1  0.5544150000000  0.5476430000000  0.4174170000000 1.0
C      1  0.4423230000000  0.4652490000000  0.5141010000000 1.0
C      1  0.4624100000000  0.4638540000000  0.3673860000000 1.0
C      1  0.5689310000000  0.5110760000000  0.5444010000000 1.0
C      1  0.5418190000000  0.5973140000000  0.5577380000000 1.0
C      1  0.5414720000000  0.5186660000000  0.4799390000000 1.0
C      1  0.4953220000000  0.4147620000000  0.5087040000000 1.0
C      1  0.5360510000000  0.5126890000000  0.4495310000000 1.0
C      1  0.5310270000000  0.4872090000000  0.3886960000000 1.0
C      1  0.6030660000000  0.4469800000000  0.5250680000000 1.0
C      1  0.5656660000000  0.5407500000000  0.4890520000000 1.0
C      1  0.5993090000000  0.5346850000000  0.4188610000000 1.0
C      1  0.4381490000000  0.3980570000000  0.5214710000000 1.0
C      1  0.4457300000000  0.4910730000000  0.4383180000000 1.0
C      1  0.5245930000000  0.4374830000000  0.5843360000000 1.0
C      1  0.5169560000000  0.4771720000000  0.5630700000000 1.0
C      1  0.5082830000000  0.5237160000000  0.5252010000000 1.0
C      1  0.5043340000000  0.4520830000000  0.5439000000000 1.0
C      1  0.4822860000000  0.5583050000000  0.4085130000000 1.0
C      1  0.4819560000000  0.5675540000000  0.4872940000000 1.0
C      1  0.5901350000000  0.5345030000000  0.5344790000000 1.0
C      1  0.4462000000000  0.5392920000000  0.4918860000000 1.0
C      1  0.4771840000000  0.4038810000000  0.5561720000000 1.0
C      1  0.4818650000000  0.5030140000000  0.6115340000000 1.0
C      1  0.5443300000000  0.4399680000000  0.5615510000000 1.0
C      1  0.5227880000000  0.5166380000000  0.5629610000000 1.0
C      1  0.4652930000000  0.4567030000000  0.3914780000000 1.0
C      1  0.5144470000000  0.6182470000000  0.5022500000000 1.0
C      1  0.4937570000000  0.5633610000000  0.4564440000000 1.0
C      1  0.5419030000000  0.6079700000000  0.5067170000000 1.0
C      1  0.5546720000000  0.4457560000000  0.5006630000000 1.0
END
