TITL C-3371507-1587-32 -0.00245293890619617 125000 -717.246185096255 0 0 135 (C1) n - 1
REM
REM in /nfs/bkarasulu/CARBON/AIRSS/Generating-Clusters/AIREBO/with-SteepDescent/Only-C1/SD-CG-opt/Try1-1.4A-POS3A/HFTN-CG
REM
REM
REM
REM
REM
REM ./C.cell (11c1c37f851c82e70ff6c80c92926a4b)
REM
REM compiler GCC version 9.2.1 20190827 (Red Hat 9.2.1-1)
REM options -cpp -mtune=generic -march=x86-64 -g -O0 -fpre-include=/usr/include/finclude/math-vector-fortran.h
REM seed 1214779532 -924672965 254261911 1456718253 811549842 -714593719 -1710389175 -1784660557 1942339126 -432351096 -1644709864 959537984 -623029713 -696463933 -1355135089 869055995 -423988986 -1329329153 -1353103980 -2050341623 -144795626 1161481255 -1869353827 945228938 216183137 1116232420 -497580791 1209854297 1706266961 -1147295803 -1713815479 -490797034 663186856
REM
CELL 1.54180   50.00000   50.00000   50.00000   90.00000   90.00000   90.00000
LATT -1
SFAC C  
C      1  0.4821920000000  0.5022790000000  0.5474470000000 1.0
C      1  0.5013110000000  0.5591010000000  0.5862170000000 1.0
C      1  0.4594720000000  0.5654440000000  0.5645200000000 1.0
C      1  0.5765010000000  0.4700500000000  0.4697050000000 1.0
C      1  0.4306330000000  0.5370940000000  0.4281670000000 1.0
C      1  0.5046730000000  0.5028300000000  0.5948970000000 1.0
C      1  0.5561170000000  0.4604760000000  0.4478170000000 1.0
C      1  0.4633570000000  0.5682930000000  0.4836300000000 1.0
C      1  0.4453640000000  0.4899440000000  0.4316110000000 1.0
C      1  0.5363070000000  0.4270180000000  0.5534110000000 1.0
C      1  0.5108760000000  0.5713690000000  0.4233080000000 1.0
C      1  0.5339020000000  0.5251630000000  0.5502780000000 1.0
C      1  0.5593010000000  0.5873200000000  0.5104610000000 1.0
C      1  0.4844890000000  0.4141330000000  0.4995590000000 1.0
C      1  0.4916600000000  0.4979930000000  0.5088280000000 1.0
C      1  0.4872830000000  0.4742940000000  0.4650450000000 1.0
C      1  0.5507560000000  0.5354570000000  0.5063350000000 1.0
C      1  0.4845070000000  0.4369570000000  0.4789310000000 1.0
C      1  0.4720100000000  0.5218180000000  0.5215510000000 1.0
C      1  0.4880070000000  0.5374570000000  0.5655400000000 1.0
C      1  0.4601560000000  0.5435760000000  0.4179810000000 1.0
C      1  0.4787920000000  0.4829430000000  0.5908710000000 1.0
C      1  0.5844680000000  0.5363110000000  0.5096260000000 1.0
C      1  0.5408600000000  0.4762250000000  0.5329430000000 1.0
C      1  0.5157140000000  0.5038010000000  0.4920760000000 1.0
C      1  0.4448910000000  0.5196160000000  0.5419580000000 1.0
C      1  0.4641350000000  0.5722810000000  0.4511620000000 1.0
C      1  0.5049250000000  0.4532970000000  0.5957030000000 1.0
C      1  0.4534810000000  0.4202880000000  0.5413990000000 1.0
C      1  0.5465020000000  0.4815540000000  0.4247630000000 1.0
C      1  0.5064360000000  0.4096700000000  0.5480760000000 1.0
C      1  0.4976620000000  0.4622040000000  0.5468130000000 1.0
C      1  0.4887750000000  0.4690520000000  0.5163630000000 1.0
C      1  0.4242810000000  0.5250090000000  0.4540550000000 1.0
C      1  0.6110130000000  0.5004850000000  0.4866020000000 1.0
C      1  0.4126170000000  0.4935670000000  0.4542480000000 1.0
C      1  0.4844810000000  0.4262960000000  0.4472920000000 1.0
C      1  0.4617210000000  0.4615160000000  0.4737550000000 1.0
C      1  0.5001660000000  0.5566910000000  0.4585650000000 1.0
C      1  0.4407290000000  0.4663060000000  0.4982590000000 1.0
C      1  0.4932830000000  0.5455890000000  0.5333240000000 1.0
C      1  0.4541340000000  0.4615690000000  0.4200090000000 1.0
C      1  0.4139440000000  0.5224240000000  0.5310470000000 1.0
C      1  0.4790680000000  0.4021420000000  0.5538520000000 1.0
C      1  0.4342510000000  0.4673870000000  0.4545380000000 1.0
C      1  0.4648860000000  0.4900640000000  0.5659870000000 1.0
C      1  0.4816730000000  0.6079880000000  0.4548120000000 1.0
C      1  0.5780650000000  0.4344430000000  0.5239810000000 1.0
C      1  0.5805550000000  0.5405590000000  0.5404850000000 1.0
C      1  0.5454880000000  0.4770490000000  0.5735530000000 1.0
C      1  0.4174290000000  0.5376630000000  0.4822200000000 1.0
C      1  0.5205580000000  0.4598810000000  0.4285220000000 1.0
C      1  0.5615000000000  0.5056230000000  0.5716230000000 1.0
C      1  0.4653610000000  0.5352810000000  0.4915280000000 1.0
C      1  0.5577510000000  0.4525720000000  0.5604040000000 1.0
C      1  0.5113470000000  0.4390020000000  0.5338590000000 1.0
C      1  0.4405400000000  0.4860400000000  0.5474320000000 1.0
C      1  0.4959080000000  0.4711980000000  0.4107560000000 1.0
C      1  0.4073260000000  0.4636240000000  0.5199130000000 1.0
C      1  0.5089440000000  0.5108820000000  0.5621380000000 1.0
C      1  0.5101160000000  0.4120770000000  0.5145190000000 1.0
C      1  0.5584450000000  0.5625240000000  0.4888920000000 1.0
C      1  0.4077130000000  0.4682070000000  0.4902870000000 1.0
C      1  0.4324450000000  0.4355770000000  0.4671100000000 1.0
C      1  0.5904070000000  0.5539380000000  0.4810820000000 1.0
C      1  0.5475280000000  0.4135340000000  0.4766390000000 1.0
C      1  0.5877420000000  0.5199590000000  0.5573650000000 1.0
C      1  0.4487350000000  0.5652810000000  0.5117180000000 1.0
C      1  0.4075320000000  0.5123520000000  0.5016950000000 1.0
C      1  0.5466380000000  0.5274320000000  0.5895320000000 1.0
C      1  0.3930370000000  0.5016330000000  0.4742770000000 1.0
C      1  0.5195100000000  0.5317640000000  0.5944190000000 1.0
C      1  0.4945110000000  0.5362360000000  0.4813400000000 1.0
C      1  0.4529110000000  0.4195120000000  0.4580350000000 1.0
C      1  0.5193590000000  0.6051550000000  0.4743680000000 1.0
C      1  0.5898730000000  0.4424840000000  0.4805590000000 1.0
C      1  0.4273220000000  0.4350600000000  0.4975350000000 1.0
C      1  0.5471700000000  0.5090250000000  0.4912860000000 1.0
C      1  0.5121890000000  0.5844680000000  0.5394580000000 1.0
C      1  0.4682300000000  0.5095080000000  0.4452340000000 1.0
C      1  0.5267480000000  0.4861510000000  0.4661320000000 1.0
C      1  0.4814920000000  0.4544810000000  0.5724190000000 1.0
C      1  0.5191670000000  0.4809160000000  0.5548990000000 1.0
C      1  0.5565860000000  0.5041450000000  0.5380060000000 1.0
C      1  0.4577030000000  0.4679220000000  0.5243340000000 1.0
C      1  0.5037720000000  0.5258780000000  0.4056300000000 1.0
C      1  0.5187420000000  0.5152110000000  0.4502550000000 1.0
C      1  0.5099940000000  0.4525790000000  0.4954790000000 1.0
C      1  0.4852460000000  0.5527820000000  0.4106200000000 1.0
C      1  0.4570200000000  0.4500040000000  0.5527570000000 1.0
C      1  0.4286100000000  0.5451390000000  0.5103760000000 1.0
C      1  0.5556780000000  0.5499900000000  0.5476180000000 1.0
C      1  0.5366760000000  0.4031160000000  0.5012900000000 1.0
C      1  0.4925230000000  0.5843840000000  0.4767700000000 1.0
C      1  0.4910980000000  0.5764530000000  0.5586400000000 1.0
C      1  0.5964060000000  0.5074690000000  0.5083720000000 1.0
C      1  0.4857350000000  0.5015380000000  0.4201570000000 1.0
C      1  0.5374630000000  0.5677600000000  0.4442520000000 1.0
C      1  0.5623590000000  0.4369010000000  0.4869130000000 1.0
C      1  0.4338870000000  0.4982570000000  0.4895210000000 1.0
C      1  0.4110900000000  0.4886360000000  0.5336170000000 1.0
C      1  0.4505500000000  0.5173670000000  0.4728780000000 1.0
C      1  0.5684110000000  0.5235520000000  0.4410400000000 1.0
C      1  0.4543970000000  0.5346340000000  0.5683970000000 1.0
C      1  0.5789350000000  0.4840920000000  0.5242700000000 1.0
C      1  0.5355900000000  0.5949000000000  0.5209120000000 1.0
C      1  0.5121860000000  0.4279200000000  0.4356320000000 1.0
C      1  0.5993200000000  0.4901040000000  0.4639850000000 1.0
C      1  0.5470670000000  0.4257540000000  0.5221320000000 1.0
C      1  0.4375160000000  0.5080940000000  0.3834050000000 1.0
C      1  0.5142010000000  0.5393170000000  0.4341540000000 1.0
C      1  0.4447400000000  0.5143640000000  0.4093110000000 1.0
C      1  0.4250840000000  0.4573650000000  0.5590240000000 1.0
C      1  0.5192060000000  0.4963730000000  0.4125170000000 1.0
C      1  0.4258360000000  0.4374050000000  0.5314290000000 1.0
C      1  0.5077270000000  0.5814170000000  0.5070400000000 1.0
C      1  0.5696550000000  0.5036770000000  0.4220200000000 1.0
C      1  0.4844700000000  0.5850190000000  0.4351790000000 1.0
C      1  0.5218070000000  0.4757850000000  0.5953490000000 1.0
C      1  0.5379520000000  0.4341150000000  0.4554130000000 1.0
C      1  0.5656350000000  0.5532670000000  0.4569500000000 1.0
C      1  0.4690560000000  0.5686080000000  0.5336850000000 1.0
C      1  0.4916360000000  0.5050540000000  0.4680920000000 1.0
C      1  0.5314330000000  0.5754420000000  0.4745350000000 1.0
C      1  0.5420330000000  0.4556510000000  0.5067100000000 1.0
C      1  0.5479910000000  0.5178420000000  0.4617800000000 1.0
C      1  0.5241430000000  0.5415350000000  0.5246280000000 1.0
C      1  0.4623470000000  0.4062930000000  0.5136020000000 1.0
C      1  0.4639240000000  0.4398460000000  0.4257900000000 1.0
C      1  0.5611930000000  0.4813560000000  0.4953480000000 1.0
C      1  0.5778070000000  0.4573110000000  0.5399430000000 1.0
C      1  0.5142990000000  0.4576050000000  0.4621210000000 1.0
C      1  0.4971880000000  0.5758090000000  0.6112140000000 1.0
C      1  0.5165220000000  0.5525820000000  0.4948110000000 1.0
C      1  0.4381990000000  0.5289500000000  0.5935450000000 1.0
END
