TITL C-3371509-8222-61 0.000718951914534656 125000 -606.679601735498 0 0 112 (C1) n - 1
REM
REM in /nfs/bkarasulu/CARBON/AIRSS/Generating-Clusters/AIREBO/with-SteepDescent/Only-C1/SD-CG-opt/Try1-1.4A-POS3A/HFTN-CG
REM
REM
REM
REM
REM
REM ./C.cell (11c1c37f851c82e70ff6c80c92926a4b)
REM
REM compiler GCC version 9.2.1 20190827 (Red Hat 9.2.1-1)
REM options -cpp -mtune=generic -march=x86-64 -g -O0 -fpre-include=/usr/include/finclude/math-vector-fortran.h
REM seed 998563799 1691035033 -546924654 -847137155 -553794544 -864909845 1170633343 -645993017 882566860 1138888221 -1670206049 -1626947355 -326665977 -1619044298 -547824621 -546425504 -241698188 1626199902 688658790 -806200581 -495549136 -1501363187 -1374690925 1122737161 -1315302853 491703971 -1786904022 -707787763 -115833979 256327471 577159940 -1230133607 -216639678
REM
CELL 1.54180   50.00000   50.00000   50.00000   90.00000   90.00000   90.00000
LATT -1
SFAC C  
C      1  0.4770420000000  0.4506370000000  0.5527710000000 1.0
C      1  0.4205140000000  0.5188190000000  0.5383260000000 1.0
C      1  0.4827380000000  0.4349730000000  0.4183510000000 1.0
C      1  0.4605130000000  0.4203610000000  0.4395380000000 1.0
C      1  0.5164510000000  0.5017770000000  0.4559570000000 1.0
C      1  0.5012730000000  0.4320330000000  0.4760570000000 1.0
C      1  0.5409820000000  0.5280230000000  0.5672520000000 1.0
C      1  0.5409350000000  0.5504450000000  0.5471030000000 1.0
C      1  0.5528040000000  0.5534420000000  0.5236210000000 1.0
C      1  0.4973770000000  0.5241440000000  0.5559580000000 1.0
C      1  0.4888960000000  0.5482290000000  0.4540220000000 1.0
C      1  0.5658410000000  0.4995120000000  0.4413110000000 1.0
C      1  0.4996570000000  0.4797460000000  0.5227550000000 1.0
C      1  0.4489750000000  0.5130800000000  0.4570610000000 1.0
C      1  0.4680500000000  0.5780850000000  0.5670740000000 1.0
C      1  0.4905740000000  0.5790010000000  0.4628700000000 1.0
C      1  0.4443070000000  0.5645680000000  0.4714660000000 1.0
C      1  0.4583950000000  0.4383760000000  0.5325830000000 1.0
C      1  0.5364000000000  0.4556650000000  0.5802970000000 1.0
C      1  0.4375980000000  0.4828240000000  0.5361670000000 1.0
C      1  0.5183990000000  0.5323400000000  0.5886580000000 1.0
C      1  0.5613810000000  0.5031480000000  0.5271970000000 1.0
C      1  0.5783650000000  0.4701680000000  0.5024080000000 1.0
C      1  0.4248120000000  0.5026420000000  0.4763620000000 1.0
C      1  0.4615640000000  0.4874830000000  0.4742690000000 1.0
C      1  0.5473780000000  0.4797060000000  0.5101300000000 1.0
C      1  0.4795560000000  0.4359890000000  0.4984330000000 1.0
C      1  0.4465640000000  0.4795560000000  0.5037410000000 1.0
C      1  0.5337180000000  0.5847240000000  0.4878670000000 1.0
C      1  0.4995030000000  0.4267370000000  0.4459810000000 1.0
C      1  0.4818490000000  0.5613860000000  0.5182120000000 1.0
C      1  0.6146630000000  0.5171830000000  0.5115350000000 1.0
C      1  0.5028370000000  0.5920190000000  0.5330860000000 1.0
C      1  0.4073650000000  0.4875280000000  0.5451290000000 1.0
C      1  0.5808010000000  0.5208600000000  0.5112150000000 1.0
C      1  0.4843770000000  0.5491940000000  0.5724000000000 1.0
C      1  0.4898700000000  0.4241900000000  0.5258490000000 1.0
C      1  0.5824970000000  0.4481590000000  0.4826330000000 1.0
C      1  0.4438980000000  0.5740820000000  0.5536390000000 1.0
C      1  0.4257770000000  0.5034340000000  0.5681980000000 1.0
C      1  0.5641970000000  0.5427270000000  0.4933990000000 1.0
C      1  0.4793190000000  0.5334470000000  0.4898270000000 1.0
C      1  0.5311140000000  0.4674410000000  0.4023710000000 1.0
C      1  0.4906630000000  0.5129820000000  0.5879220000000 1.0
C      1  0.4925870000000  0.4866470000000  0.4841780000000 1.0
C      1  0.4608360000000  0.5042050000000  0.5452090000000 1.0
C      1  0.5467010000000  0.5645350000000  0.4744230000000 1.0
C      1  0.5694010000000  0.4316450000000  0.5166200000000 1.0
C      1  0.5421810000000  0.5202350000000  0.4803180000000 1.0
C      1  0.5744650000000  0.4571530000000  0.5321890000000 1.0
C      1  0.4388050000000  0.4885930000000  0.5958450000000 1.0
C      1  0.4870550000000  0.4017610000000  0.4744940000000 1.0
C      1  0.5710980000000  0.4739450000000  0.5525750000000 1.0
C      1  0.4497580000000  0.4309030000000  0.4864000000000 1.0
C      1  0.5130580000000  0.5332860000000  0.4435830000000 1.0
C      1  0.5210030000000  0.4355130000000  0.5797210000000 1.0
C      1  0.4172420000000  0.4560420000000  0.4566740000000 1.0
C      1  0.4628390000000  0.4678010000000  0.4492900000000 1.0
C      1  0.4348170000000  0.5157230000000  0.4096190000000 1.0
C      1  0.5020890000000  0.5074760000000  0.5093410000000 1.0
C      1  0.5382560000000  0.4920650000000  0.4326170000000 1.0
C      1  0.4531330000000  0.5093870000000  0.4271480000000 1.0
C      1  0.5056860000000  0.4929720000000  0.5658180000000 1.0
C      1  0.5039520000000  0.4323840000000  0.5551530000000 1.0
C      1  0.4810750000000  0.5015940000000  0.4196110000000 1.0
C      1  0.4836820000000  0.5933050000000  0.5063640000000 1.0
C      1  0.5891680000000  0.5418990000000  0.4703280000000 1.0
C      1  0.4712930000000  0.3975410000000  0.4546840000000 1.0
C      1  0.4777030000000  0.4656070000000  0.5048770000000 1.0
C      1  0.4477000000000  0.5448390000000  0.5821260000000 1.0
C      1  0.4543240000000  0.4518800000000  0.4215940000000 1.0
C      1  0.4562760000000  0.5961480000000  0.4924760000000 1.0
C      1  0.4831990000000  0.4803040000000  0.5485100000000 1.0
C      1  0.5905930000000  0.4238640000000  0.4964960000000 1.0
C      1  0.4431130000000  0.4464950000000  0.5109140000000 1.0
C      1  0.5431300000000  0.4298980000000  0.5062410000000 1.0
C      1  0.5795420000000  0.4759880000000  0.4476710000000 1.0
C      1  0.5070240000000  0.4548790000000  0.4314960000000 1.0
C      1  0.5149080000000  0.4612570000000  0.4806670000000 1.0
C      1  0.5165350000000  0.5594270000000  0.5681550000000 1.0
C      1  0.4599080000000  0.5389470000000  0.4661620000000 1.0
C      1  0.4314250000000  0.5098140000000  0.5073320000000 1.0
C      1  0.5400820000000  0.5470250000000  0.4507540000000 1.0
C      1  0.5130110000000  0.4936280000000  0.4097380000000 1.0
C      1  0.5619410000000  0.4479720000000  0.4555490000000 1.0
C      1  0.4228400000000  0.5491320000000  0.5430640000000 1.0
C      1  0.4121070000000  0.4804840000000  0.4677290000000 1.0
C      1  0.5641460000000  0.5252210000000  0.4567000000000 1.0
C      1  0.5267120000000  0.4676540000000  0.5297980000000 1.0
C      1  0.4381860000000  0.5721500000000  0.5006120000000 1.0
C      1  0.5217450000000  0.4366330000000  0.5267660000000 1.0
C      1  0.4992680000000  0.5602830000000  0.4902870000000 1.0
C      1  0.4975250000000  0.5839420000000  0.5584340000000 1.0
C      1  0.4634600000000  0.5167280000000  0.5136960000000 1.0
C      1  0.5095780000000  0.5226350000000  0.4819190000000 1.0
C      1  0.5389890000000  0.4583470000000  0.4326380000000 1.0
C      1  0.5529420000000  0.5021500000000  0.5580510000000 1.0
C      1  0.4929060000000  0.4811140000000  0.4424890000000 1.0
C      1  0.5396680000000  0.4419850000000  0.4805890000000 1.0
C      1  0.5317460000000  0.4785690000000  0.5599210000000 1.0
C      1  0.5964100000000  0.4932450000000  0.5012020000000 1.0
C      1  0.4583830000000  0.5084290000000  0.5788590000000 1.0
C      1  0.4600750000000  0.5375940000000  0.5516300000000 1.0
C      1  0.5321970000000  0.4897900000000  0.4843840000000 1.0
C      1  0.4449390000000  0.4406350000000  0.4585340000000 1.0
C      1  0.5049420000000  0.5246770000000  0.4151440000000 1.0
C      1  0.4611100000000  0.5889200000000  0.4625160000000 1.0
C      1  0.5074200000000  0.5984070000000  0.4826210000000 1.0
C      1  0.5187320000000  0.5757680000000  0.5134780000000 1.0
C      1  0.4913230000000  0.5301710000000  0.5278050000000 1.0
C      1  0.5715490000000  0.4230870000000  0.4420160000000 1.0
C      1  0.4507210000000  0.5567980000000  0.5251600000000 1.0
END
