TITL C-3371507-1587-41 -0.000640598902742295 125000 -499.958863230347 0 0 91 (C1) n - 1
REM
REM in /nfs/bkarasulu/CARBON/AIRSS/Generating-Clusters/AIREBO/with-SteepDescent/Only-C1/SD-CG-opt/Try1-1.4A-POS3A/HFTN-CG
REM
REM
REM
REM
REM
REM ./C.cell (11c1c37f851c82e70ff6c80c92926a4b)
REM
REM compiler GCC version 9.2.1 20190827 (Red Hat 9.2.1-1)
REM options -cpp -mtune=generic -march=x86-64 -g -O0 -fpre-include=/usr/include/finclude/math-vector-fortran.h
REM seed -1658264133 1472772809 -1452338371 -203813343 -380733132 -996727186 -539130034 -2106987032 260480875 1499784291 -1188507572 -1173115294 -1587321678 1810643583 -1658334927 1745799167 237333493 -963812516 1522657013 -154704657 -262013298 394729431 -1213308192 841266506 2104803280 -906207063 -594797436 949429056 -1237932706 958377432 -908224755 1896539966 1380081771
REM
CELL 1.54180   50.00000   50.00000   50.00000   90.00000   90.00000   90.00000
LATT -1
SFAC C  
C      1  0.4092680000000  0.5472830000000  0.5079390000000 1.0
C      1  0.5323490000000  0.4798890000000  0.5173710000000 1.0
C      1  0.5246830000000  0.5410770000000  0.5515700000000 1.0
C      1  0.4892650000000  0.5671060000000  0.4524050000000 1.0
C      1  0.4802540000000  0.5465170000000  0.4915120000000 1.0
C      1  0.4441460000000  0.4407170000000  0.5282800000000 1.0
C      1  0.5227720000000  0.4810330000000  0.4785530000000 1.0
C      1  0.4808960000000  0.5085680000000  0.5166460000000 1.0
C      1  0.5625300000000  0.4226860000000  0.5452730000000 1.0
C      1  0.4610100000000  0.4229920000000  0.4739740000000 1.0
C      1  0.4980060000000  0.4709820000000  0.4965350000000 1.0
C      1  0.5390010000000  0.4125390000000  0.5354820000000 1.0
C      1  0.5228470000000  0.4869650000000  0.5772880000000 1.0
C      1  0.4693690000000  0.5601650000000  0.4344460000000 1.0
C      1  0.5471160000000  0.4514520000000  0.5059860000000 1.0
C      1  0.5029090000000  0.6001600000000  0.5043140000000 1.0
C      1  0.4202800000000  0.5308080000000  0.5276440000000 1.0
C      1  0.4761880000000  0.4762710000000  0.5690570000000 1.0
C      1  0.5380880000000  0.4731540000000  0.5502020000000 1.0
C      1  0.4517750000000  0.5534560000000  0.5838400000000 1.0
C      1  0.4727480000000  0.5103740000000  0.5656190000000 1.0
C      1  0.4312370000000  0.4492820000000  0.4779980000000 1.0
C      1  0.5075970000000  0.4165100000000  0.4856880000000 1.0
C      1  0.5027430000000  0.4663780000000  0.5712330000000 1.0
C      1  0.4633890000000  0.4629260000000  0.5419040000000 1.0
C      1  0.5142720000000  0.5035080000000  0.5125530000000 1.0
C      1  0.5643740000000  0.4530120000000  0.5424590000000 1.0
C      1  0.5177340000000  0.4208830000000  0.5503850000000 1.0
C      1  0.5055030000000  0.5273080000000  0.5317240000000 1.0
C      1  0.5814700000000  0.4816270000000  0.5387860000000 1.0
C      1  0.4527480000000  0.5817830000000  0.4636750000000 1.0
C      1  0.5061280000000  0.4493710000000  0.4424740000000 1.0
C      1  0.4240190000000  0.4649850000000  0.4539250000000 1.0
C      1  0.4064040000000  0.4814730000000  0.5001120000000 1.0
C      1  0.4258000000000  0.5496360000000  0.4851780000000 1.0
C      1  0.5275780000000  0.5293110000000  0.4984430000000 1.0
C      1  0.5781970000000  0.4661910000000  0.4230470000000 1.0
C      1  0.4513730000000  0.5346310000000  0.4931120000000 1.0
C      1  0.4779000000000  0.4179830000000  0.4947810000000 1.0
C      1  0.5109380000000  0.4253340000000  0.4546490000000 1.0
C      1  0.4882380000000  0.5477190000000  0.5197230000000 1.0
C      1  0.4366860000000  0.5596790000000  0.4602220000000 1.0
C      1  0.4507240000000  0.5355850000000  0.4424750000000 1.0
C      1  0.5107550000000  0.5006240000000  0.4556980000000 1.0
C      1  0.5023240000000  0.5257210000000  0.4770390000000 1.0
C      1  0.4708220000000  0.5443190000000  0.5652120000000 1.0
C      1  0.5016470000000  0.5082420000000  0.4252080000000 1.0
C      1  0.4343070000000  0.4913600000000  0.4969040000000 1.0
C      1  0.5262780000000  0.5743140000000  0.4656320000000 1.0
C      1  0.5168440000000  0.5938480000000  0.4816570000000 1.0
C      1  0.4504640000000  0.4941710000000  0.5455220000000 1.0
C      1  0.4787590000000  0.5770990000000  0.4823770000000 1.0
C      1  0.5253380000000  0.4717110000000  0.4473280000000 1.0
C      1  0.5065770000000  0.5788530000000  0.5792890000000 1.0
C      1  0.5505580000000  0.4881230000000  0.4904910000000 1.0
C      1  0.5004240000000  0.5040490000000  0.5843950000000 1.0
C      1  0.5931800000000  0.5252710000000  0.4735220000000 1.0
C      1  0.5144840000000  0.5467970000000  0.4532910000000 1.0
C      1  0.4250670000000  0.4540890000000  0.5077240000000 1.0
C      1  0.5730290000000  0.4687000000000  0.4808900000000 1.0
C      1  0.4268280000000  0.4763500000000  0.5334530000000 1.0
C      1  0.5673040000000  0.5237630000000  0.4581670000000 1.0
C      1  0.5800140000000  0.5127170000000  0.5293990000000 1.0
C      1  0.5345700000000  0.4196030000000  0.5065820000000 1.0
C      1  0.4716930000000  0.4320720000000  0.5180190000000 1.0
C      1  0.5637940000000  0.5365420000000  0.5129970000000 1.0
C      1  0.5441800000000  0.5221070000000  0.5663600000000 1.0
C      1  0.5572310000000  0.5014010000000  0.5519010000000 1.0
C      1  0.5515950000000  0.4832450000000  0.4357940000000 1.0
C      1  0.4466280000000  0.4849300000000  0.4436040000000 1.0
C      1  0.4611240000000  0.4528040000000  0.4621670000000 1.0
C      1  0.4787370000000  0.5860240000000  0.5152160000000 1.0
C      1  0.4827930000000  0.4987640000000  0.4841450000000 1.0
C      1  0.5556970000000  0.5177600000000  0.4864910000000 1.0
C      1  0.5513920000000  0.5140620000000  0.4375320000000 1.0
C      1  0.4471340000000  0.5125630000000  0.5175300000000 1.0
C      1  0.5120230000000  0.4508350000000  0.5465980000000 1.0
C      1  0.4747700000000  0.5653560000000  0.5387510000000 1.0
C      1  0.4620460000000  0.5201390000000  0.4677270000000 1.0
C      1  0.4499480000000  0.5109730000000  0.4249260000000 1.0
C      1  0.5166020000000  0.4458450000000  0.4961210000000 1.0
C      1  0.4760390000000  0.4892340000000  0.4266030000000 1.0
C      1  0.5376380000000  0.5495630000000  0.5238360000000 1.0
C      1  0.4910450000000  0.4562880000000  0.5248820000000 1.0
C      1  0.5770840000000  0.4624960000000  0.5122360000000 1.0
C      1  0.5922960000000  0.5257660000000  0.5004850000000 1.0
C      1  0.4795770000000  0.4586530000000  0.4388600000000 1.0
C      1  0.4541730000000  0.4820030000000  0.4766340000000 1.0
C      1  0.5271100000000  0.5274750000000  0.4314150000000 1.0
C      1  0.5755890000000  0.4677380000000  0.4542310000000 1.0
C      1  0.5019320000000  0.5563270000000  0.5666770000000 1.0
END
