TITL C-2778422-5617-1406 -0.000392097838471233 125000 -548.223472679798 0 0 94 (C1) n - 1
REM
REM in /home/nfs/bkarasulu/CARBON/AIRSS/Generating-Clusters/REBO/Only-C1/SD-CG/HFTN-CG
REM
REM
REM
REM
REM
REM ./C.cell (11c1c37f851c82e70ff6c80c92926a4b)
REM
REM compiler GCC version 9.2.1 20190827 (Red Hat 9.2.1-1)
REM options -cpp -mtune=generic -march=x86-64 -g -O0 -fpre-include=/usr/include/finclude/math-vector-fortran.h
REM seed -1645362728 664843816 -158260589 -137184798 1322559474 600037677 -337288066 -1812092943 -1607133142 1819468966 -2069988022 728996322 1252877364 2138606033 -931503474 -2055874325 -260473796 1262109818 1539204917 1143054963 -203572106 2007886454 -494814501 -1150790607 744485012 -1333969036 -2098690743 -545157755 1196163650 427197417 1005639351 -1281341474 388279782
REM
CELL 1.54180   50.00000   50.00000   50.00000   90.00000   90.00000   90.00000
LATT -1
SFAC C  
C      1  0.5653450000000  0.5438110000000  0.4842140000000 1.0
C      1  0.5119370000000  0.5076030000000  0.5431560000000 1.0
C      1  0.5065270000000  0.5685940000000  0.5483790000000 1.0
C      1  0.4519210000000  0.4356770000000  0.4530990000000 1.0
C      1  0.4741250000000  0.5620020000000  0.5421610000000 1.0
C      1  0.5130900000000  0.5389780000000  0.4450500000000 1.0
C      1  0.4991850000000  0.4897460000000  0.5855000000000 1.0
C      1  0.4580060000000  0.4666210000000  0.5008960000000 1.0
C      1  0.5319800000000  0.4702560000000  0.5170690000000 1.0
C      1  0.4696970000000  0.5670320000000  0.4766690000000 1.0
C      1  0.4464690000000  0.4512460000000  0.5467810000000 1.0
C      1  0.5202420000000  0.4737470000000  0.4608720000000 1.0
C      1  0.5864540000000  0.4694260000000  0.4270390000000 1.0
C      1  0.5167220000000  0.4883690000000  0.4089250000000 1.0
C      1  0.4171380000000  0.5358120000000  0.4499160000000 1.0
C      1  0.5002010000000  0.5799320000000  0.5186190000000 1.0
C      1  0.4662120000000  0.4247030000000  0.5386890000000 1.0
C      1  0.5176350000000  0.5584430000000  0.4660380000000 1.0
C      1  0.5346290000000  0.4897670000000  0.4369540000000 1.0
C      1  0.5298140000000  0.4423890000000  0.4648970000000 1.0
C      1  0.5691490000000  0.4808480000000  0.5541540000000 1.0
C      1  0.4802730000000  0.4389870000000  0.4517410000000 1.0
C      1  0.4262110000000  0.5482770000000  0.5536100000000 1.0
C      1  0.4092820000000  0.4935360000000  0.4949240000000 1.0
C      1  0.5548620000000  0.4958840000000  0.5779650000000 1.0
C      1  0.4943400000000  0.4642290000000  0.5552700000000 1.0
C      1  0.5480170000000  0.5363890000000  0.5600590000000 1.0
C      1  0.5792680000000  0.5075750000000  0.4934510000000 1.0
C      1  0.4534470000000  0.5092140000000  0.4694990000000 1.0
C      1  0.5061860000000  0.4546290000000  0.5146130000000 1.0
C      1  0.4751190000000  0.4874560000000  0.4440190000000 1.0
C      1  0.5380870000000  0.4778320000000  0.5467360000000 1.0
C      1  0.5234880000000  0.5088450000000  0.5754520000000 1.0
C      1  0.5794870000000  0.4718570000000  0.5272430000000 1.0
C      1  0.4093820000000  0.4690560000000  0.4799270000000 1.0
C      1  0.5523020000000  0.5147060000000  0.4744510000000 1.0
C      1  0.5376650000000  0.5441640000000  0.5129410000000 1.0
C      1  0.6253810000000  0.4833990000000  0.5105930000000 1.0
C      1  0.4795690000000  0.4400630000000  0.5647490000000 1.0
C      1  0.5199690000000  0.4695780000000  0.5693460000000 1.0
C      1  0.4324910000000  0.4633880000000  0.4548940000000 1.0
C      1  0.5219420000000  0.5745380000000  0.4959880000000 1.0
C      1  0.4848790000000  0.5079030000000  0.4700790000000 1.0
C      1  0.4893460000000  0.5252990000000  0.4962120000000 1.0
C      1  0.5118670000000  0.4611690000000  0.4211520000000 1.0
C      1  0.5993170000000  0.4917680000000  0.5142290000000 1.0
C      1  0.4300160000000  0.4498110000000  0.4923700000000 1.0
C      1  0.5122550000000  0.5588150000000  0.5784630000000 1.0
C      1  0.4328290000000  0.5028280000000  0.4207060000000 1.0
C      1  0.4982040000000  0.4807630000000  0.4759470000000 1.0
C      1  0.4361990000000  0.4271470000000  0.4765040000000 1.0
C      1  0.4954640000000  0.5540710000000  0.4885820000000 1.0
C      1  0.4659630000000  0.5022850000000  0.5365040000000 1.0
C      1  0.4469660000000  0.4862210000000  0.4375020000000 1.0
C      1  0.4598090000000  0.5141540000000  0.5626990000000 1.0
C      1  0.4826780000000  0.5268700000000  0.4104840000000 1.0
C      1  0.5454610000000  0.5107660000000  0.5423530000000 1.0
C      1  0.5563610000000  0.5673620000000  0.5252390000000 1.0
C      1  0.4284480000000  0.5180970000000  0.5091010000000 1.0
C      1  0.5006860000000  0.4279250000000  0.4688330000000 1.0
C      1  0.5338210000000  0.4968650000000  0.4971390000000 1.0
C      1  0.4978090000000  0.4337510000000  0.5297530000000 1.0
C      1  0.4622920000000  0.5207170000000  0.5118880000000 1.0
C      1  0.4459400000000  0.4833260000000  0.4773010000000 1.0
C      1  0.4894060000000  0.4874300000000  0.5399060000000 1.0
C      1  0.4586580000000  0.4642910000000  0.5731810000000 1.0
C      1  0.5477570000000  0.5679380000000  0.4747050000000 1.0
C      1  0.5547050000000  0.4428830000000  0.4859250000000 1.0
C      1  0.4640450000000  0.5518110000000  0.4522920000000 1.0
C      1  0.4687680000000  0.5742120000000  0.5099610000000 1.0
C      1  0.5147890000000  0.5192980000000  0.5128090000000 1.0
C      1  0.5596510000000  0.4688580000000  0.4304830000000 1.0
C      1  0.4190970000000  0.5449620000000  0.5255740000000 1.0
C      1  0.5544610000000  0.5161010000000  0.5140690000000 1.0
C      1  0.5192350000000  0.5369280000000  0.5877210000000 1.0
C      1  0.4510910000000  0.5487830000000  0.5208450000000 1.0
C      1  0.5930280000000  0.5250120000000  0.5192340000000 1.0
C      1  0.4705510000000  0.4906170000000  0.5797660000000 1.0
C      1  0.5359310000000  0.4499590000000  0.4333010000000 1.0
C      1  0.4430680000000  0.5318050000000  0.4567050000000 1.0
C      1  0.4876920000000  0.4660440000000  0.4973740000000 1.0
C      1  0.5515270000000  0.5486410000000  0.4472210000000 1.0
C      1  0.5595090000000  0.4579750000000  0.5089850000000 1.0
C      1  0.4536620000000  0.5425610000000  0.5602420000000 1.0
C      1  0.4984070000000  0.5071730000000  0.3999630000000 1.0
C      1  0.4729430000000  0.4091130000000  0.5107940000000 1.0
C      1  0.5395320000000  0.5604590000000  0.5493530000000 1.0
C      1  0.4864280000000  0.5409640000000  0.4347970000000 1.0
C      1  0.5772040000000  0.5486780000000  0.5101210000000 1.0
C      1  0.4397460000000  0.4685900000000  0.5263480000000 1.0
C      1  0.4905880000000  0.4131030000000  0.4905320000000 1.0
C      1  0.4213270000000  0.4892360000000  0.5240330000000 1.0
C      1  0.5386330000000  0.5175600000000  0.4463780000000 1.0
C      1  0.4887030000000  0.4625000000000  0.4377960000000 1.0
END
