TITL C-2778426-5645-695 0.000979754894649107 125000 -219.178122877764 0 0 40 (C1) n - 1
REM
REM in /home/nfs/bkarasulu/CARBON/AIRSS/Generating-Clusters/REBO/Only-C1/SD-CG/HFTN-CG
REM
REM
REM
REM
REM
REM ./C.cell (11c1c37f851c82e70ff6c80c92926a4b)
REM
REM compiler GCC version 9.2.1 20190827 (Red Hat 9.2.1-1)
REM options -cpp -mtune=generic -march=x86-64 -g -O0 -fpre-include=/usr/include/finclude/math-vector-fortran.h
REM seed -266044316 -1425375209 1008881574 1874864937 -1778087654 1035036868 1979864261 -1342253526 1992491663 593557770 1887938021 569569798 -372204365 -466996115 -1130279191 -1591319112 1696062338 -498636494 -603262814 304717330 991782616 -1786280878 -1452619742 -577321127 142263898 1257179415 -2069981327 -232829885 -1016566945 -94018639 731954512 -90069353 -2071925805
REM
CELL 1.54180   50.00000   50.00000   50.00000   90.00000   90.00000   90.00000
LATT -1
SFAC C  
C      1  0.5082930000000  0.5264230000000  0.4918530000000 1.0
C      1  0.5129350000000  0.4804870000000  0.4627560000000 1.0
C      1  0.5498960000000  0.5042340000000  0.5401970000000 1.0
C      1  0.4269210000000  0.5539980000000  0.4986220000000 1.0
C      1  0.5653250000000  0.5058700000000  0.5177830000000 1.0
C      1  0.5151950000000  0.4804940000000  0.5646940000000 1.0
C      1  0.5297640000000  0.4811480000000  0.5402780000000 1.0
C      1  0.5433600000000  0.4540280000000  0.5346090000000 1.0
C      1  0.4582420000000  0.5889780000000  0.5217350000000 1.0
C      1  0.4337700000000  0.5537180000000  0.4708450000000 1.0
C      1  0.4577540000000  0.4593710000000  0.4894330000000 1.0
C      1  0.5209080000000  0.4978830000000  0.4891080000000 1.0
C      1  0.4725500000000  0.5031560000000  0.4464080000000 1.0
C      1  0.4486440000000  0.4859600000000  0.4876960000000 1.0
C      1  0.4183960000000  0.5278220000000  0.5104810000000 1.0
C      1  0.4747450000000  0.4393640000000  0.4954960000000 1.0
C      1  0.4468360000000  0.5576280000000  0.4413700000000 1.0
C      1  0.4856110000000  0.4751780000000  0.5169520000000 1.0
C      1  0.5386620000000  0.4612790000000  0.4597450000000 1.0
C      1  0.5105070000000  0.4841470000000  0.5155790000000 1.0
C      1  0.5291610000000  0.4279220000000  0.5446330000000 1.0
C      1  0.6050480000000  0.5165960000000  0.4793210000000 1.0
C      1  0.5240080000000  0.4267830000000  0.5130470000000 1.0
C      1  0.5477170000000  0.4469230000000  0.5044630000000 1.0
C      1  0.5204980000000  0.5441120000000  0.5084920000000 1.0
C      1  0.4310310000000  0.4972760000000  0.5069900000000 1.0
C      1  0.4643590000000  0.5444160000000  0.4653250000000 1.0
C      1  0.5527030000000  0.4937090000000  0.4903720000000 1.0
C      1  0.4508530000000  0.5641920000000  0.5145370000000 1.0
C      1  0.5302830000000  0.5476610000000  0.5336740000000 1.0
C      1  0.5414590000000  0.5291510000000  0.5507410000000 1.0
C      1  0.5003500000000  0.4543500000000  0.4687570000000 1.0
C      1  0.4981730000000  0.4955740000000  0.4409070000000 1.0
C      1  0.5827110000000  0.5085500000000  0.4918290000000 1.0
C      1  0.4637280000000  0.5053040000000  0.4730800000000 1.0
C      1  0.4647180000000  0.5375900000000  0.5163570000000 1.0
C      1  0.4980970000000  0.4276440000000  0.5021700000000 1.0
C      1  0.4780840000000  0.5290190000000  0.4895080000000 1.0
C      1  0.5536130000000  0.4639420000000  0.4830610000000 1.0
C      1  0.4450920000000  0.5181190000000  0.5270970000000 1.0
END
