TITL C-2778430-5657-1298 -0.000343616512753613 125000 -576.582294642232 0 0 100 (C1) n - 1
REM
REM in /home/nfs/bkarasulu/CARBON/AIRSS/Generating-Clusters/REBO/Only-C1/SD-CG/HFTN-CG
REM
REM
REM
REM
REM
REM ./C.cell (11c1c37f851c82e70ff6c80c92926a4b)
REM
REM compiler GCC version 9.2.1 20190827 (Red Hat 9.2.1-1)
REM options -cpp -mtune=generic -march=x86-64 -g -O0 -fpre-include=/usr/include/finclude/math-vector-fortran.h
REM seed 569638959 2050202570 1934129410 203269971 850688127 -1168574126 1184310045 1992965057 -1868625679 1514045137 -1328045113 -991663714 1211986487 755291462 824306583 831062027 -2045486726 -1865303840 1754063281 -668526762 -1286831257 608042360 -1571950422 -770799330 1951130297 -2102588142 1790894627 -680702318 49281131 -1003003662 -1814742895 -2026805620 -1960190016
REM
CELL 1.54180   50.00000   50.00000   50.00000   90.00000   90.00000   90.00000
LATT -1
SFAC C  
C      1  0.4489920000000  0.5907470000000  0.5324350000000 1.0
C      1  0.5179660000000  0.5095510000000  0.4555030000000 1.0
C      1  0.5709450000000  0.5544250000000  0.5348700000000 1.0
C      1  0.4972680000000  0.5443910000000  0.5597500000000 1.0
C      1  0.4911040000000  0.4846660000000  0.4881610000000 1.0
C      1  0.5393480000000  0.5017340000000  0.4391010000000 1.0
C      1  0.5576140000000  0.4338980000000  0.4951260000000 1.0
C      1  0.4519240000000  0.4658930000000  0.5205050000000 1.0
C      1  0.5801900000000  0.5089950000000  0.5090850000000 1.0
C      1  0.5372590000000  0.4382970000000  0.4021570000000 1.0
C      1  0.4936490000000  0.4080420000000  0.5299200000000 1.0
C      1  0.4515350000000  0.5149290000000  0.5725970000000 1.0
C      1  0.5649760000000  0.5664090000000  0.5109600000000 1.0
C      1  0.5702280000000  0.5312570000000  0.5513900000000 1.0
C      1  0.5343240000000  0.4613570000000  0.5682500000000 1.0
C      1  0.4836120000000  0.5606580000000  0.4414530000000 1.0
C      1  0.4808520000000  0.5490180000000  0.5356170000000 1.0
C      1  0.5566010000000  0.5273940000000  0.5761670000000 1.0
C      1  0.5117750000000  0.5190960000000  0.5588250000000 1.0
C      1  0.4655620000000  0.4363670000000  0.4634210000000 1.0
C      1  0.5198980000000  0.4702230000000  0.5412600000000 1.0
C      1  0.4859220000000  0.4357290000000  0.4436830000000 1.0
C      1  0.5427670000000  0.5659390000000  0.4904430000000 1.0
C      1  0.4854410000000  0.5066770000000  0.4656910000000 1.0
C      1  0.4987980000000  0.4789030000000  0.5700460000000 1.0
C      1  0.5217080000000  0.5027140000000  0.5313710000000 1.0
C      1  0.5543740000000  0.5131150000000  0.4934050000000 1.0
C      1  0.4411290000000  0.4619980000000  0.4822170000000 1.0
C      1  0.5247790000000  0.5635020000000  0.4661090000000 1.0
C      1  0.5345460000000  0.4156690000000  0.5013770000000 1.0
C      1  0.4639640000000  0.5610960000000  0.5740790000000 1.0
C      1  0.5587030000000  0.5328150000000  0.4702000000000 1.0
C      1  0.4704270000000  0.5384710000000  0.4294970000000 1.0
C      1  0.5290320000000  0.5207130000000  0.5091780000000 1.0
C      1  0.4224910000000  0.5130540000000  0.5199310000000 1.0
C      1  0.5279680000000  0.5527050000000  0.5170580000000 1.0
C      1  0.5124200000000  0.4307770000000  0.4570790000000 1.0
C      1  0.4621460000000  0.5480640000000  0.5004740000000 1.0
C      1  0.4267690000000  0.4456060000000  0.4649180000000 1.0
C      1  0.5081500000000  0.5216380000000  0.4852590000000 1.0
C      1  0.5347260000000  0.4880790000000  0.4144100000000 1.0
C      1  0.4610490000000  0.5188980000000  0.4534570000000 1.0
C      1  0.5195630000000  0.4741370000000  0.4800510000000 1.0
C      1  0.5044770000000  0.5516660000000  0.4849420000000 1.0
C      1  0.5742580000000  0.4792590000000  0.5436200000000 1.0
C      1  0.5327370000000  0.5126920000000  0.5799330000000 1.0
C      1  0.4909090000000  0.4971050000000  0.5432860000000 1.0
C      1  0.5407230000000  0.4370900000000  0.5489640000000 1.0
C      1  0.4477440000000  0.4986180000000  0.4138260000000 1.0
C      1  0.4283640000000  0.4829440000000  0.4931180000000 1.0
C      1  0.5037370000000  0.4466290000000  0.5314700000000 1.0
C      1  0.5548590000000  0.4560600000000  0.5280950000000 1.0
C      1  0.5764930000000  0.5072780000000  0.5376920000000 1.0
C      1  0.4686390000000  0.5228640000000  0.5223880000000 1.0
C      1  0.4316270000000  0.5402400000000  0.5273440000000 1.0
C      1  0.5339610000000  0.5653680000000  0.5454050000000 1.0
C      1  0.4829390000000  0.4392770000000  0.5524940000000 1.0
C      1  0.4987190000000  0.4844320000000  0.4312390000000 1.0
C      1  0.4722520000000  0.4585390000000  0.4869480000000 1.0
C      1  0.4700610000000  0.5166940000000  0.4081740000000 1.0
C      1  0.5929490000000  0.4848510000000  0.4984450000000 1.0
C      1  0.5870640000000  0.4802030000000  0.4682420000000 1.0
C      1  0.4816820000000  0.4547750000000  0.5728080000000 1.0
C      1  0.4982640000000  0.4474560000000  0.5008720000000 1.0
C      1  0.4179700000000  0.5396650000000  0.4780730000000 1.0
C      1  0.4392840000000  0.5004260000000  0.4417020000000 1.0
C      1  0.4976930000000  0.5105610000000  0.4206980000000 1.0
C      1  0.5317420000000  0.4553300000000  0.5043240000000 1.0
C      1  0.4548740000000  0.5376850000000  0.5874530000000 1.0
C      1  0.4174230000000  0.4974880000000  0.4576350000000 1.0
C      1  0.5123820000000  0.5570250000000  0.4399900000000 1.0
C      1  0.4603540000000  0.5989100000000  0.5113690000000 1.0
C      1  0.4905520000000  0.4545460000000  0.4222220000000 1.0
C      1  0.4465680000000  0.4359230000000  0.5164170000000 1.0
C      1  0.4747450000000  0.4898310000000  0.5162810000000 1.0
C      1  0.4525690000000  0.5079820000000  0.5456770000000 1.0
C      1  0.5619780000000  0.4920500000000  0.4532190000000 1.0
C      1  0.5210970000000  0.5755320000000  0.5672980000000 1.0
C      1  0.4714880000000  0.4157500000000  0.5223140000000 1.0
C      1  0.5865130000000  0.4637560000000  0.5182580000000 1.0
C      1  0.5182620000000  0.5330090000000  0.4231900000000 1.0
C      1  0.4524830000000  0.4238960000000  0.4864480000000 1.0
C      1  0.4968540000000  0.5623490000000  0.5142040000000 1.0
C      1  0.4351190000000  0.4878890000000  0.5321760000000 1.0
C      1  0.5176940000000  0.4629330000000  0.4500260000000 1.0
C      1  0.4701270000000  0.5668630000000  0.4662490000000 1.0
C      1  0.5271070000000  0.4849450000000  0.5863200000000 1.0
C      1  0.5131110000000  0.4248400000000  0.4844230000000 1.0
C      1  0.5427430000000  0.5303660000000  0.4113860000000 1.0
C      1  0.5706420000000  0.4558690000000  0.4825200000000 1.0
C      1  0.4520070000000  0.5618430000000  0.5439040000000 1.0
C      1  0.5240290000000  0.4578990000000  0.4162420000000 1.0
C      1  0.5501250000000  0.4832590000000  0.4825590000000 1.0
C      1  0.4292750000000  0.5561400000000  0.5013110000000 1.0
C      1  0.4939170000000  0.5684960000000  0.5785910000000 1.0
C      1  0.4494740000000  0.5418960000000  0.4701540000000 1.0
C      1  0.4220460000000  0.4276710000000  0.5275710000000 1.0
C      1  0.4117780000000  0.5106370000000  0.4883020000000 1.0
C      1  0.5243780000000  0.4165520000000  0.5306110000000 1.0
C      1  0.4766490000000  0.5785020000000  0.4950920000000 1.0
END
