TITL C-2778437-8639-248 0.15863542434787 125000 -327.356553740609 0 0 58 (C1) n - 1
REM
REM in /home/nfs/bkarasulu/CARBON/AIRSS/Generating-Clusters/REBO/Only-C1/SD-CG/HFTN-CG
REM
REM
REM
REM
REM
REM ./C.cell (11c1c37f851c82e70ff6c80c92926a4b)
REM
REM compiler GCC version 9.2.1 20190827 (Red Hat 9.2.1-1)
REM options -cpp -mtune=generic -march=x86-64 -g -O0 -fpre-include=/usr/include/finclude/math-vector-fortran.h
REM seed 1779448395 -1100267863 -1305272683 -315783534 1955513774 1956199931 1115477463 1513276041 1062954304 -1892148406 258922852 -560088350 1027970814 -1468522162 -253714244 -168261 -1464367001 1706543550 1148062787 -1195561232 -1013201309 2002374330 -41245681 1077137834 -1668023564 1099370013 -910335109 -537178689 -66725893 -1258617236 -487874952 449498148 1176525512
REM
CELL 1.54180   50.00000   50.00000   50.00000   90.00000   90.00000   90.00000
LATT -1
SFAC C  
C      1  0.5454550000000  0.4487400000000  0.5181060000000 1.0
C      1  0.4858080000000  0.5412490000000  0.5625510000000 1.0
C      1  0.4695270000000  0.4751540000000  0.4978440000000 1.0
C      1  0.4639200000000  0.5180500000000  0.4775230000000 1.0
C      1  0.4044020000000  0.4826370000000  0.4628340000000 1.0
C      1  0.4871390000000  0.6211590000000  0.5505600000000 1.0
C      1  0.4750290000000  0.5027690000000  0.4983630000000 1.0
C      1  0.4989150000000  0.5700100000000  0.4676540000000 1.0
C      1  0.4769340000000  0.5820730000000  0.5139880000000 1.0
C      1  0.4714420000000  0.5159950000000  0.4497620000000 1.0
C      1  0.4914510000000  0.5448820000000  0.5878840000000 1.0
C      1  0.4921260000000  0.6402610000000  0.5684330000000 1.0
C      1  0.4855470000000  0.5833350000000  0.4871290000000 1.0
C      1  0.4522620000000  0.5318940000000  0.4349940000000 1.0
C      1  0.5220010000000  0.4013070000000  0.5085830000000 1.0
C      1  0.5499330000000  0.5186040000000  0.5006780000000 1.0
C      1  0.4417410000000  0.5496110000000  0.5060060000000 1.0
C      1  0.4883310000000  0.4570130000000  0.5078180000000 1.0
C      1  0.5194820000000  0.5206570000000  0.5102060000000 1.0
C      1  0.4987970000000  0.5066400000000  0.4444170000000 1.0
C      1  0.4745550000000  0.4679750000000  0.5496290000000 1.0
C      1  0.5087510000000  0.4683900000000  0.4691050000000 1.0
C      1  0.5269390000000  0.4939330000000  0.4591690000000 1.0
C      1  0.5325810000000  0.5456850000000  0.4924390000000 1.0
C      1  0.5287420000000  0.3494530000000  0.4998060000000 1.0
C      1  0.4426640000000  0.5378730000000  0.4805870000000 1.0
C      1  0.5460230000000  0.4674980000000  0.5379230000000 1.0
C      1  0.4349070000000  0.5450130000000  0.4533450000000 1.0
C      1  0.5032830000000  0.4556660000000  0.5597610000000 1.0
C      1  0.5236690000000  0.4774970000000  0.5518830000000 1.0
C      1  0.5496310000000  0.4806910000000  0.4430600000000 1.0
C      1  0.4927040000000  0.5130000000000  0.5214860000000 1.0
C      1  0.4427360000000  0.4649360000000  0.4964370000000 1.0
C      1  0.4821520000000  0.6020570000000  0.5326870000000 1.0
C      1  0.5748910000000  0.5082300000000  0.4952820000000 1.0
C      1  0.5221370000000  0.4508220000000  0.4866060000000 1.0
C      1  0.4390330000000  0.4453340000000  0.5168510000000 1.0
C      1  0.4230190000000  0.4740400000000  0.4791540000000 1.0
C      1  0.5679810000000  0.4678130000000  0.4602020000000 1.0
C      1  0.4946360000000  0.4377120000000  0.5334230000000 1.0
C      1  0.5253560000000  0.3754970000000  0.5042140000000 1.0
C      1  0.4167600000000  0.4300780000000  0.5193400000000 1.0
C      1  0.5181420000000  0.4309870000000  0.5136060000000 1.0
C      1  0.4642590000000  0.5570490000000  0.5215890000000 1.0
C      1  0.5553910000000  0.4557780000000  0.4888280000000 1.0
C      1  0.5178940000000  0.5492980000000  0.4663650000000 1.0
C      1  0.5970260000000  0.5240910000000  0.4945540000000 1.0
C      1  0.5200340000000  0.5305540000000  0.4451620000000 1.0
C      1  0.5399090000000  0.5311870000000  0.4259240000000 1.0
C      1  0.5320740000000  0.3238230000000  0.4954670000000 1.0
C      1  0.5763230000000  0.4815380000000  0.4875360000000 1.0
C      1  0.4610830000000  0.4445430000000  0.5344620000000 1.0
C      1  0.5409440000000  0.5694000000000  0.5045540000000 1.0
C      1  0.4970340000000  0.6590590000000  0.5860220000000 1.0
C      1  0.4961920000000  0.4903120000000  0.5420440000000 1.0
C      1  0.4798150000000  0.5373910000000  0.5356470000000 1.0
C      1  0.5286060000000  0.4700790000000  0.4240860000000 1.0
C      1  0.5018800000000  0.4736780000000  0.4364320000000 1.0
END
