TITL C-2778437-8639-676 0.00136826531458234 125000 -174.396879560053 0 0 31 (C1) n - 1
REM
REM in /home/nfs/bkarasulu/CARBON/AIRSS/Generating-Clusters/REBO/Only-C1/SD-CG/HFTN-CG
REM
REM
REM
REM
REM
REM ./C.cell (11c1c37f851c82e70ff6c80c92926a4b)
REM
REM compiler GCC version 9.2.1 20190827 (Red Hat 9.2.1-1)
REM options -cpp -mtune=generic -march=x86-64 -g -O0 -fpre-include=/usr/include/finclude/math-vector-fortran.h
REM seed 1877796919 -51835878 -165404847 -769365589 -385461397 1743174828 799587370 -108772064 -1768840118 -1304801518 775428541 -1027033897 427943413 -1287191095 1274082897 76090791 1306313798 -543263789 -1428549667 -657248770 -718744500 -1659768324 1990617088 -1176003175 1688515611 2046529598 380672062 802085877 620286921 704980042 -183824473 1323236098 -1990973975
REM
CELL 1.54180   50.00000   50.00000   50.00000   90.00000   90.00000   90.00000
LATT -1
SFAC C  
C      1  0.5115120000000  0.5264360000000  0.5033150000000 1.0
C      1  0.4938530000000  0.4639960000000  0.4276450000000 1.0
C      1  0.4971250000000  0.4939880000000  0.5391860000000 1.0
C      1  0.5075590000000  0.4681520000000  0.5218630000000 1.0
C      1  0.5321610000000  0.4512440000000  0.5675220000000 1.0
C      1  0.4827010000000  0.5407890000000  0.5446770000000 1.0
C      1  0.5511370000000  0.4380230000000  0.5783110000000 1.0
C      1  0.4966050000000  0.5436780000000  0.4572340000000 1.0
C      1  0.5399400000000  0.5281820000000  0.4994330000000 1.0
C      1  0.5579900000000  0.5413340000000  0.5158520000000 1.0
C      1  0.5710880000000  0.5059210000000  0.4675340000000 1.0
C      1  0.4732510000000  0.4816380000000  0.4294290000000 1.0
C      1  0.4658140000000  0.5126960000000  0.5447810000000 1.0
C      1  0.5215170000000  0.4997580000000  0.4685810000000 1.0
C      1  0.4967150000000  0.5642290000000  0.4421050000000 1.0
C      1  0.4228380000000  0.4985240000000  0.4792530000000 1.0
C      1  0.5750560000000  0.5537680000000  0.5313750000000 1.0
C      1  0.5100840000000  0.4666260000000  0.5549700000000 1.0
C      1  0.4689360000000  0.5058380000000  0.4743870000000 1.0
C      1  0.5130270000000  0.4622470000000  0.4968420000000 1.0
C      1  0.4849900000000  0.4751970000000  0.5723390000000 1.0
C      1  0.4684140000000  0.4933190000000  0.5677900000000 1.0
C      1  0.4486030000000  0.5097090000000  0.5211660000000 1.0
C      1  0.5123540000000  0.4575670000000  0.4466820000000 1.0
C      1  0.4295400000000  0.4921420000000  0.4525830000000 1.0
C      1  0.4964720000000  0.5187810000000  0.4755630000000 1.0
C      1  0.5177960000000  0.4713820000000  0.4706770000000 1.0
C      1  0.5464300000000  0.5115230000000  0.4770380000000 1.0
C      1  0.4470010000000  0.5061100000000  0.4936860000000 1.0
C      1  0.4583710000000  0.4948520000000  0.4490640000000 1.0
C      1  0.5011200000000  0.5223500000000  0.5291180000000 1.0
END
