TITL C-2778430-5657-900 -0.00377015779349914 125000 -591.749755421937 0 0 102 (C1) n - 1
REM
REM in /home/nfs/bkarasulu/CARBON/AIRSS/Generating-Clusters/REBO/Only-C1/SD-CG/HFTN-CG
REM
REM
REM
REM
REM
REM ./C.cell (11c1c37f851c82e70ff6c80c92926a4b)
REM
REM compiler GCC version 9.2.1 20190827 (Red Hat 9.2.1-1)
REM options -cpp -mtune=generic -march=x86-64 -g -O0 -fpre-include=/usr/include/finclude/math-vector-fortran.h
REM seed -1649617806 -602966182 -166139546 670445098 -665279614 -1020805366 -324079464 -1154245615 1071763962 451043278 1292250278 -1174961820 -892235461 -845879431 1190117269 -1040911479 -1408010431 -1491367913 437798103 909297300 1752106398 2047402687 -1093326918 -878067752 1778976307 1944056500 2146684577 -1365842166 -928027153 -834681091 -337893721 -2095827474 916351468
REM
CELL 1.54180   50.00000   50.00000   50.00000   90.00000   90.00000   90.00000
LATT -1
SFAC C  
C      1  0.5437250000000  0.4689050000000  0.5429210000000 1.0
C      1  0.5364270000000  0.5429030000000  0.5790970000000 1.0
C      1  0.5743240000000  0.5108570000000  0.5413910000000 1.0
C      1  0.5033110000000  0.4330820000000  0.5112690000000 1.0
C      1  0.4659820000000  0.4654190000000  0.4281090000000 1.0
C      1  0.5324690000000  0.5686240000000  0.5373790000000 1.0
C      1  0.4284000000000  0.5198420000000  0.5580820000000 1.0
C      1  0.4811670000000  0.5619570000000  0.4698120000000 1.0
C      1  0.4729670000000  0.5682790000000  0.5389720000000 1.0
C      1  0.5065840000000  0.4925180000000  0.5804710000000 1.0
C      1  0.5419220000000  0.5167560000000  0.5640610000000 1.0
C      1  0.5253040000000  0.5767510000000  0.4845680000000 1.0
C      1  0.4446970000000  0.4840330000000  0.5457070000000 1.0
C      1  0.4094630000000  0.5043180000000  0.4649020000000 1.0
C      1  0.5446020000000  0.4888910000000  0.4722010000000 1.0
C      1  0.4486950000000  0.4521490000000  0.4484430000000 1.0
C      1  0.5703110000000  0.4999730000000  0.4851830000000 1.0
C      1  0.4196410000000  0.5456200000000  0.5422710000000 1.0
C      1  0.5156170000000  0.4471800000000  0.5608540000000 1.0
C      1  0.5483400000000  0.5220010000000  0.4298880000000 1.0
C      1  0.4392920000000  0.5457830000000  0.4494280000000 1.0
C      1  0.5779340000000  0.4784420000000  0.5076870000000 1.0
C      1  0.4755600000000  0.4960180000000  0.5017640000000 1.0
C      1  0.4549030000000  0.5051990000000  0.5206320000000 1.0
C      1  0.5045990000000  0.4068140000000  0.5004500000000 1.0
C      1  0.4371170000000  0.5510680000000  0.5075990000000 1.0
C      1  0.4819460000000  0.4482300000000  0.4701330000000 1.0
C      1  0.5910920000000  0.4967580000000  0.4511580000000 1.0
C      1  0.4893180000000  0.4733410000000  0.5181100000000 1.0
C      1  0.5200550000000  0.5348530000000  0.4675270000000 1.0
C      1  0.5413630000000  0.4636180000000  0.4904330000000 1.0
C      1  0.4869810000000  0.5385830000000  0.5617700000000 1.0
C      1  0.4402050000000  0.4613650000000  0.4830210000000 1.0
C      1  0.4556460000000  0.4296760000000  0.5179270000000 1.0
C      1  0.5180060000000  0.5085590000000  0.4216110000000 1.0
C      1  0.4102580000000  0.5364550000000  0.5116470000000 1.0
C      1  0.4991970000000  0.5100770000000  0.4566570000000 1.0
C      1  0.4169060000000  0.4919480000000  0.4901790000000 1.0
C      1  0.4505190000000  0.5712880000000  0.4937480000000 1.0
C      1  0.4720060000000  0.5148040000000  0.5461900000000 1.0
C      1  0.5502670000000  0.5397690000000  0.4566280000000 1.0
C      1  0.4211180000000  0.5179240000000  0.4448860000000 1.0
C      1  0.5508770000000  0.5544010000000  0.5542060000000 1.0
C      1  0.5716550000000  0.5319550000000  0.4808740000000 1.0
C      1  0.5718910000000  0.5026450000000  0.4284280000000 1.0
C      1  0.4531310000000  0.4938830000000  0.5743140000000 1.0
C      1  0.5488040000000  0.4308440000000  0.5119970000000 1.0
C      1  0.5378480000000  0.4386850000000  0.5365470000000 1.0
C      1  0.5032600000000  0.5606530000000  0.5435930000000 1.0
C      1  0.5066510000000  0.5619000000000  0.4225300000000 1.0
C      1  0.5605590000000  0.4999620000000  0.5772620000000 1.0
C      1  0.4577620000000  0.4127110000000  0.4944330000000 1.0
C      1  0.4521240000000  0.5279260000000  0.5782230000000 1.0
C      1  0.4985960000000  0.5163180000000  0.4957100000000 1.0
C      1  0.5375430000000  0.5700920000000  0.4606440000000 1.0
C      1  0.4807300000000  0.5318860000000  0.4734890000000 1.0
C      1  0.4574070000000  0.4620240000000  0.5124410000000 1.0
C      1  0.4788270000000  0.5106090000000  0.5891560000000 1.0
C      1  0.4759690000000  0.4757680000000  0.4755470000000 1.0
C      1  0.5107530000000  0.4607430000000  0.4981280000000 1.0
C      1  0.4526540000000  0.5220990000000  0.4687850000000 1.0
C      1  0.5689070000000  0.5382400000000  0.5363530000000 1.0
C      1  0.4847110000000  0.5132000000000  0.4280560000000 1.0
C      1  0.5080320000000  0.5265870000000  0.5826850000000 1.0
C      1  0.5252540000000  0.4677710000000  0.5783780000000 1.0
C      1  0.5537610000000  0.4731320000000  0.5739680000000 1.0
C      1  0.5137000000000  0.5398130000000  0.4347150000000 1.0
C      1  0.4939360000000  0.4587870000000  0.4269550000000 1.0
C      1  0.4743020000000  0.5794990000000  0.5082980000000 1.0
C      1  0.4973020000000  0.5782930000000  0.4887570000000 1.0
C      1  0.5131000000000  0.4896790000000  0.4800700000000 1.0
C      1  0.4271310000000  0.4769900000000  0.5173240000000 1.0
C      1  0.5690100000000  0.4844490000000  0.5328400000000 1.0
C      1  0.4620660000000  0.5591480000000  0.5703150000000 1.0
C      1  0.4215910000000  0.5093980000000  0.5262590000000 1.0
C      1  0.5982820000000  0.5198990000000  0.4652010000000 1.0
C      1  0.5523200000000  0.4850830000000  0.4438850000000 1.0
C      1  0.5011160000000  0.4420950000000  0.4491200000000 1.0
C      1  0.4468590000000  0.4936150000000  0.4741650000000 1.0
C      1  0.4821940000000  0.4847580000000  0.5590630000000 1.0
C      1  0.5334730000000  0.4308970000000  0.4843990000000 1.0
C      1  0.4888300000000  0.4532660000000  0.5524610000000 1.0
C      1  0.4525970000000  0.5693800000000  0.4635310000000 1.0
C      1  0.4206740000000  0.4437130000000  0.4657320000000 1.0
C      1  0.5222570000000  0.5114310000000  0.5429060000000 1.0
C      1  0.5699320000000  0.4458750000000  0.4894750000000 1.0
C      1  0.5398450000000  0.5633980000000  0.5083850000000 1.0
C      1  0.5406040000000  0.4619290000000  0.4307910000000 1.0
C      1  0.5167210000000  0.4841680000000  0.5353890000000 1.0
C      1  0.5167360000000  0.4745980000000  0.4196660000000 1.0
C      1  0.5801560000000  0.4709690000000  0.4687200000000 1.0
C      1  0.4613930000000  0.4913750000000  0.4205730000000 1.0
C      1  0.5268970000000  0.4330270000000  0.4554570000000 1.0
C      1  0.5126350000000  0.5338110000000  0.5287740000000 1.0
C      1  0.5198070000000  0.5396900000000  0.4983680000000 1.0
C      1  0.4584240000000  0.4282630000000  0.4706480000000 1.0
C      1  0.5574480000000  0.4480080000000  0.4573700000000 1.0
C      1  0.4800600000000  0.3943990000000  0.4957350000000 1.0
C      1  0.4534600000000  0.5418470000000  0.5360190000000 1.0
C      1  0.5661390000000  0.5464500000000  0.5079590000000 1.0
C      1  0.4513050000000  0.5210160000000  0.4292280000000 1.0
C      1  0.4817540000000  0.4363180000000  0.5309340000000 1.0
END
