TITL C-2778433-5640-1061 -0.000137100232893333 125000 -140.86703012168 0 0 25 (C1) n - 1
REM
REM in /home/nfs/bkarasulu/CARBON/AIRSS/Generating-Clusters/REBO/Only-C1/SD-CG/HFTN-CG
REM
REM
REM
REM
REM
REM ./C.cell (11c1c37f851c82e70ff6c80c92926a4b)
REM
REM compiler GCC version 9.2.1 20190827 (Red Hat 9.2.1-1)
REM options -cpp -mtune=generic -march=x86-64 -g -O0 -fpre-include=/usr/include/finclude/math-vector-fortran.h
REM seed -395541889 -990198141 1916261964 654103145 -1727169850 68908215 -53950435 -1383962339 -669515761 1974175775 -1572001015 145087693 1362722642 -2021964911 -2047456840 194821696 1432362827 627933041 1242452178 -1585135747 950680718 886122565 -1200095065 277124710 -586562211 1278096130 132796437 -1074935455 -1799982725 -503806103 -466709784 1394340833 -1976789621
REM
CELL 1.54180   50.00000   50.00000   50.00000   90.00000   90.00000   90.00000
LATT -1
SFAC C  
C      1  0.4710000000000  0.5302150000000  0.5276950000000 1.0
C      1  0.5141560000000  0.4786610000000  0.6182530000000 1.0
C      1  0.5292980000000  0.4742820000000  0.4653880000000 1.0
C      1  0.5183170000000  0.4747050000000  0.5553440000000 1.0
C      1  0.4811320000000  0.4374000000000  0.4839280000000 1.0
C      1  0.4789490000000  0.6041010000000  0.4628490000000 1.0
C      1  0.5355400000000  0.4596740000000  0.4873390000000 1.0
C      1  0.5003130000000  0.4311930000000  0.5023220000000 1.0
C      1  0.5404640000000  0.5154330000000  0.4248100000000 1.0
C      1  0.4755330000000  0.4582370000000  0.4675890000000 1.0
C      1  0.5174160000000  0.4875520000000  0.5855680000000 1.0
C      1  0.5377080000000  0.4964380000000  0.6113990000000 1.0
C      1  0.4841770000000  0.5173860000000  0.5471690000000 1.0
C      1  0.4804810000000  0.5780180000000  0.4608010000000 1.0
C      1  0.5004150000000  0.5004310000000  0.5605530000000 1.0
C      1  0.4652900000000  0.5060950000000  0.4652290000000 1.0
C      1  0.5245420000000  0.4580000000000  0.5349900000000 1.0
C      1  0.5171160000000  0.5142370000000  0.4387980000000 1.0
C      1  0.5096750000000  0.4901880000000  0.4527270000000 1.0
C      1  0.4821570000000  0.4843460000000  0.4593850000000 1.0
C      1  0.4636180000000  0.5366580000000  0.5026590000000 1.0
C      1  0.5229920000000  0.4468770000000  0.5092710000000 1.0
C      1  0.5008410000000  0.5370100000000  0.4422610000000 1.0
C      1  0.4821070000000  0.5503180000000  0.4586260000000 1.0
C      1  0.4667640000000  0.5325460000000  0.4750460000000 1.0
END
