TITL C-2778434-4341-433 -0.0038787934667982 125000 -314.834289558895 0 0 55 (C1) n - 1
REM
REM in /home/nfs/bkarasulu/CARBON/AIRSS/Generating-Clusters/REBO/Only-C1/SD-CG/HFTN-CG
REM
REM
REM
REM
REM
REM ./C.cell (11c1c37f851c82e70ff6c80c92926a4b)
REM
REM compiler GCC version 9.2.1 20190827 (Red Hat 9.2.1-1)
REM options -cpp -mtune=generic -march=x86-64 -g -O0 -fpre-include=/usr/include/finclude/math-vector-fortran.h
REM seed 2039336315 206100996 1298474914 48920153 1779967744 1297685530 -328798561 505757732 -1363366588 -1746686287 1815600533 -610271290 -1913090425 1243053127 2034262986 1758039452 -1492841944 -1898623650 911239281 -636011185 490191669 1435215051 -1130029486 503545596 1877453820 1551370875 1418818870 2029201829 -351808341 24629509 -1127026418 -1900001835 -969007746
REM
CELL 1.54180   50.00000   50.00000   50.00000   90.00000   90.00000   90.00000
LATT -1
SFAC C  
C      1  0.5050180000000  0.5254870000000  0.4730010000000 1.0
C      1  0.4545560000000  0.4704790000000  0.4418780000000 1.0
C      1  0.4326970000000  0.4857570000000  0.4374220000000 1.0
C      1  0.4993920000000  0.4962920000000  0.5746750000000 1.0
C      1  0.5048700000000  0.4590170000000  0.4269420000000 1.0
C      1  0.5313880000000  0.4965180000000  0.4806100000000 1.0
C      1  0.5189530000000  0.4490260000000  0.4060110000000 1.0
C      1  0.4833330000000  0.4814600000000  0.4319890000000 1.0
C      1  0.4467190000000  0.5129790000000  0.5370110000000 1.0
C      1  0.4735150000000  0.4644480000000  0.4668230000000 1.0
C      1  0.4393320000000  0.4846780000000  0.5196650000000 1.0
C      1  0.5145290000000  0.4801040000000  0.5051850000000 1.0
C      1  0.5218680000000  0.5722070000000  0.4929660000000 1.0
C      1  0.5367530000000  0.5253340000000  0.5565020000000 1.0
C      1  0.4949030000000  0.5132500000000  0.5254430000000 1.0
C      1  0.5580500000000  0.5211510000000  0.5373550000000 1.0
C      1  0.5568510000000  0.5173310000000  0.4896770000000 1.0
C      1  0.4717130000000  0.5091880000000  0.5596780000000 1.0
C      1  0.5360790000000  0.5271880000000  0.4661770000000 1.0
C      1  0.4772650000000  0.5509280000000  0.5253960000000 1.0
C      1  0.4548790000000  0.5284300000000  0.4304550000000 1.0
C      1  0.4327810000000  0.4609800000000  0.5363080000000 1.0
C      1  0.4838170000000  0.5318550000000  0.4479510000000 1.0
C      1  0.4561150000000  0.4386210000000  0.5368990000000 1.0
C      1  0.4799450000000  0.4376350000000  0.5222870000000 1.0
C      1  0.5024130000000  0.4578480000000  0.5643360000000 1.0
C      1  0.5325560000000  0.4393770000000  0.3857960000000 1.0
C      1  0.5191210000000  0.5480370000000  0.5571790000000 1.0
C      1  0.4613680000000  0.4776270000000  0.4954860000000 1.0
C      1  0.5230630000000  0.6001740000000  0.4890290000000 1.0
C      1  0.4808570000000  0.5117830000000  0.4204490000000 1.0
C      1  0.5559080000000  0.5377250000000  0.5134640000000 1.0
C      1  0.5637330000000  0.4861480000000  0.5013910000000 1.0
C      1  0.5156640000000  0.5043460000000  0.5499760000000 1.0
C      1  0.5044290000000  0.4587170000000  0.4571090000000 1.0
C      1  0.4314330000000  0.5130840000000  0.4333380000000 1.0
C      1  0.5031730000000  0.4488700000000  0.5129620000000 1.0
C      1  0.5483230000000  0.4622830000000  0.4936720000000 1.0
C      1  0.5020510000000  0.5244520000000  0.5007960000000 1.0
C      1  0.4939050000000  0.5630010000000  0.5074260000000 1.0
C      1  0.4918210000000  0.4862180000000  0.4852470000000 1.0
C      1  0.4512080000000  0.4584610000000  0.5620880000000 1.0
C      1  0.5404520000000  0.5616400000000  0.5156570000000 1.0
C      1  0.4508330000000  0.5419620000000  0.5244600000000 1.0
C      1  0.5301720000000  0.5689010000000  0.5414880000000 1.0
C      1  0.5292010000000  0.4829390000000  0.5332070000000 1.0
C      1  0.5231990000000  0.4554560000000  0.5468450000000 1.0
C      1  0.5281600000000  0.4656510000000  0.4704850000000 1.0
C      1  0.5349960000000  0.4475020000000  0.5159200000000 1.0
C      1  0.4741290000000  0.4759470000000  0.5684280000000 1.0
C      1  0.5580090000000  0.4929230000000  0.5293720000000 1.0
C      1  0.5297160000000  0.5563410000000  0.4671960000000 1.0
C      1  0.4911860000000  0.5359500000000  0.5504430000000 1.0
C      1  0.4922380000000  0.4999850000000  0.4565180000000 1.0
C      1  0.4713620000000  0.4963050000000  0.5219320000000 1.0
END
