TITL C-2778432-5617-387 0.018096419080977 125000 -1064.50816338907 0 0 184 (C1) n - 1
REM
REM in /home/nfs/bkarasulu/CARBON/AIRSS/Generating-Clusters/REBO/Only-C1/SD-CG/HFTN-CG
REM
REM
REM
REM
REM
REM ./C.cell (11c1c37f851c82e70ff6c80c92926a4b)
REM
REM compiler GCC version 9.2.1 20190827 (Red Hat 9.2.1-1)
REM options -cpp -mtune=generic -march=x86-64 -g -O0 -fpre-include=/usr/include/finclude/math-vector-fortran.h
REM seed 1174619068 1974751869 799127339 -857563032 -748511907 -619165529 286840544 290685023 -668792745 -1105421374 -710289698 -1031092302 -912636628 -652914349 -669972589 1969307421 1285635272 -713690978 635827393 1133417276 -318925782 -328477823 1765121562 202369557 -1834724533 1785254188 -353775986 852981994 -375598919 132372979 1812563198 -871376436 -17172636
REM
CELL 1.54180   50.00000   50.00000   50.00000   90.00000   90.00000   90.00000
LATT -1
SFAC C  
C      1  0.5043400000000  0.5710110000000  0.4207170000000 1.0
C      1  0.5491420000000  0.5725640000000  0.5678410000000 1.0
C      1  0.5190330000000  0.4335500000000  0.4869530000000 1.0
C      1  0.4924520000000  0.5924820000000  0.5351410000000 1.0
C      1  0.5609830000000  0.4670440000000  0.4282990000000 1.0
C      1  0.5189550000000  0.5011860000000  0.6076230000000 1.0
C      1  0.4990560000000  0.4830410000000  0.4924640000000 1.0
C      1  0.5447850000000  0.4732410000000  0.5804130000000 1.0
C      1  0.5143210000000  0.5694170000000  0.4658890000000 1.0
C      1  0.3977020000000  0.5168880000000  0.4763620000000 1.0
C      1  0.4719010000000  0.4682020000000  0.5533100000000 1.0
C      1  0.5965990000000  0.5267830000000  0.5346440000000 1.0
C      1  0.5278670000000  0.4830520000000  0.5032980000000 1.0
C      1  0.4935270000000  0.5444560000000  0.3928510000000 1.0
C      1  0.4458500000000  0.4772410000000  0.4701210000000 1.0
C      1  0.5535200000000  0.4337540000000  0.5543420000000 1.0
C      1  0.5820300000000  0.5305500000000  0.4046370000000 1.0
C      1  0.5176180000000  0.4048480000000  0.5606990000000 1.0
C      1  0.4916290000000  0.4049480000000  0.4895990000000 1.0
C      1  0.3970420000000  0.4709600000000  0.5510990000000 1.0
C      1  0.5939530000000  0.5051930000000  0.5602560000000 1.0
C      1  0.4562880000000  0.5164580000000  0.5315620000000 1.0
C      1  0.4354770000000  0.5153890000000  0.4143730000000 1.0
C      1  0.4799690000000  0.5341540000000  0.5879890000000 1.0
C      1  0.5954350000000  0.4690550000000  0.5021630000000 1.0
C      1  0.4335320000000  0.5236820000000  0.5080810000000 1.0
C      1  0.5855890000000  0.5110970000000  0.4983300000000 1.0
C      1  0.4559650000000  0.3984180000000  0.4730430000000 1.0
C      1  0.5093180000000  0.5225590000000  0.4003420000000 1.0
C      1  0.5561260000000  0.5104630000000  0.4520090000000 1.0
C      1  0.4954310000000  0.4913660000000  0.4352070000000 1.0
C      1  0.5037460000000  0.5316600000000  0.5106860000000 1.0
C      1  0.4590000000000  0.5970620000000  0.5337930000000 1.0
C      1  0.5466470000000  0.5549890000000  0.4841720000000 1.0
C      1  0.4794740000000  0.5139280000000  0.5086010000000 1.0
C      1  0.5521780000000  0.5941450000000  0.4894720000000 1.0
C      1  0.4624240000000  0.5664930000000  0.5725450000000 1.0
C      1  0.4303660000000  0.4637010000000  0.5646690000000 1.0
C      1  0.4251440000000  0.4263820000000  0.5072710000000 1.0
C      1  0.4358300000000  0.4894140000000  0.5278340000000 1.0
C      1  0.5308770000000  0.5204560000000  0.4962620000000 1.0
C      1  0.4363220000000  0.5080480000000  0.4785970000000 1.0
C      1  0.5071230000000  0.5325800000000  0.6066400000000 1.0
C      1  0.4527030000000  0.5048000000000  0.5871700000000 1.0
C      1  0.4159840000000  0.4611010000000  0.4458630000000 1.0
C      1  0.5756580000000  0.5158430000000  0.4246050000000 1.0
C      1  0.5730060000000  0.5758400000000  0.5283780000000 1.0
C      1  0.4195220000000  0.5125170000000  0.4505650000000 1.0
C      1  0.4428760000000  0.4531800000000  0.4941180000000 1.0
C      1  0.5927470000000  0.5172420000000  0.4665220000000 1.0
C      1  0.4981240000000  0.4253080000000  0.5324640000000 1.0
C      1  0.4272500000000  0.4866390000000  0.4298130000000 1.0
C      1  0.4789060000000  0.5805050000000  0.4409110000000 1.0
C      1  0.5707300000000  0.4723100000000  0.5254770000000 1.0
C      1  0.5225770000000  0.4838450000000  0.5614260000000 1.0
C      1  0.5103500000000  0.4196580000000  0.4262900000000 1.0
C      1  0.5567260000000  0.4379970000000  0.4970580000000 1.0
C      1  0.4096870000000  0.5234080000000  0.5247800000000 1.0
C      1  0.3882670000000  0.4422400000000  0.5418930000000 1.0
C      1  0.4387480000000  0.5891050000000  0.4576790000000 1.0
C      1  0.5731900000000  0.5565680000000  0.5707800000000 1.0
C      1  0.5811830000000  0.5099600000000  0.5846640000000 1.0
C      1  0.5274850000000  0.4960180000000  0.5326630000000 1.0
C      1  0.4531200000000  0.4705070000000  0.4145940000000 1.0
C      1  0.4959680000000  0.5624510000000  0.5938280000000 1.0
C      1  0.4467670000000  0.5410890000000  0.4756670000000 1.0
C      1  0.5464950000000  0.4361850000000  0.4300970000000 1.0
C      1  0.4527240000000  0.4146620000000  0.4512320000000 1.0
C      1  0.5878140000000  0.4478780000000  0.4559950000000 1.0
C      1  0.5800050000000  0.4883340000000  0.4420640000000 1.0
C      1  0.4662350000000  0.5232650000000  0.4569210000000 1.0
C      1  0.4757650000000  0.5029700000000  0.4777350000000 1.0
C      1  0.4480460000000  0.5385920000000  0.5857750000000 1.0
C      1  0.5274040000000  0.5000720000000  0.4447100000000 1.0
C      1  0.4051240000000  0.4607590000000  0.5041940000000 1.0
C      1  0.4286300000000  0.5393060000000  0.4351560000000 1.0
C      1  0.4701570000000  0.4741930000000  0.4505520000000 1.0
C      1  0.5562750000000  0.5020100000000  0.5237920000000 1.0
C      1  0.4981270000000  0.5448030000000  0.4417580000000 1.0
C      1  0.4413140000000  0.3984580000000  0.5448590000000 1.0
C      1  0.4621900000000  0.5173230000000  0.4060340000000 1.0
C      1  0.4832010000000  0.4499030000000  0.5882380000000 1.0
C      1  0.4521650000000  0.4436770000000  0.5772110000000 1.0
C      1  0.4219380000000  0.5645480000000  0.5440830000000 1.0
C      1  0.5661790000000  0.4583010000000  0.5626510000000 1.0
C      1  0.5792530000000  0.5744930000000  0.4958780000000 1.0
C      1  0.5210960000000  0.5876610000000  0.5253930000000 1.0
C      1  0.4590900000000  0.5523940000000  0.4396130000000 1.0
C      1  0.5514080000000  0.5011440000000  0.5972780000000 1.0
C      1  0.5821120000000  0.5429950000000  0.5079900000000 1.0
C      1  0.4014390000000  0.4937180000000  0.5261720000000 1.0
C      1  0.5427570000000  0.5724840000000  0.4572310000000 1.0
C      1  0.4625560000000  0.5578160000000  0.4972190000000 1.0
C      1  0.4706370000000  0.3923930000000  0.5556070000000 1.0
C      1  0.4994060000000  0.4209360000000  0.4643850000000 1.0
C      1  0.5579800000000  0.5319560000000  0.5258810000000 1.0
C      1  0.5281410000000  0.5604690000000  0.5875480000000 1.0
C      1  0.4928950000000  0.4729350000000  0.5198520000000 1.0
C      1  0.5362280000000  0.5613140000000  0.5096080000000 1.0
C      1  0.3970160000000  0.4658080000000  0.4709990000000 1.0
C      1  0.4456820000000  0.4076790000000  0.5165130000000 1.0
C      1  0.4133040000000  0.5450500000000  0.4747210000000 1.0
C      1  0.4682620000000  0.3865460000000  0.5026330000000 1.0
C      1  0.5781630000000  0.4325220000000  0.4382800000000 1.0
C      1  0.5961420000000  0.4382850000000  0.5020210000000 1.0
C      1  0.4748500000000  0.4797250000000  0.4010500000000 1.0
C      1  0.4747810000000  0.5571760000000  0.4117290000000 1.0
C      1  0.5511750000000  0.4140640000000  0.5284240000000 1.0
C      1  0.4255570000000  0.5713480000000  0.4908160000000 1.0
C      1  0.4736950000000  0.5211390000000  0.5576740000000 1.0
C      1  0.5443840000000  0.4589920000000  0.5169350000000 1.0
C      1  0.6028450000000  0.4952410000000  0.5230550000000 1.0
C      1  0.4992870000000  0.4752300000000  0.6025160000000 1.0
C      1  0.4498860000000  0.5937070000000  0.4855850000000 1.0
C      1  0.4885940000000  0.4959340000000  0.5429230000000 1.0
C      1  0.5496320000000  0.5049530000000  0.3962660000000 1.0
C      1  0.5698660000000  0.5360580000000  0.5897940000000 1.0
C      1  0.4223160000000  0.4603070000000  0.5313370000000 1.0
C      1  0.4005980000000  0.4271500000000  0.5262710000000 1.0
C      1  0.5098850000000  0.5399090000000  0.4804170000000 1.0
C      1  0.5148940000000  0.4742470000000  0.4170340000000 1.0
C      1  0.4805770000000  0.4430690000000  0.4542130000000 1.0
C      1  0.5123970000000  0.5200170000000  0.5479090000000 1.0
C      1  0.5540160000000  0.5267470000000  0.4774420000000 1.0
C      1  0.4625520000000  0.4593080000000  0.5212360000000 1.0
C      1  0.5750140000000  0.4127690000000  0.5041120000000 1.0
C      1  0.5235090000000  0.4711390000000  0.4557180000000 1.0
C      1  0.5241940000000  0.4331050000000  0.5196730000000 1.0
C      1  0.4895100000000  0.6278340000000  0.4452160000000 1.0
C      1  0.5231140000000  0.3943700000000  0.5292170000000 1.0
C      1  0.4821400000000  0.5184670000000  0.4293430000000 1.0
C      1  0.4413930000000  0.5728860000000  0.5185580000000 1.0
C      1  0.4835270000000  0.5559130000000  0.4710710000000 1.0
C      1  0.4889160000000  0.3924480000000  0.5294150000000 1.0
C      1  0.5053150000000  0.5053680000000  0.5775660000000 1.0
C      1  0.4821230000000  0.5501190000000  0.5513820000000 1.0
C      1  0.5593930000000  0.4903090000000  0.4918960000000 1.0
C      1  0.4516810000000  0.4171310000000  0.5681590000000 1.0
C      1  0.5713060000000  0.5765960000000  0.4425240000000 1.0
C      1  0.4912890000000  0.4406030000000  0.5581360000000 1.0
C      1  0.4153810000000  0.4394720000000  0.4793780000000 1.0
C      1  0.4548060000000  0.4436350000000  0.4238180000000 1.0
C      1  0.4988280000000  0.6008250000000  0.4842740000000 1.0
C      1  0.4789890000000  0.4205890000000  0.4300510000000 1.0
C      1  0.5260110000000  0.5818910000000  0.4091920000000 1.0
C      1  0.5867280000000  0.5562610000000  0.5452960000000 1.0
C      1  0.5681410000000  0.4669700000000  0.4731660000000 1.0
C      1  0.4125350000000  0.5385060000000  0.5483910000000 1.0
C      1  0.4738340000000  0.4243760000000  0.5111540000000 1.0
C      1  0.5294960000000  0.4281060000000  0.5693800000000 1.0
C      1  0.4758170000000  0.5975360000000  0.5050250000000 1.0
C      1  0.5830390000000  0.5411700000000  0.4543540000000 1.0
C      1  0.4595220000000  0.4880050000000  0.5041380000000 1.0
C      1  0.5099550000000  0.4618900000000  0.5434540000000 1.0
C      1  0.5211180000000  0.4430340000000  0.4082750000000 1.0
C      1  0.4239050000000  0.5672730000000  0.4511500000000 1.0
C      1  0.5220700000000  0.4000320000000  0.4976320000000 1.0
C      1  0.5966220000000  0.4837680000000  0.4714280000000 1.0
C      1  0.5127630000000  0.5590600000000  0.5579120000000 1.0
C      1  0.5538850000000  0.5472820000000  0.4369640000000 1.0
C      1  0.5251090000000  0.5969130000000  0.4954220000000 1.0
C      1  0.5496840000000  0.4090010000000  0.4808060000000 1.0
C      1  0.5406860000000  0.5337000000000  0.6013130000000 1.0
C      1  0.4225680000000  0.5241840000000  0.5707660000000 1.0
C      1  0.4821700000000  0.5516860000000  0.5211990000000 1.0
C      1  0.5434380000000  0.4834300000000  0.4122070000000 1.0
C      1  0.4968450000000  0.4677130000000  0.4672270000000 1.0
C      1  0.5179150000000  0.4523710000000  0.5855930000000 1.0
C      1  0.5308780000000  0.5444750000000  0.5372570000000 1.0
C      1  0.4913320000000  0.5844750000000  0.5682570000000 1.0
C      1  0.5312370000000  0.4162600000000  0.4530990000000 1.0
C      1  0.4883500000000  0.6032490000000  0.4572400000000 1.0
C      1  0.4278240000000  0.4930420000000  0.5744630000000 1.0
C      1  0.5261200000000  0.5291360000000  0.4293190000000 1.0
C      1  0.5406080000000  0.4523320000000  0.4708940000000 1.0
C      1  0.5022700000000  0.4638270000000  0.3886960000000 1.0
C      1  0.5911520000000  0.4759040000000  0.5496910000000 1.0
C      1  0.5483130000000  0.5829970000000  0.5414750000000 1.0
C      1  0.4768310000000  0.4884350000000  0.5802980000000 1.0
C      1  0.5906230000000  0.5691460000000  0.4668310000000 1.0
C      1  0.4423340000000  0.5827840000000  0.5569470000000 1.0
C      1  0.4333700000000  0.4385670000000  0.4438830000000 1.0
C      1  0.3940270000000  0.4911770000000  0.4930620000000 1.0
C      1  0.4991610000000  0.4982540000000  0.3897310000000 1.0
END
