TITL C-2778425-5191-475 -0.000250780787797515 125000 -192.179062290535 0 0 35 (C1) n - 1
REM
REM in /home/nfs/bkarasulu/CARBON/AIRSS/Generating-Clusters/REBO/Only-C1/SD-CG/HFTN-CG
REM
REM
REM
REM
REM
REM ./C.cell (11c1c37f851c82e70ff6c80c92926a4b)
REM
REM compiler GCC version 9.2.1 20190827 (Red Hat 9.2.1-1)
REM options -cpp -mtune=generic -march=x86-64 -g -O0 -fpre-include=/usr/include/finclude/math-vector-fortran.h
REM seed 1641545353 -1774576228 1289028397 -240375601 1860495859 1833339901 1976321337 -1300473550 1890029490 2107988882 -2120441238 1231882963 -950195894 -2084508231 -1241978527 1083401937 1048715825 1709092375 -779671945 1603575343 630458111 535385547 2065443519 -2056498353 638246369 -1462617125 -1884386973 -1017321010 960603730 362683224 1784332233 724599543 -1985306334
REM
CELL 1.54180   50.00000   50.00000   50.00000   90.00000   90.00000   90.00000
LATT -1
SFAC C  
C      1  0.5017390000000  0.5348630000000  0.4557700000000 1.0
C      1  0.4828240000000  0.4549770000000  0.4730160000000 1.0
C      1  0.4811990000000  0.4551000000000  0.5069490000000 1.0
C      1  0.4623930000000  0.4804370000000  0.5125710000000 1.0
C      1  0.5304070000000  0.4658280000000  0.5140980000000 1.0
C      1  0.5117970000000  0.4471190000000  0.4989910000000 1.0
C      1  0.5495490000000  0.4901680000000  0.4585080000000 1.0
C      1  0.5155310000000  0.4460040000000  0.4683240000000 1.0
C      1  0.4933740000000  0.5513020000000  0.4381340000000 1.0
C      1  0.5297570000000  0.4713330000000  0.4575640000000 1.0
C      1  0.4918810000000  0.5257680000000  0.5392570000000 1.0
C      1  0.4920790000000  0.5548460000000  0.5252430000000 1.0
C      1  0.5790850000000  0.5040010000000  0.5291350000000 1.0
C      1  0.4425170000000  0.5016840000000  0.5399540000000 1.0
C      1  0.4534130000000  0.5191330000000  0.4798330000000 1.0
C      1  0.5512320000000  0.4846760000000  0.5283010000000 1.0
C      1  0.5452770000000  0.5141170000000  0.4792040000000 1.0
C      1  0.4758890000000  0.5321130000000  0.4861150000000 1.0
C      1  0.5101200000000  0.5224090000000  0.5637330000000 1.0
C      1  0.5584450000000  0.5085420000000  0.5052110000000 1.0
C      1  0.5055470000000  0.4865070000000  0.5034810000000 1.0
C      1  0.4367200000000  0.4719700000000  0.4691570000000 1.0
C      1  0.5019680000000  0.4830640000000  0.4717270000000 1.0
C      1  0.5219760000000  0.5004720000000  0.5681140000000 1.0
C      1  0.4746200000000  0.4993590000000  0.5372010000000 1.0
C      1  0.5245170000000  0.4797280000000  0.5476330000000 1.0
C      1  0.4925290000000  0.5553860000000  0.4965590000000 1.0
C      1  0.5168900000000  0.5601400000000  0.4828090000000 1.0
C      1  0.4274240000000  0.4982270000000  0.5199140000000 1.0
C      1  0.4412770000000  0.4929220000000  0.4911780000000 1.0
C      1  0.4549710000000  0.4567380000000  0.4609500000000 1.0
C      1  0.4976470000000  0.5174060000000  0.5077630000000 1.0
C      1  0.5117210000000  0.5152600000000  0.4767930000000 1.0
C      1  0.4957270000000  0.4731080000000  0.5324650000000 1.0
C      1  0.5379580000000  0.5452920000000  0.4743470000000 1.0
END
