TITL C-2778434-4341-48 -0.00421374176771833 125000 -883.15954323604 0 0 151 (C1) n - 1
REM
REM in /home/nfs/bkarasulu/CARBON/AIRSS/Generating-Clusters/REBO/Only-C1/SD-CG/HFTN-CG
REM
REM
REM
REM
REM
REM ./C.cell (11c1c37f851c82e70ff6c80c92926a4b)
REM
REM compiler GCC version 9.2.1 20190827 (Red Hat 9.2.1-1)
REM options -cpp -mtune=generic -march=x86-64 -g -O0 -fpre-include=/usr/include/finclude/math-vector-fortran.h
REM seed 483629108 1878926424 555673822 -1358301731 -517262589 272554310 -1780439705 -587706466 -1039620801 -299167370 2127572674 197343333 1530442101 -554000919 -1284763914 668266357 -1703462594 1570108642 1291908371 -1336740652 538726772 -559561764 407291095 1576775778 1319341163 -674515375 1569045043 367445458 1064698585 1603157587 2090485247 -1833446602 -908007909
REM
CELL 1.54180   50.00000   50.00000   50.00000   90.00000   90.00000   90.00000
LATT -1
SFAC C  
C      1  0.4416400000000  0.5570830000000  0.5486200000000 1.0
C      1  0.5529040000000  0.5627180000000  0.4457110000000 1.0
C      1  0.5223460000000  0.4858500000000  0.6084840000000 1.0
C      1  0.4571570000000  0.4035130000000  0.5207000000000 1.0
C      1  0.4144580000000  0.4976660000000  0.4811860000000 1.0
C      1  0.5810890000000  0.4882280000000  0.4386770000000 1.0
C      1  0.5703260000000  0.5116720000000  0.4248060000000 1.0
C      1  0.5023510000000  0.4231570000000  0.4157210000000 1.0
C      1  0.4644450000000  0.5319810000000  0.4147160000000 1.0
C      1  0.4622890000000  0.4476650000000  0.5743010000000 1.0
C      1  0.4969910000000  0.4648010000000  0.6013920000000 1.0
C      1  0.4944490000000  0.5577830000000  0.4199980000000 1.0
C      1  0.5571390000000  0.5873270000000  0.4919550000000 1.0
C      1  0.4433640000000  0.5769030000000  0.5208760000000 1.0
C      1  0.4638820000000  0.5990740000000  0.5104670000000 1.0
C      1  0.5982420000000  0.4815470000000  0.4972330000000 1.0
C      1  0.5266350000000  0.4328720000000  0.5315230000000 1.0
C      1  0.4816390000000  0.5073360000000  0.5328320000000 1.0
C      1  0.5743480000000  0.4615590000000  0.5571520000000 1.0
C      1  0.4094790000000  0.5254570000000  0.5225850000000 1.0
C      1  0.4492420000000  0.4648150000000  0.5515280000000 1.0
C      1  0.5746800000000  0.5386050000000  0.4419410000000 1.0
C      1  0.4943710000000  0.5162490000000  0.4104340000000 1.0
C      1  0.4393270000000  0.4414660000000  0.4952960000000 1.0
C      1  0.5173000000000  0.4441240000000  0.4389660000000 1.0
C      1  0.5489240000000  0.5245730000000  0.4569430000000 1.0
C      1  0.4247720000000  0.5470440000000  0.4661260000000 1.0
C      1  0.4610970000000  0.5268720000000  0.5909480000000 1.0
C      1  0.5751840000000  0.5371050000000  0.5231470000000 1.0
C      1  0.4869980000000  0.4969430000000  0.5961730000000 1.0
C      1  0.5197490000000  0.5373400000000  0.4101960000000 1.0
C      1  0.5041260000000  0.4914920000000  0.5435190000000 1.0
C      1  0.5373060000000  0.4876130000000  0.5019540000000 1.0
C      1  0.4564170000000  0.4363440000000  0.4595380000000 1.0
C      1  0.4790850000000  0.4673520000000  0.4484370000000 1.0
C      1  0.5026770000000  0.4860240000000  0.3991000000000 1.0
C      1  0.5222260000000  0.4727900000000  0.5277650000000 1.0
C      1  0.5705530000000  0.4368360000000  0.4440270000000 1.0
C      1  0.5101480000000  0.5924930000000  0.5734720000000 1.0
C      1  0.5088290000000  0.5434240000000  0.5828210000000 1.0
C      1  0.5643690000000  0.5466780000000  0.5497680000000 1.0
C      1  0.5307030000000  0.4687710000000  0.5805660000000 1.0
C      1  0.5259900000000  0.4419110000000  0.4050630000000 1.0
C      1  0.4450900000000  0.5631610000000  0.4443800000000 1.0
C      1  0.4653600000000  0.4567370000000  0.4843720000000 1.0
C      1  0.5498410000000  0.5174180000000  0.5492270000000 1.0
C      1  0.5241110000000  0.4719270000000  0.4112220000000 1.0
C      1  0.4549190000000  0.4982060000000  0.5974490000000 1.0
C      1  0.5270030000000  0.5693730000000  0.5803080000000 1.0
C      1  0.4870070000000  0.5473280000000  0.4814200000000 1.0
C      1  0.5493640000000  0.5679800000000  0.5611080000000 1.0
C      1  0.5600570000000  0.5111130000000  0.5067330000000 1.0
C      1  0.4252860000000  0.4956440000000  0.4188460000000 1.0
C      1  0.4833730000000  0.5891450000000  0.5579510000000 1.0
C      1  0.4739080000000  0.4547990000000  0.5303480000000 1.0
C      1  0.5541100000000  0.5477240000000  0.4917950000000 1.0
C      1  0.5604200000000  0.4368640000000  0.5619450000000 1.0
C      1  0.5285930000000  0.4013920000000  0.4523890000000 1.0
C      1  0.4971410000000  0.5968360000000  0.4759840000000 1.0
C      1  0.5071850000000  0.4982220000000  0.4669680000000 1.0
C      1  0.4983290000000  0.4103880000000  0.5482630000000 1.0
C      1  0.4306130000000  0.5312540000000  0.5019510000000 1.0
C      1  0.4610280000000  0.4840700000000  0.5186440000000 1.0
C      1  0.4963460000000  0.4673190000000  0.4898510000000 1.0
C      1  0.4181840000000  0.5093690000000  0.5646400000000 1.0
C      1  0.4944750000000  0.4946260000000  0.4368810000000 1.0
C      1  0.4817460000000  0.4176460000000  0.4703000000000 1.0
C      1  0.4146370000000  0.4833840000000  0.4440560000000 1.0
C      1  0.4525580000000  0.4981960000000  0.5476690000000 1.0
C      1  0.5138200000000  0.4429390000000  0.5026440000000 1.0
C      1  0.5453850000000  0.4347140000000  0.4930440000000 1.0
C      1  0.5048150000000  0.4870140000000  0.5693310000000 1.0
C      1  0.4485250000000  0.5241300000000  0.4745770000000 1.0
C      1  0.5154330000000  0.5467120000000  0.5495780000000 1.0
C      1  0.5092910000000  0.5275790000000  0.4549480000000 1.0
C      1  0.5118990000000  0.3884750000000  0.5290170000000 1.0
C      1  0.4849010000000  0.5382140000000  0.5461550000000 1.0
C      1  0.5881830000000  0.4996780000000  0.5176630000000 1.0
C      1  0.4193960000000  0.4366440000000  0.4707170000000 1.0
C      1  0.5667190000000  0.4637930000000  0.4382910000000 1.0
C      1  0.5410890000000  0.5013520000000  0.5773920000000 1.0
C      1  0.5350540000000  0.5363350000000  0.5247050000000 1.0
C      1  0.4731420000000  0.5739970000000  0.4377470000000 1.0
C      1  0.4343420000000  0.5624120000000  0.4952080000000 1.0
C      1  0.4164120000000  0.5164850000000  0.4527190000000 1.0
C      1  0.5375330000000  0.4700300000000  0.4417190000000 1.0
C      1  0.4901890000000  0.6033350000000  0.5277720000000 1.0
C      1  0.5044770000000  0.5611570000000  0.5201470000000 1.0
C      1  0.5616060000000  0.5039250000000  0.4754280000000 1.0
C      1  0.4897700000000  0.4504800000000  0.5773820000000 1.0
C      1  0.4590970000000  0.5658150000000  0.4742420000000 1.0
C      1  0.5580150000000  0.4071570000000  0.4387100000000 1.0
C      1  0.4730040000000  0.4804250000000  0.4114350000000 1.0
C      1  0.4744680000000  0.5646700000000  0.5276200000000 1.0
C      1  0.4832380000000  0.5357480000000  0.4432140000000 1.0
C      1  0.5952390000000  0.4515940000000  0.5061110000000 1.0
C      1  0.4782580000000  0.5505520000000  0.5859880000000 1.0
C      1  0.5007510000000  0.4082650000000  0.4452130000000 1.0
C      1  0.4666160000000  0.5682830000000  0.5666430000000 1.0
C      1  0.5154660000000  0.5161880000000  0.5942590000000 1.0
C      1  0.4633550000000  0.4871370000000  0.4682690000000 1.0
C      1  0.5422390000000  0.5872600000000  0.5396730000000 1.0
C      1  0.4659660000000  0.4061220000000  0.5445280000000 1.0
C      1  0.4315730000000  0.4546010000000  0.4445760000000 1.0
C      1  0.4188930000000  0.4776470000000  0.5523290000000 1.0
C      1  0.4534740000000  0.5384010000000  0.5223610000000 1.0
C      1  0.4696850000000  0.5235910000000  0.4984900000000 1.0
C      1  0.5491890000000  0.4604690000000  0.5137600000000 1.0
C      1  0.5359260000000  0.4402560000000  0.5761420000000 1.0
C      1  0.4051420000000  0.4668680000000  0.4719020000000 1.0
C      1  0.5830650000000  0.5397840000000  0.4913010000000 1.0
C      1  0.5088750000000  0.6065520000000  0.4995120000000 1.0
C      1  0.5298720000000  0.5089690000000  0.4360190000000 1.0
C      1  0.4948370000000  0.5008380000000  0.4957360000000 1.0
C      1  0.5182920000000  0.5682870000000  0.4934080000000 1.0
C      1  0.5721360000000  0.4279490000000  0.5110040000000 1.0
C      1  0.4793020000000  0.4060190000000  0.4966150000000 1.0
C      1  0.4529580000000  0.5018260000000  0.4195420000000 1.0
C      1  0.5290340000000  0.5456000000000  0.4728410000000 1.0
C      1  0.5187860000000  0.6019340000000  0.5454120000000 1.0
C      1  0.5034320000000  0.4518650000000  0.5475570000000 1.0
C      1  0.4071810000000  0.4759660000000  0.5240440000000 1.0
C      1  0.5165430000000  0.4217850000000  0.5703550000000 1.0
C      1  0.5574670000000  0.5804710000000  0.4657370000000 1.0
C      1  0.4141230000000  0.4576380000000  0.5037050000000 1.0
C      1  0.4692010000000  0.5938530000000  0.4824100000000 1.0
C      1  0.5927270000000  0.4952290000000  0.4679570000000 1.0
C      1  0.4021920000000  0.5006400000000  0.5107470000000 1.0
C      1  0.4892940000000  0.4271900000000  0.5198700000000 1.0
C      1  0.5539560000000  0.4258290000000  0.5356400000000 1.0
C      1  0.5244520000000  0.5595500000000  0.4358550000000 1.0
C      1  0.5485850000000  0.4241380000000  0.4667970000000 1.0
C      1  0.4743260000000  0.4263970000000  0.4322680000000 1.0
C      1  0.5920140000000  0.5284520000000  0.4673540000000 1.0
C      1  0.4341910000000  0.5351270000000  0.4302530000000 1.0
C      1  0.4186640000000  0.5319570000000  0.5485450000000 1.0
C      1  0.5761220000000  0.4632090000000  0.5283940000000 1.0
C      1  0.5343530000000  0.4850720000000  0.4681390000000 1.0
C      1  0.5027670000000  0.3860720000000  0.5054670000000 1.0
C      1  0.5000100000000  0.5687350000000  0.4579940000000 1.0
C      1  0.4611910000000  0.5127010000000  0.4493480000000 1.0
C      1  0.4604140000000  0.5247240000000  0.5613790000000 1.0
C      1  0.5445430000000  0.5145230000000  0.4088050000000 1.0
C      1  0.5698960000000  0.4880160000000  0.5673440000000 1.0
C      1  0.4447610000000  0.4894900000000  0.4936550000000 1.0
C      1  0.5491980000000  0.5668610000000  0.5177650000000 1.0
C      1  0.4591950000000  0.4546790000000  0.4246560000000 1.0
C      1  0.4972200000000  0.4463120000000  0.4627440000000 1.0
C      1  0.4338770000000  0.4881790000000  0.5818600000000 1.0
C      1  0.5811430000000  0.5047700000000  0.5452650000000 1.0
C      1  0.5083010000000  0.5311900000000  0.5036930000000 1.0
END
