TITL C-2778435-5768-113 -0.000251788492626971 125000 -382.207081977377 0 0 66 (C1) n - 1
REM
REM in /home/nfs/bkarasulu/CARBON/AIRSS/Generating-Clusters/REBO/Only-C1/SD-CG/HFTN-CG
REM
REM
REM
REM
REM
REM ./C.cell (11c1c37f851c82e70ff6c80c92926a4b)
REM
REM compiler GCC version 9.2.1 20190827 (Red Hat 9.2.1-1)
REM options -cpp -mtune=generic -march=x86-64 -g -O0 -fpre-include=/usr/include/finclude/math-vector-fortran.h
REM seed -821854930 -975835372 108424968 -1928451502 771643248 -1371332040 981119343 2084455742 -1889644888 1387859927 609140909 366908993 434879306 1393798082 -2109590135 -1682228616 -918447945 -1126574551 -1658643124 1819237348 -1795621739 -252789161 -1396033009 1930801014 -4038342 477404127 -2104437073 -403715861 -2030701476 -708473158 -1846615715 -567645146 -1079675195
REM
CELL 1.54180   50.00000   50.00000   50.00000   90.00000   90.00000   90.00000
LATT -1
SFAC C  
C      1  0.5936600000000  0.5267910000000  0.4859540000000 1.0
C      1  0.5096710000000  0.6021450000000  0.5032150000000 1.0
C      1  0.4351770000000  0.4576930000000  0.4866150000000 1.0
C      1  0.4529440000000  0.4363990000000  0.4933170000000 1.0
C      1  0.5111540000000  0.5895460000000  0.5422040000000 1.0
C      1  0.4966280000000  0.5264410000000  0.5545900000000 1.0
C      1  0.5380500000000  0.4282200000000  0.4832070000000 1.0
C      1  0.4548170000000  0.4321340000000  0.5215050000000 1.0
C      1  0.4248140000000  0.4745000000000  0.4599060000000 1.0
C      1  0.5377310000000  0.4557730000000  0.4826590000000 1.0
C      1  0.5122590000000  0.5498860000000  0.4763280000000 1.0
C      1  0.5389970000000  0.4720300000000  0.4581030000000 1.0
C      1  0.5277870000000  0.5504420000000  0.5618650000000 1.0
C      1  0.4671940000000  0.4789100000000  0.4288660000000 1.0
C      1  0.4940350000000  0.5155030000000  0.5054890000000 1.0
C      1  0.4684160000000  0.5750420000000  0.5047990000000 1.0
C      1  0.4855370000000  0.5306210000000  0.5285130000000 1.0
C      1  0.4694770000000  0.4177290000000  0.5439380000000 1.0
C      1  0.5341500000000  0.4591510000000  0.5359490000000 1.0
C      1  0.4816210000000  0.4914130000000  0.5652530000000 1.0
C      1  0.5362320000000  0.5240010000000  0.5639650000000 1.0
C      1  0.5368600000000  0.4744370000000  0.5092670000000 1.0
C      1  0.4877660000000  0.5736620000000  0.5494740000000 1.0
C      1  0.5303160000000  0.4747870000000  0.5579420000000 1.0
C      1  0.4914880000000  0.5314370000000  0.4806610000000 1.0
C      1  0.4832860000000  0.5970800000000  0.4975980000000 1.0
C      1  0.4907230000000  0.4639640000000  0.5069370000000 1.0
C      1  0.4645310000000  0.4960960000000  0.4790640000000 1.0
C      1  0.5525080000000  0.4957160000000  0.4682540000000 1.0
C      1  0.4688870000000  0.5326600000000  0.4636520000000 1.0
C      1  0.4754100000000  0.4557920000000  0.5339290000000 1.0
C      1  0.5655320000000  0.5393600000000  0.4828580000000 1.0
C      1  0.4871100000000  0.4975110000000  0.4580150000000 1.0
C      1  0.4367290000000  0.4976970000000  0.4805310000000 1.0
C      1  0.4014140000000  0.4660920000000  0.4480910000000 1.0
C      1  0.4945510000000  0.4334780000000  0.5516220000000 1.0
C      1  0.4455360000000  0.4920330000000  0.4413870000000 1.0
C      1  0.5151950000000  0.4342610000000  0.4392740000000 1.0
C      1  0.5677360000000  0.5267880000000  0.5261090000000 1.0
C      1  0.5279960000000  0.5292370000000  0.4459920000000 1.0
C      1  0.4962610000000  0.4236170000000  0.4556730000000 1.0
C      1  0.5606460000000  0.5183520000000  0.5516710000000 1.0
C      1  0.5042070000000  0.5157830000000  0.4461430000000 1.0
C      1  0.5603190000000  0.4908400000000  0.4957390000000 1.0
C      1  0.4834050000000  0.4339830000000  0.4815040000000 1.0
C      1  0.4277550000000  0.4722820000000  0.5100590000000 1.0
C      1  0.5384500000000  0.5698360000000  0.5371410000000 1.0
C      1  0.5338960000000  0.5626700000000  0.4875070000000 1.0
C      1  0.5306350000000  0.5839850000000  0.5079190000000 1.0
C      1  0.5498990000000  0.5239890000000  0.4631860000000 1.0
C      1  0.5061000000000  0.4351150000000  0.5059380000000 1.0
C      1  0.5081700000000  0.4900060000000  0.5086590000000 1.0
C      1  0.4642330000000  0.4798670000000  0.5477050000000 1.0
C      1  0.4257660000000  0.5046070000000  0.5085130000000 1.0
C      1  0.4504000000000  0.5187670000000  0.4493240000000 1.0
C      1  0.5140060000000  0.5004130000000  0.5650860000000 1.0
C      1  0.4411050000000  0.4897340000000  0.5346870000000 1.0
C      1  0.5004370000000  0.4781160000000  0.4229070000000 1.0
C      1  0.4757230000000  0.5585570000000  0.5266550000000 1.0
C      1  0.4753670000000  0.4668470000000  0.4806120000000 1.0
C      1  0.5175840000000  0.4357010000000  0.5327890000000 1.0
C      1  0.5236490000000  0.4615830000000  0.4357880000000 1.0
C      1  0.5786330000000  0.5097300000000  0.5062840000000 1.0
C      1  0.4986870000000  0.5534860000000  0.5680320000000 1.0
C      1  0.5538700000000  0.5519100000000  0.5125700000000 1.0
C      1  0.4868700000000  0.4637640000000  0.4510130000000 1.0
END
