TITL C-2778423-5760-976 0.00229153791271514 125000 -574.921261974144 0 0 99 (C1) n - 1
REM
REM in /home/nfs/bkarasulu/CARBON/AIRSS/Generating-Clusters/REBO/Only-C1/SD-CG/HFTN-CG
REM
REM
REM
REM
REM
REM ./C.cell (11c1c37f851c82e70ff6c80c92926a4b)
REM
REM compiler GCC version 9.2.1 20190827 (Red Hat 9.2.1-1)
REM options -cpp -mtune=generic -march=x86-64 -g -O0 -fpre-include=/usr/include/finclude/math-vector-fortran.h
REM seed -753973806 -1852068849 1334090631 -580388087 84582942 1165344335 -1714598853 -303676536 226247686 123279759 -1095861107 966226808 491090373 -419322287 -716152926 -1045869416 -1920843430 742724523 139366753 -1782937413 -566135164 -612160978 -1090577860 -380625730 -2068046969 51050326 1742248717 1097472054 -10390329 -1600284959 -1631539094 903150789 -1623442173
REM
CELL 1.54180   50.00000   50.00000   50.00000   90.00000   90.00000   90.00000
LATT -1
SFAC C  
C      1  0.4485490000000  0.4314820000000  0.4870280000000 1.0
C      1  0.4679600000000  0.5691530000000  0.5459970000000 1.0
C      1  0.4850760000000  0.4926830000000  0.5435470000000 1.0
C      1  0.5683530000000  0.4648630000000  0.5234860000000 1.0
C      1  0.4312560000000  0.5204110000000  0.4527420000000 1.0
C      1  0.5422770000000  0.5250680000000  0.4299900000000 1.0
C      1  0.4607470000000  0.5241360000000  0.5424130000000 1.0
C      1  0.5670980000000  0.4833690000000  0.4316740000000 1.0
C      1  0.5542750000000  0.4314090000000  0.4845530000000 1.0
C      1  0.4973110000000  0.5079740000000  0.4197560000000 1.0
C      1  0.4207930000000  0.4965540000000  0.5266760000000 1.0
C      1  0.4761130000000  0.4783070000000  0.4456800000000 1.0
C      1  0.4519500000000  0.4612930000000  0.4343650000000 1.0
C      1  0.5032580000000  0.4858530000000  0.5887460000000 1.0
C      1  0.5517370000000  0.5094200000000  0.5563760000000 1.0
C      1  0.5522740000000  0.4785220000000  0.4771680000000 1.0
C      1  0.4531520000000  0.4916450000000  0.5339000000000 1.0
C      1  0.4874960000000  0.4643380000000  0.4905160000000 1.0
C      1  0.5879760000000  0.5003850000000  0.4408920000000 1.0
C      1  0.4930060000000  0.5590800000000  0.4383950000000 1.0
C      1  0.5583560000000  0.5011420000000  0.5093690000000 1.0
C      1  0.5045900000000  0.4583750000000  0.5967310000000 1.0
C      1  0.4360910000000  0.5262060000000  0.5239790000000 1.0
C      1  0.4519870000000  0.5279530000000  0.4334170000000 1.0
C      1  0.5367990000000  0.4454950000000  0.4427660000000 1.0
C      1  0.5144610000000  0.4634380000000  0.4345250000000 1.0
C      1  0.4651500000000  0.5541160000000  0.4311360000000 1.0
C      1  0.4586200000000  0.4680530000000  0.4988140000000 1.0
C      1  0.5246780000000  0.4252550000000  0.5002950000000 1.0
C      1  0.5166280000000  0.5581370000000  0.5454740000000 1.0
C      1  0.4826420000000  0.5824950000000  0.5238610000000 1.0
C      1  0.4918930000000  0.4265680000000  0.4604160000000 1.0
C      1  0.5188820000000  0.5773440000000  0.4832160000000 1.0
C      1  0.4688250000000  0.5083690000000  0.4204780000000 1.0
C      1  0.5863020000000  0.5047900000000  0.4907850000000 1.0
C      1  0.5740380000000  0.4544560000000  0.4739150000000 1.0
C      1  0.5613820000000  0.5595250000000  0.5723640000000 1.0
C      1  0.4851730000000  0.5386400000000  0.4782310000000 1.0
C      1  0.5394940000000  0.5352270000000  0.5015000000000 1.0
C      1  0.4366410000000  0.4378490000000  0.5129930000000 1.0
C      1  0.5842020000000  0.5371460000000  0.4803740000000 1.0
C      1  0.4407710000000  0.5059700000000  0.5823580000000 1.0
C      1  0.5227220000000  0.5190420000000  0.5419360000000 1.0
C      1  0.4445150000000  0.4692210000000  0.5678250000000 1.0
C      1  0.5035270000000  0.4944520000000  0.4880820000000 1.0
C      1  0.4521720000000  0.4599850000000  0.5298980000000 1.0
C      1  0.5723550000000  0.5050100000000  0.5350030000000 1.0
C      1  0.5117180000000  0.5716420000000  0.5147780000000 1.0
C      1  0.4991280000000  0.4495050000000  0.5348760000000 1.0
C      1  0.4974880000000  0.5744930000000  0.4633990000000 1.0
C      1  0.4634740000000  0.5669610000000  0.5033690000000 1.0
C      1  0.4570240000000  0.5470520000000  0.4694130000000 1.0
C      1  0.5466550000000  0.5737940000000  0.4768560000000 1.0
C      1  0.5083880000000  0.5333480000000  0.4648030000000 1.0
C      1  0.5354200000000  0.4299640000000  0.5324770000000 1.0
C      1  0.4978930000000  0.4381810000000  0.5069650000000 1.0
C      1  0.4225220000000  0.4944580000000  0.4612980000000 1.0
C      1  0.4880320000000  0.5512480000000  0.5603330000000 1.0
C      1  0.4588450000000  0.5082540000000  0.4788590000000 1.0
C      1  0.5333080000000  0.4464590000000  0.5554080000000 1.0
C      1  0.4765210000000  0.4263550000000  0.4850300000000 1.0
C      1  0.5584850000000  0.4386790000000  0.5161320000000 1.0
C      1  0.4692800000000  0.4810690000000  0.5688720000000 1.0
C      1  0.5221640000000  0.4875680000000  0.5665530000000 1.0
C      1  0.5375160000000  0.5259570000000  0.4598890000000 1.0
C      1  0.5559970000000  0.5094540000000  0.4759090000000 1.0
C      1  0.5421630000000  0.5420770000000  0.5574440000000 1.0
C      1  0.4326090000000  0.5156700000000  0.4936260000000 1.0
C      1  0.5622020000000  0.4581020000000  0.4443720000000 1.0
C      1  0.5192940000000  0.4422480000000  0.5795900000000 1.0
C      1  0.4791210000000  0.5369030000000  0.5880390000000 1.0
C      1  0.4742980000000  0.5033980000000  0.5921680000000 1.0
C      1  0.4289350000000  0.4671720000000  0.4493010000000 1.0
C      1  0.5297650000000  0.4976130000000  0.5180050000000 1.0
C      1  0.5591760000000  0.5500740000000  0.4868130000000 1.0
C      1  0.4422790000000  0.5628990000000  0.5382840000000 1.0
C      1  0.4701860000000  0.5753750000000  0.4736300000000 1.0
C      1  0.5076460000000  0.4629110000000  0.4638300000000 1.0
C      1  0.4799590000000  0.4448130000000  0.4414090000000 1.0
C      1  0.5846740000000  0.4730910000000  0.4995920000000 1.0
C      1  0.4254890000000  0.5431230000000  0.4762200000000 1.0
C      1  0.4230150000000  0.4892680000000  0.5599150000000 1.0
C      1  0.5121770000000  0.4776840000000  0.5365950000000 1.0
C      1  0.4159130000000  0.4877540000000  0.4942240000000 1.0
C      1  0.4537170000000  0.5301600000000  0.5712180000000 1.0
C      1  0.5936080000000  0.5225250000000  0.4557400000000 1.0
C      1  0.4742630000000  0.4476590000000  0.5472640000000 1.0
C      1  0.4937970000000  0.5235830000000  0.5439540000000 1.0
C      1  0.5109210000000  0.5339380000000  0.4312500000000 1.0
C      1  0.5498070000000  0.4756730000000  0.5499720000000 1.0
C      1  0.4900160000000  0.5460670000000  0.5091880000000 1.0
C      1  0.4321900000000  0.4610340000000  0.4807530000000 1.0
C      1  0.4351580000000  0.5534520000000  0.5063650000000 1.0
C      1  0.5174790000000  0.4870100000000  0.4190230000000 1.0
C      1  0.5101010000000  0.5211310000000  0.5040700000000 1.0
C      1  0.5254800000000  0.4269460000000  0.4662490000000 1.0
C      1  0.5446790000000  0.4978570000000  0.4203830000000 1.0
C      1  0.4798170000000  0.4960740000000  0.4675220000000 1.0
C      1  0.5266540000000  0.4720790000000  0.4851350000000 1.0
END
