TITL C-2778422-5617-244 0.00151507477936185 125000 -1017.2689982094 0 0 178 (C1) n - 1
REM
REM in /home/nfs/bkarasulu/CARBON/AIRSS/Generating-Clusters/REBO/Only-C1/SD-CG/HFTN-CG
REM
REM
REM
REM
REM
REM ./C.cell (11c1c37f851c82e70ff6c80c92926a4b)
REM
REM compiler GCC version 9.2.1 20190827 (Red Hat 9.2.1-1)
REM options -cpp -mtune=generic -march=x86-64 -g -O0 -fpre-include=/usr/include/finclude/math-vector-fortran.h
REM seed 499765568 -170372704 1620437091 650642559 -92570248 -1219835901 1301241162 -1282767095 -154436329 347166432 -939349120 -1670793710 -1161428273 417842858 -910710741 112220990 -1413917604 1421121526 798953113 -469806805 314593555 -545690355 952403028 -126567349 178561269 -7931220 440149944 -1342502204 1580971068 1581367270 2055138656 -2101172459 -511500519
REM
CELL 1.54180   50.00000   50.00000   50.00000   90.00000   90.00000   90.00000
LATT -1
SFAC C  
C      1  0.5746010000000  0.4371490000000  0.4868210000000 1.0
C      1  0.5183270000000  0.5409090000000  0.5411870000000 1.0
C      1  0.4987200000000  0.4019400000000  0.5424350000000 1.0
C      1  0.5317070000000  0.5158170000000  0.4318870000000 1.0
C      1  0.4486080000000  0.5814350000000  0.5209920000000 1.0
C      1  0.5179420000000  0.4390880000000  0.4141250000000 1.0
C      1  0.4377620000000  0.5198770000000  0.4163630000000 1.0
C      1  0.4888760000000  0.5096180000000  0.5132870000000 1.0
C      1  0.4588810000000  0.4938680000000  0.4104520000000 1.0
C      1  0.5451320000000  0.5082270000000  0.5947980000000 1.0
C      1  0.4568740000000  0.4062290000000  0.5631390000000 1.0
C      1  0.4575930000000  0.5175700000000  0.4671000000000 1.0
C      1  0.5947530000000  0.4639210000000  0.4420400000000 1.0
C      1  0.5227120000000  0.4129140000000  0.4314650000000 1.0
C      1  0.5192770000000  0.4428780000000  0.5544830000000 1.0
C      1  0.4145190000000  0.5597440000000  0.4844130000000 1.0
C      1  0.5232320000000  0.5605370000000  0.5784810000000 1.0
C      1  0.4877620000000  0.5002170000000  0.3985610000000 1.0
C      1  0.4397910000000  0.4267200000000  0.5180330000000 1.0
C      1  0.5015330000000  0.6002370000000  0.4506390000000 1.0
C      1  0.4666810000000  0.5730310000000  0.4081650000000 1.0
C      1  0.4149190000000  0.5490710000000  0.5487620000000 1.0
C      1  0.6109410000000  0.4890450000000  0.4997560000000 1.0
C      1  0.5648110000000  0.5611360000000  0.5526920000000 1.0
C      1  0.4402140000000  0.4687980000000  0.4782630000000 1.0
C      1  0.5426690000000  0.5318830000000  0.5201520000000 1.0
C      1  0.4982220000000  0.5483830000000  0.5787370000000 1.0
C      1  0.6027290000000  0.4425510000000  0.4746650000000 1.0
C      1  0.4720320000000  0.5887570000000  0.4380020000000 1.0
C      1  0.4001850000000  0.5330730000000  0.5224770000000 1.0
C      1  0.5898740000000  0.4997410000000  0.4587950000000 1.0
C      1  0.5540680000000  0.4514090000000  0.4694000000000 1.0
C      1  0.5667530000000  0.5255640000000  0.4891680000000 1.0
C      1  0.6128430000000  0.5177000000000  0.4973300000000 1.0
C      1  0.4588760000000  0.4002900000000  0.5140940000000 1.0
C      1  0.4426950000000  0.4937530000000  0.5867140000000 1.0
C      1  0.6078780000000  0.5498010000000  0.4638290000000 1.0
C      1  0.4677000000000  0.4315400000000  0.4747110000000 1.0
C      1  0.4597590000000  0.5170300000000  0.5848150000000 1.0
C      1  0.5444400000000  0.4657100000000  0.5563140000000 1.0
C      1  0.5508160000000  0.4466690000000  0.5313760000000 1.0
C      1  0.4457370000000  0.4647700000000  0.5893050000000 1.0
C      1  0.3957690000000  0.4896450000000  0.4908580000000 1.0
C      1  0.4791560000000  0.4280710000000  0.5193420000000 1.0
C      1  0.4671230000000  0.4482910000000  0.5976110000000 1.0
C      1  0.5307220000000  0.4700400000000  0.4077030000000 1.0
C      1  0.4976480000000  0.5629260000000  0.5254910000000 1.0
C      1  0.5389270000000  0.4930280000000  0.5445960000000 1.0
C      1  0.4412090000000  0.4311420000000  0.5502740000000 1.0
C      1  0.5667650000000  0.4617780000000  0.4410860000000 1.0
C      1  0.5210730000000  0.5098350000000  0.6154710000000 1.0
C      1  0.4993190000000  0.4350970000000  0.4693800000000 1.0
C      1  0.5117210000000  0.4096280000000  0.5884190000000 1.0
C      1  0.5217170000000  0.5907900000000  0.4662080000000 1.0
C      1  0.4711130000000  0.5798560000000  0.5652710000000 1.0
C      1  0.5102500000000  0.4181700000000  0.5626380000000 1.0
C      1  0.5465290000000  0.5457450000000  0.5688570000000 1.0
C      1  0.5704080000000  0.5714650000000  0.5263710000000 1.0
C      1  0.4945420000000  0.5310110000000  0.3965260000000 1.0
C      1  0.4303840000000  0.5132580000000  0.5054090000000 1.0
C      1  0.4050300000000  0.4528420000000  0.5236260000000 1.0
C      1  0.5230010000000  0.4640920000000  0.5944960000000 1.0
C      1  0.5887180000000  0.4808810000000  0.5505740000000 1.0
C      1  0.5047930000000  0.3860110000000  0.4681680000000 1.0
C      1  0.4930870000000  0.5499780000000  0.4840670000000 1.0
C      1  0.4766190000000  0.4700100000000  0.5521230000000 1.0
C      1  0.5461530000000  0.4860530000000  0.4308990000000 1.0
C      1  0.4017260000000  0.4353260000000  0.5498370000000 1.0
C      1  0.5058150000000  0.4078060000000  0.5129470000000 1.0
C      1  0.5700840000000  0.4683440000000  0.5761030000000 1.0
C      1  0.5003650000000  0.4833550000000  0.5317600000000 1.0
C      1  0.4442040000000  0.5689280000000  0.4343490000000 1.0
C      1  0.5745920000000  0.5240970000000  0.4050750000000 1.0
C      1  0.4346920000000  0.4645200000000  0.5198510000000 1.0
C      1  0.5014290000000  0.5245880000000  0.4271200000000 1.0
C      1  0.4295740000000  0.5459370000000  0.5117650000000 1.0
C      1  0.5196860000000  0.4503760000000  0.4912040000000 1.0
C      1  0.4742920000000  0.4392390000000  0.5488020000000 1.0
C      1  0.4529150000000  0.4903250000000  0.5089950000000 1.0
C      1  0.5322390000000  0.5950970000000  0.5152680000000 1.0
C      1  0.5658530000000  0.4160350000000  0.5328330000000 1.0
C      1  0.5565540000000  0.4938550000000  0.4624940000000 1.0
C      1  0.5595220000000  0.5741030000000  0.4392270000000 1.0
C      1  0.4936190000000  0.4602030000000  0.6091780000000 1.0
C      1  0.5414960000000  0.4751110000000  0.4869550000000 1.0
C      1  0.5173340000000  0.5054750000000  0.4989200000000 1.0
C      1  0.4847990000000  0.4424630000000  0.4115420000000 1.0
C      1  0.5962490000000  0.5402230000000  0.5113200000000 1.0
C      1  0.4717690000000  0.3941590000000  0.5427380000000 1.0
C      1  0.4539680000000  0.5570660000000  0.4823120000000 1.0
C      1  0.5267670000000  0.5738790000000  0.5400630000000 1.0
C      1  0.5349990000000  0.4494360000000  0.4418630000000 1.0
C      1  0.4168130000000  0.4417320000000  0.4635140000000 1.0
C      1  0.4649930000000  0.4737220000000  0.4376530000000 1.0
C      1  0.4998020000000  0.3836470000000  0.4948060000000 1.0
C      1  0.4257080000000  0.4505490000000  0.5692990000000 1.0
C      1  0.5394030000000  0.4923140000000  0.5153480000000 1.0
C      1  0.4626830000000  0.5256540000000  0.4360230000000 1.0
C      1  0.5196450000000  0.4587690000000  0.5242420000000 1.0
C      1  0.4337060000000  0.4981270000000  0.4680560000000 1.0
C      1  0.4320920000000  0.5513850000000  0.4567950000000 1.0
C      1  0.4719520000000  0.5759870000000  0.5331960000000 1.0
C      1  0.4172500000000  0.4967980000000  0.5732700000000 1.0
C      1  0.5200520000000  0.5506180000000  0.5028620000000 1.0
C      1  0.4855980000000  0.4806130000000  0.5831570000000 1.0
C      1  0.5031510000000  0.6025370000000  0.5255060000000 1.0
C      1  0.4438680000000  0.5606830000000  0.5578040000000 1.0
C      1  0.5870540000000  0.4821180000000  0.5164790000000 1.0
C      1  0.5590560000000  0.5535930000000  0.4119210000000 1.0
C      1  0.5292680000000  0.4224780000000  0.5025450000000 1.0
C      1  0.4420110000000  0.5496740000000  0.4063630000000 1.0
C      1  0.4970640000000  0.4726620000000  0.4105000000000 1.0
C      1  0.4767490000000  0.4788070000000  0.4909760000000 1.0
C      1  0.5573390000000  0.5449780000000  0.4664460000000 1.0
C      1  0.4509260000000  0.5421070000000  0.5330380000000 1.0
C      1  0.4989670000000  0.4937130000000  0.6118980000000 1.0
C      1  0.4556970000000  0.4324900000000  0.3973740000000 1.0
C      1  0.5227700000000  0.5890220000000  0.5690520000000 1.0
C      1  0.4006800000000  0.5042160000000  0.4619170000000 1.0
C      1  0.4108670000000  0.5269810000000  0.4830400000000 1.0
C      1  0.4308120000000  0.4805950000000  0.4186560000000 1.0
C      1  0.5304960000000  0.5728480000000  0.4315840000000 1.0
C      1  0.3959390000000  0.4259470000000  0.4533000000000 1.0
C      1  0.4839860000000  0.6013870000000  0.5047830000000 1.0
C      1  0.4107040000000  0.4736900000000  0.5503240000000 1.0
C      1  0.4869320000000  0.5031480000000  0.4730850000000 1.0
C      1  0.4328010000000  0.4656460000000  0.4450600000000 1.0
C      1  0.4516490000000  0.4824800000000  0.5421920000000 1.0
C      1  0.4856100000000  0.4648580000000  0.4622550000000 1.0
C      1  0.5309830000000  0.5590420000000  0.4753610000000 1.0
C      1  0.4071360000000  0.4593740000000  0.4911420000000 1.0
C      1  0.4547420000000  0.3811800000000  0.4950760000000 1.0
C      1  0.5571850000000  0.4177020000000  0.5047130000000 1.0
C      1  0.4477710000000  0.4301970000000  0.4548240000000 1.0
C      1  0.5244520000000  0.4893660000000  0.5815050000000 1.0
C      1  0.5029510000000  0.4982600000000  0.5611300000000 1.0
C      1  0.5220190000000  0.5023700000000  0.4013730000000 1.0
C      1  0.5084470000000  0.4673040000000  0.4406790000000 1.0
C      1  0.5437030000000  0.5273330000000  0.3957740000000 1.0
C      1  0.4978600000000  0.5975160000000  0.5542380000000 1.0
C      1  0.4829920000000  0.5006700000000  0.4414420000000 1.0
C      1  0.5665740000000  0.5010990000000  0.5039530000000 1.0
C      1  0.6102450000000  0.5221440000000  0.4687250000000 1.0
C      1  0.4837800000000  0.5654170000000  0.4576210000000 1.0
C      1  0.5596900000000  0.5550400000000  0.5049270000000 1.0
C      1  0.4687530000000  0.5874270000000  0.4870210000000 1.0
C      1  0.5077950000000  0.5265440000000  0.4663370000000 1.0
C      1  0.5750920000000  0.5292880000000  0.5308560000000 1.0
C      1  0.4793360000000  0.5505230000000  0.4291590000000 1.0
C      1  0.4732380000000  0.5275150000000  0.5349680000000 1.0
C      1  0.4695910000000  0.5312090000000  0.4953640000000 1.0
C      1  0.5663380000000  0.5772990000000  0.4724710000000 1.0
C      1  0.4295950000000  0.5842650000000  0.5008500000000 1.0
C      1  0.3913550000000  0.5076650000000  0.5119450000000 1.0
C      1  0.4592090000000  0.4496880000000  0.4999480000000 1.0
C      1  0.4852060000000  0.5228700000000  0.5629480000000 1.0
C      1  0.5326360000000  0.5115660000000  0.4738830000000 1.0
C      1  0.4133370000000  0.5215020000000  0.5580280000000 1.0
C      1  0.5559260000000  0.5334400000000  0.4389680000000 1.0
C      1  0.5930760000000  0.5622980000000  0.4855970000000 1.0
C      1  0.5433900000000  0.5939860000000  0.4895040000000 1.0
C      1  0.4572250000000  0.4318970000000  0.4289160000000 1.0
C      1  0.5477510000000  0.4520860000000  0.5937590000000 1.0
C      1  0.5129180000000  0.5553810000000  0.4498460000000 1.0
C      1  0.5104930000000  0.4104390000000  0.4555540000000 1.0
C      1  0.4715030000000  0.4270700000000  0.5800310000000 1.0
C      1  0.5813410000000  0.5122720000000  0.4319070000000 1.0
C      1  0.4242170000000  0.5227810000000  0.4458200000000 1.0
C      1  0.5774330000000  0.4503290000000  0.5158510000000 1.0
C      1  0.6089510000000  0.4744540000000  0.4711450000000 1.0
C      1  0.4406990000000  0.5874790000000  0.4708740000000 1.0
C      1  0.4644230000000  0.5507380000000  0.5821870000000 1.0
C      1  0.5840160000000  0.5945380000000  0.5219250000000 1.0
C      1  0.5372270000000  0.5183580000000  0.5571230000000 1.0
C      1  0.5798400000000  0.5130850000000  0.5532140000000 1.0
C      1  0.4238650000000  0.5005450000000  0.5342550000000 1.0
C      1  0.5690670000000  0.5010050000000  0.5790030000000 1.0
C      1  0.6007720000000  0.4516840000000  0.5377410000000 1.0
END
