TITL C-2778427-5640-135 0.000500889488928207 125000 -635.947908464886 0 0 111 (C1) n - 1
REM
REM in /home/nfs/bkarasulu/CARBON/AIRSS/Generating-Clusters/REBO/Only-C1/SD-CG/HFTN-CG
REM
REM
REM
REM
REM
REM ./C.cell (11c1c37f851c82e70ff6c80c92926a4b)
REM
REM compiler GCC version 9.2.1 20190827 (Red Hat 9.2.1-1)
REM options -cpp -mtune=generic -march=x86-64 -g -O0 -fpre-include=/usr/include/finclude/math-vector-fortran.h
REM seed 1679526416 -1552734935 -1627914405 558350847 43844784 -431690160 611950409 161497557 1717335401 -1690464606 2109740924 -569706198 1018119528 432991810 -1095741765 -1135264315 -1444094296 236360018 330526962 1014225105 -1668900358 353633694 1486986744 958660925 -598673236 -239709384 1945375013 -1897225547 -1139128340 -1136431514 934605710 -1800570644 707585259
REM
CELL 1.54180   50.00000   50.00000   50.00000   90.00000   90.00000   90.00000
LATT -1
SFAC C  
C      1  0.4823920000000  0.5046540000000  0.4748930000000 1.0
C      1  0.5162630000000  0.5827040000000  0.5491410000000 1.0
C      1  0.4618460000000  0.4909870000000  0.5825370000000 1.0
C      1  0.4654390000000  0.4390330000000  0.5539590000000 1.0
C      1  0.4580720000000  0.4258920000000  0.5267700000000 1.0
C      1  0.5430760000000  0.4635280000000  0.4384110000000 1.0
C      1  0.5456020000000  0.5315440000000  0.4635220000000 1.0
C      1  0.5107140000000  0.5607530000000  0.5691450000000 1.0
C      1  0.5078470000000  0.4571070000000  0.5206200000000 1.0
C      1  0.4407210000000  0.4711630000000  0.5833590000000 1.0
C      1  0.5918850000000  0.4933790000000  0.4901530000000 1.0
C      1  0.5188910000000  0.4487010000000  0.5517580000000 1.0
C      1  0.4850580000000  0.5455760000000  0.5764760000000 1.0
C      1  0.4786970000000  0.5816460000000  0.3968270000000 1.0
C      1  0.3991740000000  0.4799250000000  0.5109540000000 1.0
C      1  0.5704920000000  0.4685010000000  0.5364290000000 1.0
C      1  0.4336010000000  0.5122950000000  0.4492810000000 1.0
C      1  0.5059220000000  0.4210200000000  0.4489010000000 1.0
C      1  0.5285640000000  0.5375560000000  0.5544440000000 1.0
C      1  0.4729000000000  0.4781790000000  0.4584890000000 1.0
C      1  0.4133330000000  0.5237310000000  0.5447780000000 1.0
C      1  0.5031870000000  0.5027280000000  0.5265800000000 1.0
C      1  0.5259820000000  0.5054040000000  0.4764770000000 1.0
C      1  0.5485110000000  0.4978020000000  0.4186980000000 1.0
C      1  0.4801150000000  0.4983730000000  0.5068330000000 1.0
C      1  0.5012000000000  0.5081370000000  0.4460510000000 1.0
C      1  0.5854990000000  0.5300480000000  0.5271990000000 1.0
C      1  0.4619990000000  0.5440000000000  0.4998330000000 1.0
C      1  0.4799860000000  0.5597900000000  0.4112320000000 1.0
C      1  0.4823680000000  0.4619030000000  0.4119310000000 1.0
C      1  0.5461420000000  0.5200880000000  0.5748220000000 1.0
C      1  0.5666930000000  0.5076100000000  0.5678160000000 1.0
C      1  0.4979550000000  0.5344950000000  0.5377220000000 1.0
C      1  0.5325560000000  0.4856600000000  0.5331990000000 1.0
C      1  0.4341060000000  0.4500910000000  0.4424120000000 1.0
C      1  0.5122940000000  0.4958380000000  0.5772630000000 1.0
C      1  0.5188870000000  0.5462120000000  0.4720830000000 1.0
C      1  0.5359120000000  0.4824020000000  0.5638760000000 1.0
C      1  0.4272720000000  0.5219510000000  0.5165980000000 1.0
C      1  0.4325980000000  0.5563490000000  0.4954760000000 1.0
C      1  0.5630500000000  0.4542790000000  0.4578430000000 1.0
C      1  0.5322010000000  0.4325430000000  0.5193350000000 1.0
C      1  0.4521870000000  0.4638010000000  0.4274860000000 1.0
C      1  0.5235740000000  0.4503380000000  0.4850620000000 1.0
C      1  0.4809870000000  0.4645270000000  0.5375730000000 1.0
C      1  0.4960940000000  0.4689860000000  0.4415520000000 1.0
C      1  0.4185990000000  0.5053380000000  0.4715770000000 1.0
C      1  0.4088520000000  0.4918270000000  0.5350420000000 1.0
C      1  0.4169040000000  0.4777630000000  0.4842290000000 1.0
C      1  0.4273630000000  0.5665970000000  0.5246710000000 1.0
C      1  0.5652380000000  0.5797670000000  0.4787800000000 1.0
C      1  0.4382570000000  0.4902800000000  0.5383800000000 1.0
C      1  0.4433040000000  0.4615850000000  0.4976050000000 1.0
C      1  0.4933890000000  0.5977090000000  0.5416700000000 1.0
C      1  0.4451770000000  0.5370660000000  0.4529950000000 1.0
C      1  0.5509800000000  0.4499200000000  0.5413050000000 1.0
C      1  0.4725670000000  0.5106380000000  0.4183820000000 1.0
C      1  0.5699460000000  0.5025690000000  0.4386450000000 1.0
C      1  0.5326780000000  0.5168970000000  0.5287280000000 1.0
C      1  0.4864900000000  0.4795160000000  0.5678230000000 1.0
C      1  0.5946390000000  0.5078140000000  0.4596600000000 1.0
C      1  0.4513310000000  0.5141420000000  0.5516970000000 1.0
C      1  0.5173790000000  0.5537540000000  0.5034210000000 1.0
C      1  0.5205660000000  0.5041030000000  0.4183030000000 1.0
C      1  0.4413860000000  0.4488650000000  0.5712530000000 1.0
C      1  0.5567190000000  0.4313660000000  0.4731190000000 1.0
C      1  0.5907320000000  0.4815370000000  0.5152300000000 1.0
C      1  0.4168420000000  0.5268660000000  0.4897740000000 1.0
C      1  0.5069910000000  0.4033090000000  0.5095170000000 1.0
C      1  0.5981990000000  0.5347210000000  0.4702270000000 1.0
C      1  0.4933810000000  0.4931590000000  0.4098140000000 1.0
C      1  0.4532380000000  0.4944710000000  0.4361550000000 1.0
C      1  0.5574830000000  0.4378450000000  0.5011580000000 1.0
C      1  0.5092840000000  0.4210760000000  0.4884920000000 1.0
C      1  0.4197740000000  0.4282620000000  0.4852520000000 1.0
C      1  0.5492040000000  0.5589140000000  0.5432510000000 1.0
C      1  0.4579390000000  0.4774950000000  0.5193380000000 1.0
C      1  0.4335080000000  0.5490600000000  0.5451540000000 1.0
C      1  0.4296190000000  0.5754000000000  0.4751900000000 1.0
C      1  0.5139110000000  0.4801010000000  0.4957460000000 1.0
C      1  0.5336960000000  0.5743770000000  0.5211530000000 1.0
C      1  0.5637630000000  0.5117240000000  0.4846400000000 1.0
C      1  0.4861190000000  0.5561500000000  0.5142110000000 1.0
C      1  0.5647970000000  0.4836420000000  0.4651900000000 1.0
C      1  0.4778310000000  0.5850120000000  0.5231440000000 1.0
C      1  0.4690760000000  0.5354050000000  0.4723230000000 1.0
C      1  0.4728310000000  0.4333500000000  0.5017330000000 1.0
C      1  0.4953230000000  0.5377420000000  0.4559690000000 1.0
C      1  0.4590200000000  0.5238550000000  0.5822520000000 1.0
C      1  0.4922510000000  0.4460800000000  0.5710150000000 1.0
C      1  0.4200670000000  0.4503370000000  0.4670750000000 1.0
C      1  0.5739650000000  0.5964820000000  0.4585450000000 1.0
C      1  0.4902400000000  0.5138770000000  0.5879260000000 1.0
C      1  0.4651650000000  0.4547060000000  0.4757950000000 1.0
C      1  0.5435740000000  0.4684360000000  0.5068550000000 1.0
C      1  0.5899870000000  0.5368840000000  0.5009120000000 1.0
C      1  0.5701890000000  0.5502610000000  0.4762270000000 1.0
C      1  0.5226030000000  0.4821960000000  0.4515580000000 1.0
C      1  0.5512840000000  0.4685870000000  0.4095920000000 1.0
C      1  0.4583670000000  0.5184440000000  0.5184540000000 1.0
C      1  0.5749870000000  0.5511510000000  0.5427770000000 1.0
C      1  0.4339720000000  0.4334510000000  0.5106700000000 1.0
C      1  0.5215650000000  0.4586120000000  0.5833670000000 1.0
C      1  0.4813480000000  0.5367200000000  0.4264360000000 1.0
C      1  0.4668500000000  0.5433150000000  0.5485570000000 1.0
C      1  0.5523050000000  0.5883640000000  0.5011300000000 1.0
C      1  0.5021960000000  0.4396570000000  0.4280010000000 1.0
C      1  0.4820960000000  0.4256380000000  0.4705190000000 1.0
C      1  0.5327410000000  0.4174520000000  0.4648270000000 1.0
C      1  0.5808270000000  0.5010640000000  0.5404120000000 1.0
C      1  0.5372460000000  0.5260690000000  0.5013550000000 1.0
END
