TITL C-2778428-5639-336 -0.122233834035024 125000 -745.525226170814 0 0 130 (C1) n - 1
REM
REM in /home/nfs/bkarasulu/CARBON/AIRSS/Generating-Clusters/REBO/Only-C1/SD-CG/HFTN-CG
REM
REM
REM
REM
REM
REM ./C.cell (11c1c37f851c82e70ff6c80c92926a4b)
REM
REM compiler GCC version 9.2.1 20190827 (Red Hat 9.2.1-1)
REM options -cpp -mtune=generic -march=x86-64 -g -O0 -fpre-include=/usr/include/finclude/math-vector-fortran.h
REM seed -1213609627 543914367 -1605804584 1440842470 -1905392196 -1892593353 583556205 -5878990 188010372 -1238735498 861223255 1281770401 998616545 2009522756 -911913921 -216572232 1761615805 -1507780182 -667093734 -1265752901 -618119578 1681061496 -889057722 -668021764 780315925 -201463702 1485469683 -153625775 -1712743243 -140023635 -1944755728 1291585701 1487034739
REM
CELL 1.54180   50.00000   50.00000   50.00000   90.00000   90.00000   90.00000
LATT -1
SFAC C  
C      1  0.4972050000000  0.5394160000000  0.5507500000000 1.0
C      1  0.4748440000000  0.5050640000000  0.4012630000000 1.0
C      1  0.5579380000000  0.4875140000000  0.5889690000000 1.0
C      1  0.5133280000000  0.4114910000000  0.4618870000000 1.0
C      1  0.4990100000000  0.5414590000000  0.4710820000000 1.0
C      1  0.4272660000000  0.5573730000000  0.4689690000000 1.0
C      1  0.5241620000000  0.5582000000000  0.5419910000000 1.0
C      1  0.4127470000000  0.4606810000000  0.5238820000000 1.0
C      1  0.4643670000000  0.4630130000000  0.4835850000000 1.0
C      1  0.4200410000000  0.4903790000000  0.4647140000000 1.0
C      1  0.5178740000000  0.4963960000000  0.5756770000000 1.0
C      1  0.4829710000000  0.4261220000000  0.4572570000000 1.0
C      1  0.5272570000000  0.5274390000000  0.5279630000000 1.0
C      1  0.5015030000000  0.5488400000000  0.5892510000000 1.0
C      1  0.4768320000000  0.5861030000000  0.5034110000000 1.0
C      1  0.5146880000000  0.4879710000000  0.4665500000000 1.0
C      1  0.5233710000000  0.5863360000000  0.5240150000000 1.0
C      1  0.5232140000000  0.5087180000000  0.4434870000000 1.0
C      1  0.5041860000000  0.4674150000000  0.5201070000000 1.0
C      1  0.5106630000000  0.5873930000000  0.4993530000000 1.0
C      1  0.4266980000000  0.5245610000000  0.5519050000000 1.0
C      1  0.5310600000000  0.5325870000000  0.4748290000000 1.0
C      1  0.5726220000000  0.5207720000000  0.5603030000000 1.0
C      1  0.5297270000000  0.4816830000000  0.5030420000000 1.0
C      1  0.5452370000000  0.4248740000000  0.5524390000000 1.0
C      1  0.4247010000000  0.4594080000000  0.5505730000000 1.0
C      1  0.4925330000000  0.5339070000000  0.4397720000000 1.0
C      1  0.4870020000000  0.4617040000000  0.5677470000000 1.0
C      1  0.5645750000000  0.4661700000000  0.5718800000000 1.0
C      1  0.4245520000000  0.4716000000000  0.4401960000000 1.0
C      1  0.5625750000000  0.4863520000000  0.4382130000000 1.0
C      1  0.4652450000000  0.5097950000000  0.5834640000000 1.0
C      1  0.5690390000000  0.4424980000000  0.4913780000000 1.0
C      1  0.5909870000000  0.5417950000000  0.4546660000000 1.0
C      1  0.4539500000000  0.5242200000000  0.4084660000000 1.0
C      1  0.4639250000000  0.5611470000000  0.5542450000000 1.0
C      1  0.5097010000000  0.5713740000000  0.4262940000000 1.0
C      1  0.5229640000000  0.4739440000000  0.6008970000000 1.0
C      1  0.5257320000000  0.5446950000000  0.4420680000000 1.0
C      1  0.5841000000000  0.4969540000000  0.5554680000000 1.0
C      1  0.4632050000000  0.5214710000000  0.5161520000000 1.0
C      1  0.4352470000000  0.5153110000000  0.5753930000000 1.0
C      1  0.5231430000000  0.4459390000000  0.5961940000000 1.0
C      1  0.5497320000000  0.4139490000000  0.5280810000000 1.0
C      1  0.4320520000000  0.4282450000000  0.4807490000000 1.0
C      1  0.4598270000000  0.5728670000000  0.4277100000000 1.0
C      1  0.5241800000000  0.5347060000000  0.5846790000000 1.0
C      1  0.5050860000000  0.4402060000000  0.4353090000000 1.0
C      1  0.4658780000000  0.4314980000000  0.5412080000000 1.0
C      1  0.4428690000000  0.5197790000000  0.4343710000000 1.0
C      1  0.4429710000000  0.5315930000000  0.4948020000000 1.0
C      1  0.4719730000000  0.5419340000000  0.5813400000000 1.0
C      1  0.4283070000000  0.5233150000000  0.4649290000000 1.0
C      1  0.4599370000000  0.4906460000000  0.5206490000000 1.0
C      1  0.5597890000000  0.5266730000000  0.4911870000000 1.0
C      1  0.4750200000000  0.4565470000000  0.4328460000000 1.0
C      1  0.4628080000000  0.5906340000000  0.4725810000000 1.0
C      1  0.4158470000000  0.5182970000000  0.5254570000000 1.0
C      1  0.4877860000000  0.4134160000000  0.5371360000000 1.0
C      1  0.4666550000000  0.5254200000000  0.4539750000000 1.0
C      1  0.5651280000000  0.5490820000000  0.5148100000000 1.0
C      1  0.5359290000000  0.4325670000000  0.4479780000000 1.0
C      1  0.5207380000000  0.5466210000000  0.4057580000000 1.0
C      1  0.4866470000000  0.5847920000000  0.4285140000000 1.0
C      1  0.4559390000000  0.4383450000000  0.4627440000000 1.0
C      1  0.5652950000000  0.5405120000000  0.4422500000000 1.0
C      1  0.5105630000000  0.4727990000000  0.4272340000000 1.0
C      1  0.4470920000000  0.4884700000000  0.4831230000000 1.0
C      1  0.4953180000000  0.4896480000000  0.6002880000000 1.0
C      1  0.4451020000000  0.4539740000000  0.4368390000000 1.0
C      1  0.5075830000000  0.4420170000000  0.4749450000000 1.0
C      1  0.5663960000000  0.4749600000000  0.5389680000000 1.0
C      1  0.5333850000000  0.5247630000000  0.3904820000000 1.0
C      1  0.4724360000000  0.4603710000000  0.5244200000000 1.0
C      1  0.4304760000000  0.5619670000000  0.5027140000000 1.0
C      1  0.4672680000000  0.4777590000000  0.5906080000000 1.0
C      1  0.4296750000000  0.4959930000000  0.5114150000000 1.0
C      1  0.4470880000000  0.5415360000000  0.5345310000000 1.0
C      1  0.4834310000000  0.4955840000000  0.5398680000000 1.0
C      1  0.5858770000000  0.4501140000000  0.5807010000000 1.0
C      1  0.5372060000000  0.4223170000000  0.5045960000000 1.0
C      1  0.5270560000000  0.5011300000000  0.3846990000000 1.0
C      1  0.5645070000000  0.4981720000000  0.4924330000000 1.0
C      1  0.4450950000000  0.5786810000000  0.4519230000000 1.0
C      1  0.5876530000000  0.5436130000000  0.4827430000000 1.0
C      1  0.5055470000000  0.4367950000000  0.5756310000000 1.0
C      1  0.4106350000000  0.4761720000000  0.4934330000000 1.0
C      1  0.5131260000000  0.4663320000000  0.5497480000000 1.0
C      1  0.5171970000000  0.5890270000000  0.5551750000000 1.0
C      1  0.4556000000000  0.5726560000000  0.5230260000000 1.0
C      1  0.4913740000000  0.4124760000000  0.5082410000000 1.0
C      1  0.5471000000000  0.5671070000000  0.4535330000000 1.0
C      1  0.5599010000000  0.5843710000000  0.4787240000000 1.0
C      1  0.5031750000000  0.4861070000000  0.3991790000000 1.0
C      1  0.4171050000000  0.4437580000000  0.4965390000000 1.0
C      1  0.4753660000000  0.4338100000000  0.4971300000000 1.0
C      1  0.5399200000000  0.4501380000000  0.5601460000000 1.0
C      1  0.4638830000000  0.5518140000000  0.4068620000000 1.0
C      1  0.5155000000000  0.4064130000000  0.4936560000000 1.0
C      1  0.5780910000000  0.4664190000000  0.4545620000000 1.0
C      1  0.5396490000000  0.5258740000000  0.5596580000000 1.0
C      1  0.5061630000000  0.4134620000000  0.5594060000000 1.0
C      1  0.5869390000000  0.4770580000000  0.4803020000000 1.0
C      1  0.5448780000000  0.4784490000000  0.4731590000000 1.0
C      1  0.4594560000000  0.5473080000000  0.4719990000000 1.0
C      1  0.5541760000000  0.5143400000000  0.4384530000000 1.0
C      1  0.5719090000000  0.4704320000000  0.5105680000000 1.0
C      1  0.4407710000000  0.4586590000000  0.5811330000000 1.0
C      1  0.4839190000000  0.5657890000000  0.4791470000000 1.0
C      1  0.5621410000000  0.5436260000000  0.5409770000000 1.0
C      1  0.5631910000000  0.4425160000000  0.4635820000000 1.0
C      1  0.5279850000000  0.5835820000000  0.4771430000000 1.0
C      1  0.4937340000000  0.5286530000000  0.5200120000000 1.0
C      1  0.5300940000000  0.4492460000000  0.4959940000000 1.0
C      1  0.4433620000000  0.4321850000000  0.5593450000000 1.0
C      1  0.5382090000000  0.4885110000000  0.5520030000000 1.0
C      1  0.4575960000000  0.4685670000000  0.5532690000000 1.0
C      1  0.4916150000000  0.5112240000000  0.5632740000000 1.0
C      1  0.4929980000000  0.5164360000000  0.4890830000000 1.0
C      1  0.4869560000000  0.4810540000000  0.4502910000000 1.0
C      1  0.4939210000000  0.5704010000000  0.5649730000000 1.0
C      1  0.4906570000000  0.5532470000000  0.3961980000000 1.0
C      1  0.5373530000000  0.4649940000000  0.4429240000000 1.0
C      1  0.4078720000000  0.5405010000000  0.5117540000000 1.0
C      1  0.4729890000000  0.5002190000000  0.4705330000000 1.0
C      1  0.5241510000000  0.5115660000000  0.5009070000000 1.0
C      1  0.5236740000000  0.3930600000000  0.5634930000000 1.0
C      1  0.5776260000000  0.5704050000000  0.4957660000000 1.0
C      1  0.4956430000000  0.4685800000000  0.4872120000000 1.0
C      1  0.5012640000000  0.5110620000000  0.4205180000000 1.0
END
