TITL C-2778432-5617-280 0.00351389987040424 125000 -559.248988076318 0 0 97 (C1) n - 1
REM
REM in /home/nfs/bkarasulu/CARBON/AIRSS/Generating-Clusters/REBO/Only-C1/SD-CG/HFTN-CG
REM
REM
REM
REM
REM
REM ./C.cell (11c1c37f851c82e70ff6c80c92926a4b)
REM
REM compiler GCC version 9.2.1 20190827 (Red Hat 9.2.1-1)
REM options -cpp -mtune=generic -march=x86-64 -g -O0 -fpre-include=/usr/include/finclude/math-vector-fortran.h
REM seed -1004312839 1559647466 133738147 813560154 954734298 -640399191 -22311289 -387410036 -257358299 210728959 1990911198 447717809 -571554620 -2140098589 -1675198101 1436437985 633791827 -491509000 1848213078 -849242632 -282056255 357632459 1431547645 -1276058062 -246369009 -297106877 1009892687 -435691222 1842564139 -1293698906 716724442 -211103895 235679282
REM
CELL 1.54180   50.00000   50.00000   50.00000   90.00000   90.00000   90.00000
LATT -1
SFAC C  
C      1  0.5152790000000  0.5235160000000  0.4200310000000 1.0
C      1  0.5176550000000  0.4842420000000  0.5921700000000 1.0
C      1  0.4834770000000  0.5146430000000  0.4124910000000 1.0
C      1  0.4038650000000  0.5052750000000  0.4579110000000 1.0
C      1  0.4995290000000  0.5079960000000  0.5806390000000 1.0
C      1  0.4990220000000  0.5395170000000  0.5017430000000 1.0
C      1  0.4951800000000  0.4916460000000  0.4332440000000 1.0
C      1  0.5008450000000  0.4635770000000  0.5453620000000 1.0
C      1  0.5021660000000  0.5942760000000  0.5038940000000 1.0
C      1  0.4682670000000  0.5572810000000  0.4664130000000 1.0
C      1  0.5643580000000  0.4716490000000  0.5233840000000 1.0
C      1  0.5177220000000  0.5097950000000  0.5550100000000 1.0
C      1  0.5094620000000  0.5866240000000  0.4730160000000 1.0
C      1  0.5685480000000  0.5055720000000  0.5246610000000 1.0
C      1  0.4128350000000  0.4818400000000  0.4993680000000 1.0
C      1  0.4773320000000  0.4155110000000  0.4491790000000 1.0
C      1  0.5200020000000  0.5615120000000  0.4897050000000 1.0
C      1  0.4750170000000  0.4355380000000  0.5337010000000 1.0
C      1  0.4913250000000  0.4791110000000  0.5029260000000 1.0
C      1  0.5214370000000  0.5366150000000  0.4689730000000 1.0
C      1  0.5053950000000  0.5594270000000  0.5826680000000 1.0
C      1  0.4708460000000  0.5007300000000  0.5702310000000 1.0
C      1  0.5066030000000  0.4319320000000  0.5431140000000 1.0
C      1  0.5401620000000  0.4378190000000  0.4502450000000 1.0
C      1  0.5033630000000  0.5146370000000  0.4793270000000 1.0
C      1  0.5578960000000  0.5499990000000  0.4598220000000 1.0
C      1  0.4496540000000  0.4687250000000  0.5074410000000 1.0
C      1  0.5819720000000  0.5266160000000  0.4667900000000 1.0
C      1  0.4588920000000  0.5604200000000  0.5266480000000 1.0
C      1  0.5459670000000  0.4451750000000  0.5124120000000 1.0
C      1  0.4707370000000  0.4302380000000  0.5028440000000 1.0
C      1  0.4697650000000  0.5436880000000  0.4921150000000 1.0
C      1  0.5438090000000  0.5663900000000  0.5336080000000 1.0
C      1  0.5179840000000  0.4928650000000  0.4950530000000 1.0
C      1  0.5403440000000  0.5260690000000  0.4430970000000 1.0
C      1  0.5593350000000  0.5623870000000  0.5880990000000 1.0
C      1  0.5353020000000  0.4663580000000  0.5828380000000 1.0
C      1  0.4461940000000  0.4950870000000  0.5165470000000 1.0
C      1  0.4117230000000  0.5581490000000  0.5118560000000 1.0
C      1  0.4518790000000  0.4153250000000  0.4595080000000 1.0
C      1  0.5162130000000  0.4080800000000  0.4986050000000 1.0
C      1  0.5856460000000  0.5332030000000  0.5143000000000 1.0
C      1  0.5555210000000  0.4387250000000  0.4803960000000 1.0
C      1  0.4582600000000  0.4696250000000  0.4769380000000 1.0
C      1  0.5496750000000  0.4981020000000  0.5492940000000 1.0
C      1  0.4534890000000  0.5193530000000  0.4961450000000 1.0
C      1  0.5316170000000  0.4150380000000  0.4741250000000 1.0
C      1  0.4831850000000  0.5088890000000  0.4571490000000 1.0
C      1  0.4760740000000  0.5378650000000  0.4439730000000 1.0
C      1  0.4862850000000  0.4532100000000  0.4829980000000 1.0
C      1  0.5256090000000  0.4921390000000  0.4283270000000 1.0
C      1  0.4904240000000  0.4449620000000  0.4521350000000 1.0
C      1  0.5418080000000  0.5359570000000  0.5410760000000 1.0
C      1  0.4380120000000  0.4465140000000  0.5189630000000 1.0
C      1  0.4210880000000  0.4822160000000  0.4504750000000 1.0
C      1  0.4262450000000  0.4604950000000  0.4762310000000 1.0
C      1  0.5079920000000  0.5489580000000  0.4400030000000 1.0
C      1  0.4890110000000  0.4048270000000  0.4967530000000 1.0
C      1  0.5009740000000  0.5845020000000  0.5352670000000 1.0
C      1  0.4266570000000  0.5065490000000  0.4815440000000 1.0
C      1  0.5314690000000  0.5704410000000  0.4524860000000 1.0
C      1  0.5520340000000  0.4970840000000  0.4480780000000 1.0
C      1  0.5992120000000  0.5328800000000  0.4878650000000 1.0
C      1  0.4977380000000  0.5650520000000  0.5562030000000 1.0
C      1  0.5252280000000  0.4230780000000  0.5207330000000 1.0
C      1  0.5442220000000  0.5683550000000  0.5061540000000 1.0
C      1  0.4794420000000  0.5823320000000  0.4637430000000 1.0
C      1  0.4627230000000  0.4741230000000  0.5657280000000 1.0
C      1  0.5568070000000  0.4650590000000  0.5560130000000 1.0
C      1  0.4329300000000  0.5487890000000  0.5258650000000 1.0
C      1  0.4569450000000  0.4664840000000  0.4228850000000 1.0
C      1  0.4825720000000  0.4648770000000  0.4318480000000 1.0
C      1  0.4581000000000  0.4990970000000  0.4702240000000 1.0
C      1  0.4827950000000  0.4755840000000  0.5283400000000 1.0
C      1  0.4773410000000  0.5427900000000  0.5452000000000 1.0
C      1  0.5376220000000  0.4675350000000  0.4455200000000 1.0
C      1  0.5518490000000  0.5569140000000  0.5634030000000 1.0
C      1  0.5302870000000  0.5144330000000  0.5174000000000 1.0
C      1  0.4559810000000  0.5147580000000  0.4284930000000 1.0
C      1  0.5111880000000  0.4201440000000  0.4483080000000 1.0
C      1  0.5189990000000  0.4501070000000  0.4919140000000 1.0
C      1  0.5549590000000  0.5169480000000  0.4958090000000 1.0
C      1  0.4610740000000  0.4511030000000  0.5512840000000 1.0
C      1  0.5669020000000  0.4697530000000  0.4894530000000 1.0
C      1  0.4176180000000  0.4991000000000  0.5283030000000 1.0
C      1  0.4419190000000  0.4890540000000  0.4318680000000 1.0
C      1  0.5632400000000  0.5491980000000  0.4934010000000 1.0
C      1  0.5225830000000  0.4794100000000  0.5473630000000 1.0
C      1  0.4745830000000  0.5817700000000  0.5162820000000 1.0
C      1  0.5034790000000  0.5296160000000  0.5320930000000 1.0
C      1  0.5676680000000  0.4981550000000  0.4731000000000 1.0
C      1  0.4450450000000  0.4323880000000  0.4810190000000 1.0
C      1  0.5311490000000  0.4430450000000  0.5614250000000 1.0
C      1  0.4581350000000  0.5209400000000  0.5554790000000 1.0
C      1  0.4328300000000  0.5236280000000  0.5410300000000 1.0
C      1  0.5019720000000  0.5353360000000  0.5952640000000 1.0
C      1  0.5364280000000  0.4736600000000  0.4776440000000 1.0
END
