TITL C-2778436-5916-181 -0.00123074477042487 125000 -529.082823379572 0 0 92 (C1) n - 1
REM
REM in /home/nfs/bkarasulu/CARBON/AIRSS/Generating-Clusters/REBO/Only-C1/SD-CG/HFTN-CG
REM
REM
REM
REM
REM
REM ./C.cell (11c1c37f851c82e70ff6c80c92926a4b)
REM
REM compiler GCC version 9.2.1 20190827 (Red Hat 9.2.1-1)
REM options -cpp -mtune=generic -march=x86-64 -g -O0 -fpre-include=/usr/include/finclude/math-vector-fortran.h
REM seed -382135659 2125965263 283019560 -85701115 -905426577 73845117 -1468298030 -533900388 -2100508444 -850567038 166623273 -1733108341 373021707 -1377557656 -941474437 -1306787577 594010118 -881770797 1161519475 -475076178 -1349951226 -1299444198 2073310081 1081999471 1732160720 766729482 803336997 -763776881 1642432811 -25916386 -933170780 680400101 -1049408970
REM
CELL 1.54180   50.00000   50.00000   50.00000   90.00000   90.00000   90.00000
LATT -1
SFAC C  
C      1  0.4878270000000  0.5724370000000  0.5089010000000 1.0
C      1  0.5336270000000  0.5217420000000  0.5244760000000 1.0
C      1  0.5259220000000  0.4472690000000  0.4424190000000 1.0
C      1  0.5426910000000  0.5345880000000  0.4869770000000 1.0
C      1  0.4835250000000  0.4207850000000  0.4772130000000 1.0
C      1  0.5259380000000  0.4881290000000  0.5715540000000 1.0
C      1  0.4667530000000  0.4705670000000  0.4760100000000 1.0
C      1  0.5102220000000  0.5658990000000  0.5282570000000 1.0
C      1  0.4630610000000  0.4410350000000  0.4928120000000 1.0
C      1  0.5097920000000  0.4165270000000  0.4890620000000 1.0
C      1  0.4277990000000  0.5247060000000  0.5322700000000 1.0
C      1  0.4744630000000  0.5375010000000  0.5283930000000 1.0
C      1  0.4291290000000  0.4981230000000  0.5114090000000 1.0
C      1  0.5012170000000  0.5196760000000  0.5350940000000 1.0
C      1  0.4267100000000  0.4669020000000  0.4709950000000 1.0
C      1  0.5650240000000  0.5298330000000  0.5196350000000 1.0
C      1  0.5641200000000  0.4787180000000  0.4816550000000 1.0
C      1  0.5150320000000  0.5584490000000  0.5545850000000 1.0
C      1  0.4924020000000  0.5284210000000  0.5836890000000 1.0
C      1  0.5983890000000  0.4755820000000  0.5161510000000 1.0
C      1  0.4976240000000  0.5870850000000  0.4877360000000 1.0
C      1  0.4364150000000  0.5392100000000  0.4567910000000 1.0
C      1  0.5020580000000  0.4567500000000  0.5198370000000 1.0
C      1  0.5368800000000  0.4846390000000  0.5102080000000 1.0
C      1  0.4674150000000  0.5150860000000  0.5786980000000 1.0
C      1  0.5717610000000  0.5240670000000  0.4619380000000 1.0
C      1  0.4273490000000  0.5418130000000  0.4310410000000 1.0
C      1  0.5271650000000  0.5258840000000  0.4328640000000 1.0
C      1  0.4995040000000  0.4864480000000  0.4251650000000 1.0
C      1  0.4936070000000  0.4349920000000  0.5659780000000 1.0
C      1  0.4494040000000  0.4613380000000  0.5355630000000 1.0
C      1  0.4383050000000  0.5484680000000  0.5544810000000 1.0
C      1  0.4360320000000  0.5365390000000  0.5036430000000 1.0
C      1  0.5854560000000  0.5233980000000  0.4931620000000 1.0
C      1  0.4594750000000  0.4949580000000  0.4962420000000 1.0
C      1  0.5160570000000  0.4556290000000  0.4925080000000 1.0
C      1  0.5534970000000  0.4575920000000  0.4600860000000 1.0
C      1  0.4232390000000  0.4942960000000  0.4793860000000 1.0
C      1  0.5608140000000  0.5378840000000  0.5485760000000 1.0
C      1  0.4596430000000  0.4829880000000  0.5575390000000 1.0
C      1  0.5117440000000  0.4951590000000  0.4955120000000 1.0
C      1  0.5130050000000  0.5938970000000  0.4503970000000 1.0
C      1  0.4935400000000  0.5112420000000  0.4599640000000 1.0
C      1  0.5484800000000  0.5456960000000  0.4599620000000 1.0
C      1  0.4633180000000  0.5120680000000  0.5449320000000 1.0
C      1  0.5353300000000  0.5382480000000  0.5628400000000 1.0
C      1  0.5073910000000  0.5256200000000  0.5030940000000 1.0
C      1  0.5245830000000  0.5744310000000  0.4740880000000 1.0
C      1  0.4644590000000  0.5163130000000  0.4735080000000 1.0
C      1  0.4360860000000  0.5170080000000  0.5648280000000 1.0
C      1  0.4666700000000  0.5564960000000  0.5529800000000 1.0
C      1  0.5229030000000  0.5550850000000  0.5007600000000 1.0
C      1  0.4450570000000  0.4818050000000  0.4278420000000 1.0
C      1  0.4588560000000  0.5102910000000  0.4403900000000 1.0
C      1  0.4852570000000  0.5542630000000  0.4434790000000 1.0
C      1  0.4416230000000  0.4584610000000  0.4474010000000 1.0
C      1  0.5008800000000  0.4557440000000  0.4620030000000 1.0
C      1  0.5020000000000  0.4190490000000  0.5455320000000 1.0
C      1  0.5191710000000  0.5545500000000  0.4470220000000 1.0
C      1  0.4656080000000  0.5495130000000  0.4670360000000 1.0
C      1  0.4753800000000  0.4780270000000  0.5211230000000 1.0
C      1  0.6096880000000  0.5377610000000  0.4945270000000 1.0
C      1  0.5876990000000  0.4524820000000  0.5271570000000 1.0
C      1  0.4904890000000  0.5547430000000  0.5699520000000 1.0
C      1  0.5032730000000  0.5144200000000  0.4213460000000 1.0
C      1  0.4943040000000  0.5840460000000  0.4364670000000 1.0
C      1  0.5133630000000  0.4578020000000  0.5816440000000 1.0
C      1  0.4258540000000  0.5247060000000  0.4793280000000 1.0
C      1  0.5225890000000  0.4715180000000  0.4229010000000 1.0
C      1  0.4746200000000  0.4801680000000  0.4441910000000 1.0
C      1  0.5323830000000  0.4332870000000  0.4719500000000 1.0
C      1  0.4706970000000  0.4418020000000  0.4537410000000 1.0
C      1  0.5479720000000  0.4571420000000  0.4995950000000 1.0
C      1  0.4780240000000  0.4383340000000  0.5199990000000 1.0
C      1  0.4885020000000  0.4740820000000  0.5706780000000 1.0
C      1  0.5307710000000  0.4437090000000  0.5329150000000 1.0
C      1  0.5627510000000  0.4428060000000  0.5225110000000 1.0
C      1  0.5198770000000  0.5176730000000  0.5785180000000 1.0
C      1  0.5497420000000  0.5097630000000  0.4425250000000 1.0
C      1  0.5370930000000  0.4581960000000  0.5593300000000 1.0
C      1  0.4654350000000  0.5507490000000  0.5006970000000 1.0
C      1  0.4962680000000  0.4894880000000  0.5433710000000 1.0
C      1  0.5292670000000  0.4916080000000  0.5392240000000 1.0
C      1  0.4247390000000  0.4702510000000  0.5248510000000 1.0
C      1  0.4652710000000  0.4497190000000  0.5630270000000 1.0
C      1  0.5489550000000  0.5079270000000  0.4903400000000 1.0
C      1  0.5465490000000  0.4812790000000  0.4384500000000 1.0
C      1  0.4794100000000  0.5291700000000  0.4267790000000 1.0
C      1  0.5133660000000  0.4185800000000  0.5174020000000 1.0
C      1  0.5876820000000  0.4919980000000  0.4971120000000 1.0
C      1  0.4322980000000  0.4482620000000  0.4920690000000 1.0
C      1  0.5043850000000  0.4876140000000  0.4697120000000 1.0
END
