TITL C-2778437-8639-1279 -0.000631718123697542 125000 -257.55713138748 0 0 47 (C1) n - 1
REM
REM in /home/nfs/bkarasulu/CARBON/AIRSS/Generating-Clusters/REBO/Only-C1/SD-CG/HFTN-CG
REM
REM
REM
REM
REM
REM ./C.cell (11c1c37f851c82e70ff6c80c92926a4b)
REM
REM compiler GCC version 9.2.1 20190827 (Red Hat 9.2.1-1)
REM options -cpp -mtune=generic -march=x86-64 -g -O0 -fpre-include=/usr/include/finclude/math-vector-fortran.h
REM seed -2125801958 -1929202725 1021990137 -2142590334 -128692473 -597059828 -1242957954 -99097341 -1750455438 987395457 -1844448998 1581402117 1767288100 695685660 1628643015 1338822761 -64938610 -254929688 490896220 -512552390 -1271258386 -698419424 -164063790 -370702663 249511818 661313234 -1829557352 -573352489 1489326806 135818779 -903935427 -2103983660 -1465676074
REM
CELL 1.54180   50.00000   50.00000   50.00000   90.00000   90.00000   90.00000
LATT -1
SFAC C  
C      1  0.5194200000000  0.4797970000000  0.4754910000000 1.0
C      1  0.4764930000000  0.5298520000000  0.4546820000000 1.0
C      1  0.5214030000000  0.4603220000000  0.4956940000000 1.0
C      1  0.5370440000000  0.5140570000000  0.4313790000000 1.0
C      1  0.4789270000000  0.4030790000000  0.4720920000000 1.0
C      1  0.4917210000000  0.4947260000000  0.5134080000000 1.0
C      1  0.4872810000000  0.4523550000000  0.5598940000000 1.0
C      1  0.5204590000000  0.4688210000000  0.5228860000000 1.0
C      1  0.4713420000000  0.4997920000000  0.5469140000000 1.0
C      1  0.5704770000000  0.5168840000000  0.4952200000000 1.0
C      1  0.5564900000000  0.5226690000000  0.4494590000000 1.0
C      1  0.4806500000000  0.5314980000000  0.5456210000000 1.0
C      1  0.5094200000000  0.4733640000000  0.4470120000000 1.0
C      1  0.4637090000000  0.5078270000000  0.5853280000000 1.0
C      1  0.5175030000000  0.4491830000000  0.4359700000000 1.0
C      1  0.5144090000000  0.5201490000000  0.5791920000000 1.0
C      1  0.4862900000000  0.5228390000000  0.5757030000000 1.0
C      1  0.5332690000000  0.5226900000000  0.5593010000000 1.0
C      1  0.4702260000000  0.4505360000000  0.4776470000000 1.0
C      1  0.4430760000000  0.4868240000000  0.5337140000000 1.0
C      1  0.4780800000000  0.5245540000000  0.5142980000000 1.0
C      1  0.4944510000000  0.5569310000000  0.4791150000000 1.0
C      1  0.4975270000000  0.5743630000000  0.5233130000000 1.0
C      1  0.5469800000000  0.5406870000000  0.4736800000000 1.0
C      1  0.5376920000000  0.5224630000000  0.5028860000000 1.0
C      1  0.5548080000000  0.5556770000000  0.5229330000000 1.0
C      1  0.4748830000000  0.5519580000000  0.4974870000000 1.0
C      1  0.5301330000000  0.5368250000000  0.5315820000000 1.0
C      1  0.4728750000000  0.4491000000000  0.5344900000000 1.0
C      1  0.4828390000000  0.5162620000000  0.4814980000000 1.0
C      1  0.4969430000000  0.4796920000000  0.5436710000000 1.0
C      1  0.4447080000000  0.4934560000000  0.5659890000000 1.0
C      1  0.4432180000000  0.4686850000000  0.4817400000000 1.0
C      1  0.5750790000000  0.5091260000000  0.4681330000000 1.0
C      1  0.4868270000000  0.4282830000000  0.4783510000000 1.0
C      1  0.4372900000000  0.4782740000000  0.5079190000000 1.0
C      1  0.5150080000000  0.5080900000000  0.4838160000000 1.0
C      1  0.5027300000000  0.5501880000000  0.5323810000000 1.0
C      1  0.5155410000000  0.5408900000000  0.4753300000000 1.0
C      1  0.5120130000000  0.5014760000000  0.4305990000000 1.0
C      1  0.4833510000000  0.5129980000000  0.4325160000000 1.0
C      1  0.4780320000000  0.4837140000000  0.4410560000000 1.0
C      1  0.5674840000000  0.5486310000000  0.4996000000000 1.0
C      1  0.4805980000000  0.4822730000000  0.4843430000000 1.0
C      1  0.4537290000000  0.4784760000000  0.4545680000000 1.0
C      1  0.4747440000000  0.4655250000000  0.5136640000000 1.0
C      1  0.5128300000000  0.4341390000000  0.4884350000000 1.0
END
