TITL C-2778422-5617-1389 -7.42745081085393e-08 125000 -41.0725910498516 0 0 8 (C2v) n - 1
REM
REM in /home/nfs/bkarasulu/CARBON/AIRSS/Generating-Clusters/REBO/Only-C1/SD-CG/HFTN-CG
REM
REM
REM
REM
REM
REM ./C.cell (11c1c37f851c82e70ff6c80c92926a4b)
REM
REM compiler GCC version 9.2.1 20190827 (Red Hat 9.2.1-1)
REM options -cpp -mtune=generic -march=x86-64 -g -O0 -fpre-include=/usr/include/finclude/math-vector-fortran.h
REM seed 1457458395 2105365611 -1659679806 -392300385 -1417692281 -155113096 -237018419 174713463 783186383 767417630 -2053439698 -1250808730 1572298211 1567514316 -1918879011 -545964454 -865026273 772197971 1966307109 -1889466296 1816150887 1573648638 -1937112183 716247164 2098258725 -198020905 -24947754 620703608 2123440407 1503000763 588493375 -1286020981 925800454
REM
CELL 1.54180   50.00000   50.00000   50.00000   90.00000   90.00000   90.00000
LATT -1
SFAC C  
C      1  0.4996530000000  0.4951860000000  0.5089320000000 1.0
C      1  0.5056190000000  0.5089990000000  0.5324980000000 1.0
C      1  0.5015210000000  0.5210700000000  0.4609040000000 1.0
C      1  0.5006090000000  0.5084430000000  0.4843340000000 1.0
C      1  0.5112110000000  0.5219450000000  0.5545880000000 1.0
C      1  0.4927300000000  0.4681170000000  0.5099640000000 1.0
C      1  0.5024170000000  0.5334960000000  0.4378480000000 1.0
C      1  0.4862410000000  0.4427440000000  0.5109320000000 1.0
END
