TITL C-2778433-5640-1278 -0.000419546366566811 125000 -1008.50389248725 0 0 174 (C1) n - 1
REM
REM in /home/nfs/bkarasulu/CARBON/AIRSS/Generating-Clusters/REBO/Only-C1/SD-CG/HFTN-CG
REM
REM
REM
REM
REM
REM ./C.cell (11c1c37f851c82e70ff6c80c92926a4b)
REM
REM compiler GCC version 9.2.1 20190827 (Red Hat 9.2.1-1)
REM options -cpp -mtune=generic -march=x86-64 -g -O0 -fpre-include=/usr/include/finclude/math-vector-fortran.h
REM seed 745608895 1827173955 361398132 1063190264 -1738397228 1113776502 1777216664 -1421754262 -945000424 -1143873396 -900995096 1168379052 1137398586 -2098115757 -688175956 -19482138 -1210138383 1982549626 -145534707 1196480383 1427532162 1220164495 -451061380 585613249 -237251820 -1690596158 -158255181 -1997988340 -106702747 -1708775707 -420452743 32508367 -1173347287
REM
CELL 1.54180   50.00000   50.00000   50.00000   90.00000   90.00000   90.00000
LATT -1
SFAC C  
C      1  0.5309330000000  0.5978520000000  0.4867990000000 1.0
C      1  0.4486800000000  0.5954790000000  0.4808210000000 1.0
C      1  0.4315500000000  0.5199500000000  0.4626050000000 1.0
C      1  0.4755210000000  0.5055720000000  0.5399060000000 1.0
C      1  0.4566420000000  0.4285750000000  0.4335870000000 1.0
C      1  0.5098140000000  0.5556450000000  0.5369050000000 1.0
C      1  0.4455550000000  0.4197570000000  0.5029010000000 1.0
C      1  0.5866440000000  0.4324800000000  0.4510260000000 1.0
C      1  0.5207920000000  0.5641810000000  0.5057740000000 1.0
C      1  0.5920350000000  0.4630180000000  0.5576160000000 1.0
C      1  0.4478960000000  0.4871360000000  0.5832300000000 1.0
C      1  0.4769790000000  0.4274270000000  0.4107020000000 1.0
C      1  0.4298140000000  0.5223210000000  0.4361560000000 1.0
C      1  0.5262090000000  0.4490780000000  0.5284070000000 1.0
C      1  0.5318400000000  0.4554610000000  0.5828450000000 1.0
C      1  0.4533890000000  0.5105460000000  0.5172110000000 1.0
C      1  0.5122160000000  0.4971670000000  0.5942240000000 1.0
C      1  0.4637890000000  0.5682820000000  0.4559170000000 1.0
C      1  0.6078920000000  0.4753970000000  0.4817480000000 1.0
C      1  0.5590370000000  0.5144180000000  0.5836000000000 1.0
C      1  0.5611800000000  0.5698130000000  0.5358760000000 1.0
C      1  0.5794560000000  0.5128910000000  0.5604210000000 1.0
C      1  0.4520410000000  0.4750190000000  0.4127110000000 1.0
C      1  0.5087890000000  0.4423280000000  0.5974250000000 1.0
C      1  0.4331130000000  0.4693650000000  0.4890350000000 1.0
C      1  0.4530270000000  0.6066240000000  0.5665510000000 1.0
C      1  0.5426940000000  0.4784400000000  0.5522340000000 1.0
C      1  0.3946680000000  0.4631070000000  0.5524820000000 1.0
C      1  0.5397990000000  0.5316080000000  0.4091760000000 1.0
C      1  0.4695410000000  0.5197820000000  0.4329440000000 1.0
C      1  0.4724140000000  0.5074360000000  0.4891500000000 1.0
C      1  0.5842610000000  0.5367420000000  0.4736600000000 1.0
C      1  0.4333330000000  0.5350900000000  0.5115670000000 1.0
C      1  0.5200030000000  0.4399050000000  0.4026370000000 1.0
C      1  0.5217530000000  0.4037360000000  0.4851420000000 1.0
C      1  0.4020750000000  0.4790210000000  0.4999980000000 1.0
C      1  0.5373970000000  0.4869300000000  0.4960540000000 1.0
C      1  0.5809320000000  0.5518920000000  0.5520780000000 1.0
C      1  0.5489170000000  0.5813840000000  0.4640390000000 1.0
C      1  0.4813540000000  0.5646350000000  0.5102940000000 1.0
C      1  0.5750120000000  0.4241890000000  0.5047710000000 1.0
C      1  0.5499220000000  0.4492340000000  0.4093590000000 1.0
C      1  0.4249900000000  0.5019020000000  0.5623520000000 1.0
C      1  0.5063430000000  0.6047510000000  0.5082700000000 1.0
C      1  0.5116240000000  0.5124670000000  0.5125340000000 1.0
C      1  0.5018380000000  0.5560630000000  0.4542510000000 1.0
C      1  0.5429550000000  0.4877810000000  0.5852260000000 1.0
C      1  0.5105610000000  0.4832960000000  0.5630030000000 1.0
C      1  0.4994670000000  0.4075610000000  0.5517050000000 1.0
C      1  0.5720700000000  0.4193620000000  0.4720930000000 1.0
C      1  0.4965000000000  0.4205430000000  0.5830430000000 1.0
C      1  0.5594300000000  0.5172280000000  0.4827560000000 1.0
C      1  0.5048220000000  0.4290620000000  0.4991810000000 1.0
C      1  0.4951360000000  0.4752450000000  0.4959530000000 1.0
C      1  0.5997350000000  0.4568270000000  0.4552660000000 1.0
C      1  0.4736980000000  0.4519750000000  0.5332890000000 1.0
C      1  0.4255070000000  0.5326630000000  0.6013700000000 1.0
C      1  0.5749670000000  0.5422260000000  0.4464630000000 1.0
C      1  0.4732200000000  0.5786070000000  0.3874810000000 1.0
C      1  0.4476110000000  0.5047450000000  0.4138070000000 1.0
C      1  0.5512970000000  0.4541300000000  0.4784940000000 1.0
C      1  0.4018500000000  0.5297420000000  0.4875140000000 1.0
C      1  0.5376400000000  0.5388480000000  0.4975270000000 1.0
C      1  0.5945690000000  0.5365810000000  0.5265750000000 1.0
C      1  0.4220950000000  0.4546700000000  0.5247210000000 1.0
C      1  0.5132380000000  0.4884770000000  0.4166130000000 1.0
C      1  0.5296670000000  0.4412970000000  0.5578920000000 1.0
C      1  0.5171400000000  0.5165940000000  0.4017840000000 1.0
C      1  0.4486020000000  0.4600030000000  0.5540060000000 1.0
C      1  0.4658910000000  0.5494240000000  0.4290110000000 1.0
C      1  0.4117490000000  0.5557510000000  0.4850010000000 1.0
C      1  0.4184370000000  0.5501730000000  0.5451240000000 1.0
C      1  0.4752700000000  0.4360090000000  0.5069630000000 1.0
C      1  0.4920220000000  0.3893160000000  0.5237650000000 1.0
C      1  0.4512770000000  0.3901440000000  0.4986840000000 1.0
C      1  0.5605580000000  0.4298490000000  0.5352520000000 1.0
C      1  0.4167320000000  0.5175680000000  0.5357940000000 1.0
C      1  0.4752300000000  0.4306980000000  0.5592710000000 1.0
C      1  0.4883330000000  0.4785040000000  0.5291790000000 1.0
C      1  0.4707340000000  0.4691570000000  0.4580090000000 1.0
C      1  0.4780400000000  0.3838980000000  0.4985880000000 1.0
C      1  0.5211440000000  0.5155610000000  0.5600590000000 1.0
C      1  0.5772750000000  0.5524640000000  0.5015120000000 1.0
C      1  0.5708490000000  0.4311270000000  0.4250140000000 1.0
C      1  0.5548920000000  0.5395150000000  0.5243930000000 1.0
C      1  0.4031180000000  0.5094840000000  0.5065920000000 1.0
C      1  0.4957540000000  0.5319060000000  0.3937020000000 1.0
C      1  0.5338870000000  0.5549160000000  0.5610330000000 1.0
C      1  0.4455440000000  0.4577340000000  0.4383560000000 1.0
C      1  0.5654380000000  0.4565110000000  0.5496410000000 1.0
C      1  0.4192760000000  0.4711030000000  0.5610180000000 1.0
C      1  0.5436740000000  0.4349440000000  0.5066360000000 1.0
C      1  0.5168840000000  0.4523550000000  0.4832870000000 1.0
C      1  0.5197210000000  0.5193750000000  0.4809370000000 1.0
C      1  0.4636960000000  0.5105800000000  0.5665970000000 1.0
C      1  0.5533640000000  0.5224920000000  0.4349690000000 1.0
C      1  0.4665150000000  0.4613560000000  0.5803070000000 1.0
C      1  0.4010500000000  0.4738970000000  0.4660670000000 1.0
C      1  0.4945120000000  0.4686730000000  0.5882940000000 1.0
C      1  0.4889500000000  0.5346740000000  0.5012510000000 1.0
C      1  0.5295100000000  0.4646020000000  0.4323970000000 1.0
C      1  0.4778960000000  0.5358530000000  0.5983980000000 1.0
C      1  0.4344890000000  0.5362950000000  0.4082290000000 1.0
C      1  0.5060970000000  0.5782730000000  0.4785400000000 1.0
C      1  0.5387800000000  0.5835000000000  0.4321290000000 1.0
C      1  0.6049470000000  0.4795720000000  0.5377920000000 1.0
C      1  0.5363150000000  0.5596400000000  0.4087170000000 1.0
C      1  0.5136690000000  0.5975270000000  0.5407900000000 1.0
C      1  0.5493190000000  0.5167750000000  0.5449960000000 1.0
C      1  0.6036100000000  0.4552560000000  0.5808600000000 1.0
C      1  0.5592810000000  0.4797360000000  0.4105910000000 1.0
C      1  0.5585220000000  0.5447180000000  0.5718200000000 1.0
C      1  0.5831450000000  0.4531370000000  0.4914090000000 1.0
C      1  0.4929970000000  0.3940680000000  0.4718690000000 1.0
C      1  0.4781380000000  0.5574710000000  0.5493540000000 1.0
C      1  0.5037630000000  0.4623190000000  0.4533660000000 1.0
C      1  0.6005320000000  0.5070590000000  0.5415340000000 1.0
C      1  0.4439120000000  0.4789630000000  0.5261310000000 1.0
C      1  0.5044040000000  0.5628530000000  0.5867520000000 1.0
C      1  0.4297390000000  0.5332910000000  0.5701400000000 1.0
C      1  0.5083820000000  0.5693690000000  0.4240600000000 1.0
C      1  0.5219030000000  0.4818310000000  0.5248630000000 1.0
C      1  0.4953570000000  0.4340670000000  0.4398050000000 1.0
C      1  0.4735490000000  0.4652760000000  0.3984850000000 1.0
C      1  0.4330430000000  0.4380600000000  0.4795630000000 1.0
C      1  0.4615020000000  0.5425600000000  0.5704190000000 1.0
C      1  0.5189540000000  0.4045440000000  0.5171350000000 1.0
C      1  0.4625070000000  0.4766710000000  0.4987600000000 1.0
C      1  0.4593890000000  0.6035310000000  0.5401350000000 1.0
C      1  0.4779430000000  0.5426310000000  0.4713430000000 1.0
C      1  0.4848870000000  0.5587080000000  0.4072700000000 1.0
C      1  0.5623250000000  0.4936240000000  0.4356470000000 1.0
C      1  0.6048610000000  0.4686280000000  0.5126520000000 1.0
C      1  0.5544480000000  0.4869540000000  0.4677780000000 1.0
C      1  0.4308070000000  0.5718070000000  0.4635820000000 1.0
C      1  0.5420330000000  0.4111190000000  0.4629010000000 1.0
C      1  0.5324280000000  0.4124910000000  0.5432370000000 1.0
C      1  0.5177690000000  0.5806780000000  0.5670250000000 1.0
C      1  0.5089000000000  0.5291390000000  0.5889020000000 1.0
C      1  0.5886210000000  0.4870240000000  0.4510550000000 1.0
C      1  0.4405250000000  0.5894850000000  0.5176740000000 1.0
C      1  0.4607550000000  0.5912550000000  0.5879140000000 1.0
C      1  0.5381150000000  0.5862450000000  0.5238820000000 1.0
C      1  0.4764280000000  0.5000660000000  0.4594010000000 1.0
C      1  0.5834380000000  0.5133290000000  0.5060520000000 1.0
C      1  0.5348380000000  0.5545910000000  0.4499350000000 1.0
C      1  0.5015840000000  0.4624570000000  0.4022440000000 1.0
C      1  0.5244050000000  0.5235130000000  0.4508870000000 1.0
C      1  0.5002300000000  0.5253030000000  0.5384590000000 1.0
C      1  0.4517220000000  0.5164850000000  0.5989880000000 1.0
C      1  0.4340000000000  0.5612640000000  0.4313400000000 1.0
C      1  0.4187290000000  0.4531330000000  0.4554190000000 1.0
C      1  0.4845110000000  0.5864740000000  0.5362260000000 1.0
C      1  0.4475210000000  0.5655450000000  0.5409440000000 1.0
C      1  0.4467340000000  0.5370500000000  0.4812440000000 1.0
C      1  0.5130330000000  0.4900710000000  0.4719640000000 1.0
C      1  0.5012540000000  0.5089970000000  0.4376900000000 1.0
C      1  0.5572940000000  0.5779980000000  0.4966550000000 1.0
C      1  0.4327600000000  0.4286110000000  0.5289170000000 1.0
C      1  0.3916440000000  0.4607820000000  0.5229870000000 1.0
C      1  0.4826550000000  0.5901690000000  0.4608990000000 1.0
C      1  0.4761070000000  0.4174100000000  0.4591350000000 1.0
C      1  0.4775070000000  0.5972580000000  0.4987990000000 1.0
C      1  0.5973540000000  0.5060750000000  0.4768250000000 1.0
C      1  0.5568200000000  0.5000660000000  0.5184440000000 1.0
C      1  0.4649880000000  0.4419550000000  0.4761850000000 1.0
C      1  0.4763050000000  0.5697560000000  0.5957380000000 1.0
C      1  0.4179910000000  0.5655090000000  0.5147390000000 1.0
C      1  0.5123330000000  0.4155910000000  0.4191980000000 1.0
C      1  0.4532070000000  0.5658810000000  0.4960460000000 1.0
C      1  0.5151870000000  0.4000390000000  0.4463860000000 1.0
C      1  0.4227680000000  0.4965060000000  0.4713940000000 1.0
C      1  0.4456120000000  0.4203060000000  0.5517240000000 1.0
C      1  0.5476710000000  0.4404860000000  0.4481720000000 1.0
END
