TITL C-2778435-5768-1232 0.000716962550228136 125000 -865.750561811825 0 0 149 (C1) n - 1
REM
REM in /home/nfs/bkarasulu/CARBON/AIRSS/Generating-Clusters/REBO/Only-C1/SD-CG/HFTN-CG
REM
REM
REM
REM
REM
REM ./C.cell (11c1c37f851c82e70ff6c80c92926a4b)
REM
REM compiler GCC version 9.2.1 20190827 (Red Hat 9.2.1-1)
REM options -cpp -mtune=generic -march=x86-64 -g -O0 -fpre-include=/usr/include/finclude/math-vector-fortran.h
REM seed -1491960053 -1389694979 -591519867 1157678074 1634730897 -1809961674 -450512728 -651566041 1253119358 1976095673 97032185 1585840554 1452967647 1438394776 142389567 1448301904 -1790400645 -587868907 -1822263696 484973585 -354831358 -1306035966 -206558876 -637306231 1318291770 -1468296843 -1969803133 1643854184 -25719558 2046069315 -2086714340 1107975358 -1541280943
REM
CELL 1.54180   50.00000   50.00000   50.00000   90.00000   90.00000   90.00000
LATT -1
SFAC C  
C      1  0.5172540000000  0.4494960000000  0.5025590000000 1.0
C      1  0.5358530000000  0.5569150000000  0.4518970000000 1.0
C      1  0.5145570000000  0.5651400000000  0.4995910000000 1.0
C      1  0.6234270000000  0.4667190000000  0.4984560000000 1.0
C      1  0.5666460000000  0.5797010000000  0.5401320000000 1.0
C      1  0.4615730000000  0.4532510000000  0.4696250000000 1.0
C      1  0.4902130000000  0.4833470000000  0.4135950000000 1.0
C      1  0.5266290000000  0.4656710000000  0.5233080000000 1.0
C      1  0.4335800000000  0.4651490000000  0.5582930000000 1.0
C      1  0.5545080000000  0.5036720000000  0.5360240000000 1.0
C      1  0.4777470000000  0.4993650000000  0.5086520000000 1.0
C      1  0.5260840000000  0.5635020000000  0.5615290000000 1.0
C      1  0.4418220000000  0.5374240000000  0.4945850000000 1.0
C      1  0.5350550000000  0.4367520000000  0.4236030000000 1.0
C      1  0.4518510000000  0.4266650000000  0.5314630000000 1.0
C      1  0.4656230000000  0.4855920000000  0.5346080000000 1.0
C      1  0.4698350000000  0.5184610000000  0.5423790000000 1.0
C      1  0.5852700000000  0.5389850000000  0.4693580000000 1.0
C      1  0.5113110000000  0.5504420000000  0.4730440000000 1.0
C      1  0.4247270000000  0.4308710000000  0.5116390000000 1.0
C      1  0.5061310000000  0.5408030000000  0.5770910000000 1.0
C      1  0.5858650000000  0.4959780000000  0.5595140000000 1.0
C      1  0.5474730000000  0.4901270000000  0.4568040000000 1.0
C      1  0.5816550000000  0.4905380000000  0.4567490000000 1.0
C      1  0.5489920000000  0.5942200000000  0.5180120000000 1.0
C      1  0.5187640000000  0.4712850000000  0.4123870000000 1.0
C      1  0.4735820000000  0.5654040000000  0.5332090000000 1.0
C      1  0.4169430000000  0.4671770000000  0.4726220000000 1.0
C      1  0.4679280000000  0.4091090000000  0.4507230000000 1.0
C      1  0.4532140000000  0.5127090000000  0.4187940000000 1.0
C      1  0.5492100000000  0.5376700000000  0.5158930000000 1.0
C      1  0.4818930000000  0.5134670000000  0.4071640000000 1.0
C      1  0.5458370000000  0.4177360000000  0.4879410000000 1.0
C      1  0.5403640000000  0.6026980000000  0.4648600000000 1.0
C      1  0.4195430000000  0.4922090000000  0.5035180000000 1.0
C      1  0.4410240000000  0.4233290000000  0.4532380000000 1.0
C      1  0.5429100000000  0.4907730000000  0.4171280000000 1.0
C      1  0.4920360000000  0.5329130000000  0.4926430000000 1.0
C      1  0.5080440000000  0.5091880000000  0.5097160000000 1.0
C      1  0.4387180000000  0.4857230000000  0.4084730000000 1.0
C      1  0.5719620000000  0.4684660000000  0.5539240000000 1.0
C      1  0.5256650000000  0.4614780000000  0.4740190000000 1.0
C      1  0.4854620000000  0.5509410000000  0.4397340000000 1.0
C      1  0.5496160000000  0.4792520000000  0.5851850000000 1.0
C      1  0.5173450000000  0.4420600000000  0.3969280000000 1.0
C      1  0.4401970000000  0.4873180000000  0.4664050000000 1.0
C      1  0.4916000000000  0.5889090000000  0.5212160000000 1.0
C      1  0.4065710000000  0.4814640000000  0.4456290000000 1.0
C      1  0.5743300000000  0.4614860000000  0.4641200000000 1.0
C      1  0.4812360000000  0.4286200000000  0.4939780000000 1.0
C      1  0.4497190000000  0.5489440000000  0.4349370000000 1.0
C      1  0.4320110000000  0.4969260000000  0.5697530000000 1.0
C      1  0.4025450000000  0.5473800000000  0.5247570000000 1.0
C      1  0.5071250000000  0.5800530000000  0.5827140000000 1.0
C      1  0.4531580000000  0.5086060000000  0.4895560000000 1.0
C      1  0.4216840000000  0.5618610000000  0.4703300000000 1.0
C      1  0.4248820000000  0.4556890000000  0.5353100000000 1.0
C      1  0.4789800000000  0.5365310000000  0.5239100000000 1.0
C      1  0.4681040000000  0.5607480000000  0.4115120000000 1.0
C      1  0.5227460000000  0.5950210000000  0.5088710000000 1.0
C      1  0.4114230000000  0.5120270000000  0.5544560000000 1.0
C      1  0.5135480000000  0.5654030000000  0.5332790000000 1.0
C      1  0.5833230000000  0.5157150000000  0.5318220000000 1.0
C      1  0.5741220000000  0.5657190000000  0.4816340000000 1.0
C      1  0.4134210000000  0.5134790000000  0.4801290000000 1.0
C      1  0.5800510000000  0.4556960000000  0.5233750000000 1.0
C      1  0.4819370000000  0.5242910000000  0.5916810000000 1.0
C      1  0.4873430000000  0.4550380000000  0.5924140000000 1.0
C      1  0.4420070000000  0.5689500000000  0.5311480000000 1.0
C      1  0.5941620000000  0.5292970000000  0.5596470000000 1.0
C      1  0.4832130000000  0.4650920000000  0.5491300000000 1.0
C      1  0.5648430000000  0.4741960000000  0.4245740000000 1.0
C      1  0.4477320000000  0.4735960000000  0.5080350000000 1.0
C      1  0.5556150000000  0.5098340000000  0.5950240000000 1.0
C      1  0.4608830000000  0.4734680000000  0.4445850000000 1.0
C      1  0.4896740000000  0.4771010000000  0.6081280000000 1.0
C      1  0.4752800000000  0.4746350000000  0.4876800000000 1.0
C      1  0.4313230000000  0.5599070000000  0.5597030000000 1.0
C      1  0.5566700000000  0.5650370000000  0.5617980000000 1.0
C      1  0.4538170000000  0.4626810000000  0.4060890000000 1.0
C      1  0.4239010000000  0.5282500000000  0.4315200000000 1.0
C      1  0.4429400000000  0.5769150000000  0.4813870000000 1.0
C      1  0.4742970000000  0.5685990000000  0.4737170000000 1.0
C      1  0.5540600000000  0.5353790000000  0.4653960000000 1.0
C      1  0.5549800000000  0.5784160000000  0.4644050000000 1.0
C      1  0.5844870000000  0.5001230000000  0.5035730000000 1.0
C      1  0.5643040000000  0.4436030000000  0.4396230000000 1.0
C      1  0.4810780000000  0.5111970000000  0.4707210000000 1.0
C      1  0.5967480000000  0.5136820000000  0.4625760000000 1.0
C      1  0.5059440000000  0.3895620000000  0.5273800000000 1.0
C      1  0.4836360000000  0.5844470000000  0.4180830000000 1.0
C      1  0.5257430000000  0.5194010000000  0.5312660000000 1.0
C      1  0.5658020000000  0.5342510000000  0.5985750000000 1.0
C      1  0.5444780000000  0.4249020000000  0.4600710000000 1.0
C      1  0.5311540000000  0.5174040000000  0.4238320000000 1.0
C      1  0.5119370000000  0.5144250000000  0.5620000000000 1.0
C      1  0.4171850000000  0.4971980000000  0.4259210000000 1.0
C      1  0.4094270000000  0.5404790000000  0.5527860000000 1.0
C      1  0.4874320000000  0.4900930000000  0.4446350000000 1.0
C      1  0.5571660000000  0.4884580000000  0.4880430000000 1.0
C      1  0.4055830000000  0.5001230000000  0.5306140000000 1.0
C      1  0.5590120000000  0.5202700000000  0.4929440000000 1.0
C      1  0.5469280000000  0.4500110000000  0.5678350000000 1.0
C      1  0.4962030000000  0.5831940000000  0.4455550000000 1.0
C      1  0.4270330000000  0.5548420000000  0.5107080000000 1.0
C      1  0.4794180000000  0.3956900000000  0.4714230000000 1.0
C      1  0.4551380000000  0.5126510000000  0.4501110000000 1.0
C      1  0.5166560000000  0.4984820000000  0.4579790000000 1.0
C      1  0.4691890000000  0.5871990000000  0.4992580000000 1.0
C      1  0.4624660000000  0.4428560000000  0.5082350000000 1.0
C      1  0.4912540000000  0.4915030000000  0.5708530000000 1.0
C      1  0.4612920000000  0.4828950000000  0.5805560000000 1.0
C      1  0.5995720000000  0.4730130000000  0.5072370000000 1.0
C      1  0.5545720000000  0.4565810000000  0.4900890000000 1.0
C      1  0.4165560000000  0.5346580000000  0.4624150000000 1.0
C      1  0.5188050000000  0.4758000000000  0.5791110000000 1.0
C      1  0.5536390000000  0.4749900000000  0.5254890000000 1.0
C      1  0.5142380000000  0.4704100000000  0.5468540000000 1.0
C      1  0.5067950000000  0.4848260000000  0.4859990000000 1.0
C      1  0.4855080000000  0.4504750000000  0.4055350000000 1.0
C      1  0.4581400000000  0.4497150000000  0.5761020000000 1.0
C      1  0.4568440000000  0.5425920000000  0.4663660000000 1.0
C      1  0.5041860000000  0.5313650000000  0.4082780000000 1.0
C      1  0.4819220000000  0.5639480000000  0.5841860000000 1.0
C      1  0.5140390000000  0.6012830000000  0.4569190000000 1.0
C      1  0.4676180000000  0.4288830000000  0.5545300000000 1.0
C      1  0.5280440000000  0.5512440000000  0.4221940000000 1.0
C      1  0.5134780000000  0.4278310000000  0.4473960000000 1.0
C      1  0.4566210000000  0.4422660000000  0.4316800000000 1.0
C      1  0.5302710000000  0.4638970000000  0.4436230000000 1.0
C      1  0.4988950000000  0.4339500000000  0.5492390000000 1.0
C      1  0.5085610000000  0.5281980000000  0.4476960000000 1.0
C      1  0.4101590000000  0.4603500000000  0.5048180000000 1.0
C      1  0.5329150000000  0.4315190000000  0.5429450000000 1.0
C      1  0.5740770000000  0.5470490000000  0.5747620000000 1.0
C      1  0.5212970000000  0.4015230000000  0.5428650000000 1.0
C      1  0.6209250000000  0.5366970000000  0.5614590000000 1.0
C      1  0.4939720000000  0.3995840000000  0.5002000000000 1.0
C      1  0.5419630000000  0.5050130000000  0.5647480000000 1.0
C      1  0.4619110000000  0.5651650000000  0.5650560000000 1.0
C      1  0.4884550000000  0.5043190000000  0.6092630000000 1.0
C      1  0.4861890000000  0.4263140000000  0.4295140000000 1.0
C      1  0.5143220000000  0.4432570000000  0.5762040000000 1.0
C      1  0.4324840000000  0.4388200000000  0.4797740000000 1.0
C      1  0.4597030000000  0.5158530000000  0.5715910000000 1.0
C      1  0.5193050000000  0.4204350000000  0.5021670000000 1.0
C      1  0.5531980000000  0.4361400000000  0.5160140000000 1.0
C      1  0.4906120000000  0.4375130000000  0.4673870000000 1.0
C      1  0.5643290000000  0.5649270000000  0.5107750000000 1.0
END
