TITL C-2778434-4341-293 0.000779606015816077 125000 -188.80523884909 0 0 34 (C1) n - 1
REM
REM in /home/nfs/bkarasulu/CARBON/AIRSS/Generating-Clusters/REBO/Only-C1/SD-CG/HFTN-CG
REM
REM
REM
REM
REM
REM ./C.cell (11c1c37f851c82e70ff6c80c92926a4b)
REM
REM compiler GCC version 9.2.1 20190827 (Red Hat 9.2.1-1)
REM options -cpp -mtune=generic -march=x86-64 -g -O0 -fpre-include=/usr/include/finclude/math-vector-fortran.h
REM seed 433489028 642029600 54403395 -1579228018 -121180792 1364271527 1888953293 614286092 685547811 -1412940638 1379026457 -1343887541 -818471028 1980924899 -333989699 -676956670 -525881299 97532271 248656471 -467205122 2118808261 1953102661 991338313 -1930004841 -1193866065 648340740 -1142143997 1019979035 1717422577 -1950149224 -1245551241 1922900097 -978354742
REM
CELL 1.54180   50.00000   50.00000   50.00000   90.00000   90.00000   90.00000
LATT -1
SFAC C  
C      1  0.4861020000000  0.5025780000000  0.4460450000000 1.0
C      1  0.4716760000000  0.4835760000000  0.5353490000000 1.0
C      1  0.4880290000000  0.5314840000000  0.4593160000000 1.0
C      1  0.4573990000000  0.5214770000000  0.5021240000000 1.0
C      1  0.5140770000000  0.4565690000000  0.4807700000000 1.0
C      1  0.5214700000000  0.4832820000000  0.5523460000000 1.0
C      1  0.4573700000000  0.4534920000000  0.4976630000000 1.0
C      1  0.5199540000000  0.4268560000000  0.5281270000000 1.0
C      1  0.5521360000000  0.4784330000000  0.5420040000000 1.0
C      1  0.5222310000000  0.4703210000000  0.4524620000000 1.0
C      1  0.5330960000000  0.5065900000000  0.4923010000000 1.0
C      1  0.5542540000000  0.5090090000000  0.5168220000000 1.0
C      1  0.5342390000000  0.5310940000000  0.4732510000000 1.0
C      1  0.5538840000000  0.4762770000000  0.5078570000000 1.0
C      1  0.5477570000000  0.5122550000000  0.5463220000000 1.0
C      1  0.5400050000000  0.4777620000000  0.4792800000000 1.0
C      1  0.4606220000000  0.5475420000000  0.4633380000000 1.0
C      1  0.4518950000000  0.5052730000000  0.5232710000000 1.0
C      1  0.4627940000000  0.5708670000000  0.5050290000000 1.0
C      1  0.4765340000000  0.4592920000000  0.5160780000000 1.0
C      1  0.4987920000000  0.4975480000000  0.5321730000000 1.0
C      1  0.4799760000000  0.5100020000000  0.4846890000000 1.0
C      1  0.5072160000000  0.5709290000000  0.4811480000000 1.0
C      1  0.5344850000000  0.4552720000000  0.5257040000000 1.0
C      1  0.5178490000000  0.5162360000000  0.5532960000000 1.0
C      1  0.5041270000000  0.5038550000000  0.5028000000000 1.0
C      1  0.5126920000000  0.5468620000000  0.4672660000000 1.0
C      1  0.4650380000000  0.4759440000000  0.5616180000000 1.0
C      1  0.4877760000000  0.5804430000000  0.4979790000000 1.0
C      1  0.4524750000000  0.5479140000000  0.4912620000000 1.0
C      1  0.5049250000000  0.4510420000000  0.5094070000000 1.0
C      1  0.4539040000000  0.4651600000000  0.4732270000000 1.0
C      1  0.4674780000000  0.4871750000000  0.4636370000000 1.0
C      1  0.5077480000000  0.4875870000000  0.4360400000000 1.0
END
