TITL C-2778431-5191-517 -0.00289238372475253 125000 -1016.65629232927 0 0 174 (C1) n - 1
REM
REM in /home/nfs/bkarasulu/CARBON/AIRSS/Generating-Clusters/REBO/Only-C1/SD-CG/HFTN-CG
REM
REM
REM
REM
REM
REM ./C.cell (11c1c37f851c82e70ff6c80c92926a4b)
REM
REM compiler GCC version 9.2.1 20190827 (Red Hat 9.2.1-1)
REM options -cpp -mtune=generic -march=x86-64 -g -O0 -fpre-include=/usr/include/finclude/math-vector-fortran.h
REM seed 1567645758 1498289153 1505275482 -1955360510 1019402393 1700344306 -556810922 -1787236173 1445515882 284437603 -1717190585 -1948297341 1817995058 -1588838334 1115345667 -265875412 -1088144401 354713282 201331666 995540196 -1487044036 1766857236 1962610155 -1736668815 357731524 -1518874639 -1660828220 2108753739 -1150600254 945691406 -348067618 -567378902 -2124759853
REM
CELL 1.54180   50.00000   50.00000   50.00000   90.00000   90.00000   90.00000
LATT -1
SFAC C  
C      1  0.4837220000000  0.5210530000000  0.5667100000000 1.0
C      1  0.5517270000000  0.4746400000000  0.5960720000000 1.0
C      1  0.4825190000000  0.5747080000000  0.5468190000000 1.0
C      1  0.4145190000000  0.5689490000000  0.5111740000000 1.0
C      1  0.5580140000000  0.4286960000000  0.4318140000000 1.0
C      1  0.5374950000000  0.5992320000000  0.4571420000000 1.0
C      1  0.5082640000000  0.6100970000000  0.4574140000000 1.0
C      1  0.4046280000000  0.4712470000000  0.5357550000000 1.0
C      1  0.5079390000000  0.5333850000000  0.5991210000000 1.0
C      1  0.5152240000000  0.5845410000000  0.4869070000000 1.0
C      1  0.4656510000000  0.5211830000000  0.4357340000000 1.0
C      1  0.5920330000000  0.4578980000000  0.4954330000000 1.0
C      1  0.5595760000000  0.5945480000000  0.5193200000000 1.0
C      1  0.5631530000000  0.4579790000000  0.5701240000000 1.0
C      1  0.5772020000000  0.4440010000000  0.5421050000000 1.0
C      1  0.5373920000000  0.5505660000000  0.5088920000000 1.0
C      1  0.5959830000000  0.4992760000000  0.4436260000000 1.0
C      1  0.5491680000000  0.5331770000000  0.4198480000000 1.0
C      1  0.5168810000000  0.4004810000000  0.5400730000000 1.0
C      1  0.5425740000000  0.4614600000000  0.4954950000000 1.0
C      1  0.4379360000000  0.5001870000000  0.5919940000000 1.0
C      1  0.5433570000000  0.3921120000000  0.5387790000000 1.0
C      1  0.5386710000000  0.5135380000000  0.5237370000000 1.0
C      1  0.4844970000000  0.6026870000000  0.5190330000000 1.0
C      1  0.4789060000000  0.5746790000000  0.4734590000000 1.0
C      1  0.4417260000000  0.4783210000000  0.4760360000000 1.0
C      1  0.4224120000000  0.4456030000000  0.4615380000000 1.0
C      1  0.4554240000000  0.5575510000000  0.5009320000000 1.0
C      1  0.5092830000000  0.5865650000000  0.5375990000000 1.0
C      1  0.4781840000000  0.5596190000000  0.5749360000000 1.0
C      1  0.4251390000000  0.5659190000000  0.4580190000000 1.0
C      1  0.4987440000000  0.4336370000000  0.4194390000000 1.0
C      1  0.4567080000000  0.4617170000000  0.4246540000000 1.0
C      1  0.4424690000000  0.5676400000000  0.4370930000000 1.0
C      1  0.4914480000000  0.4246040000000  0.5673190000000 1.0
C      1  0.5952970000000  0.5059240000000  0.5148950000000 1.0
C      1  0.5112340000000  0.5674650000000  0.5120370000000 1.0
C      1  0.5111630000000  0.4570850000000  0.5091950000000 1.0
C      1  0.4359150000000  0.4827220000000  0.4121830000000 1.0
C      1  0.5604410000000  0.5772840000000  0.5487050000000 1.0
C      1  0.5091680000000  0.4317980000000  0.5322030000000 1.0
C      1  0.4894110000000  0.5674450000000  0.4297060000000 1.0
C      1  0.4826960000000  0.4749280000000  0.5039410000000 1.0
C      1  0.5611540000000  0.5771050000000  0.4678680000000 1.0
C      1  0.4565140000000  0.4768980000000  0.5892910000000 1.0
C      1  0.4170670000000  0.4741190000000  0.4887520000000 1.0
C      1  0.5467320000000  0.4948110000000  0.4696960000000 1.0
C      1  0.4824500000000  0.5424860000000  0.4760220000000 1.0
C      1  0.5668910000000  0.4492280000000  0.4154320000000 1.0
C      1  0.5438110000000  0.4343010000000  0.5128270000000 1.0
C      1  0.5866200000000  0.5470900000000  0.4348080000000 1.0
C      1  0.5257140000000  0.4815690000000  0.5278410000000 1.0
C      1  0.4189880000000  0.5240400000000  0.4270740000000 1.0
C      1  0.5854950000000  0.5552970000000  0.5091130000000 1.0
C      1  0.3944370000000  0.5422630000000  0.5182280000000 1.0
C      1  0.4804910000000  0.5067580000000  0.5113080000000 1.0
C      1  0.5943140000000  0.5220450000000  0.5394800000000 1.0
C      1  0.4654710000000  0.4665700000000  0.4564490000000 1.0
C      1  0.5457070000000  0.4550710000000  0.4665180000000 1.0
C      1  0.4651140000000  0.4163300000000  0.4518790000000 1.0
C      1  0.5231520000000  0.5685550000000  0.4591380000000 1.0
C      1  0.4039960000000  0.4990060000000  0.4918330000000 1.0
C      1  0.5156800000000  0.5136570000000  0.5716420000000 1.0
C      1  0.5646020000000  0.5147230000000  0.4536170000000 1.0
C      1  0.5656610000000  0.5053950000000  0.5918290000000 1.0
C      1  0.4219630000000  0.4723550000000  0.4418160000000 1.0
C      1  0.4219230000000  0.5179660000000  0.5029040000000 1.0
C      1  0.5182850000000  0.4847790000000  0.4633160000000 1.0
C      1  0.4741920000000  0.5342040000000  0.5944700000000 1.0
C      1  0.4348910000000  0.5702790000000  0.5327850000000 1.0
C      1  0.4650160000000  0.5531000000000  0.4284960000000 1.0
C      1  0.3995250000000  0.4988430000000  0.5517710000000 1.0
C      1  0.4891290000000  0.5875610000000  0.4502090000000 1.0
C      1  0.4234740000000  0.5393070000000  0.5550230000000 1.0
C      1  0.5602780000000  0.4053850000000  0.5142670000000 1.0
C      1  0.4869560000000  0.4414440000000  0.4508620000000 1.0
C      1  0.5623900000000  0.5383460000000  0.5225820000000 1.0
C      1  0.5525400000000  0.4922760000000  0.5006480000000 1.0
C      1  0.5018830000000  0.3915540000000  0.4820430000000 1.0
C      1  0.4406720000000  0.4406950000000  0.4890910000000 1.0
C      1  0.4906290000000  0.4524550000000  0.5496560000000 1.0
C      1  0.5575290000000  0.5531890000000  0.4460910000000 1.0
C      1  0.4345100000000  0.4307990000000  0.5272340000000 1.0
C      1  0.4823520000000  0.4985670000000  0.5445310000000 1.0
C      1  0.5323850000000  0.5020420000000  0.5980700000000 1.0
C      1  0.5162940000000  0.5200050000000  0.4446090000000 1.0
C      1  0.4581640000000  0.5921040000000  0.5386080000000 1.0
C      1  0.4488820000000  0.5399150000000  0.5362970000000 1.0
C      1  0.5860030000000  0.5786410000000  0.5259580000000 1.0
C      1  0.5709990000000  0.5094070000000  0.4214100000000 1.0
C      1  0.5270950000000  0.4187650000000  0.4315350000000 1.0
C      1  0.5455810000000  0.5802710000000  0.4961510000000 1.0
C      1  0.4858650000000  0.4641040000000  0.4150170000000 1.0
C      1  0.5007110000000  0.4417980000000  0.4821530000000 1.0
C      1  0.5271430000000  0.4501100000000  0.4169830000000 1.0
C      1  0.5337580000000  0.5503640000000  0.5842670000000 1.0
C      1  0.4654140000000  0.4138990000000  0.5675500000000 1.0
C      1  0.4875800000000  0.5171980000000  0.4568940000000 1.0
C      1  0.4111660000000  0.5441860000000  0.4884820000000 1.0
C      1  0.5825780000000  0.5547220000000  0.4809460000000 1.0
C      1  0.4391190000000  0.5155060000000  0.4064850000000 1.0
C      1  0.5322330000000  0.5759010000000  0.5605850000000 1.0
C      1  0.4972290000000  0.5147620000000  0.3962490000000 1.0
C      1  0.4690440000000  0.4002290000000  0.4802040000000 1.0
C      1  0.4448090000000  0.4309990000000  0.5578420000000 1.0
C      1  0.5830840000000  0.5036660000000  0.5630180000000 1.0
C      1  0.4872380000000  0.5495240000000  0.5082800000000 1.0
C      1  0.4449090000000  0.4613750000000  0.5152470000000 1.0
C      1  0.5808140000000  0.4301490000000  0.4807090000000 1.0
C      1  0.5154350000000  0.5512020000000  0.4312580000000 1.0
C      1  0.5357450000000  0.4785160000000  0.5661110000000 1.0
C      1  0.4701820000000  0.5224080000000  0.4034310000000 1.0
C      1  0.5849940000000  0.5288000000000  0.4711760000000 1.0
C      1  0.4305750000000  0.5474110000000  0.5825370000000 1.0
C      1  0.5131890000000  0.5283540000000  0.5409820000000 1.0
C      1  0.4056160000000  0.5014180000000  0.4422620000000 1.0
C      1  0.5861870000000  0.4765920000000  0.5209560000000 1.0
C      1  0.5063750000000  0.5035180000000  0.4892740000000 1.0
C      1  0.4852130000000  0.4780210000000  0.5961410000000 1.0
C      1  0.4328880000000  0.5775750000000  0.4853170000000 1.0
C      1  0.4440430000000  0.4576870000000  0.5694660000000 1.0
C      1  0.5048070000000  0.4785540000000  0.5518490000000 1.0
C      1  0.5204870000000  0.4379900000000  0.5715720000000 1.0
C      1  0.6032150000000  0.5285690000000  0.4352900000000 1.0
C      1  0.5203150000000  0.5300660000000  0.4063090000000 1.0
C      1  0.4447230000000  0.4092960000000  0.5027820000000 1.0
C      1  0.4996200000000  0.5008070000000  0.6055810000000 1.0
C      1  0.5375150000000  0.4422810000000  0.5445480000000 1.0
C      1  0.4747850000000  0.4173810000000  0.5160310000000 1.0
C      1  0.5551820000000  0.4687950000000  0.5326750000000 1.0
C      1  0.4314070000000  0.4750800000000  0.5502570000000 1.0
C      1  0.5275680000000  0.5256000000000  0.4923020000000 1.0
C      1  0.5833320000000  0.4304570000000  0.5146900000000 1.0
C      1  0.4522580000000  0.4885890000000  0.5323500000000 1.0
C      1  0.5616650000000  0.4786240000000  0.4245750000000 1.0
C      1  0.5504850000000  0.5048810000000  0.5548720000000 1.0
C      1  0.4446670000000  0.4363200000000  0.4407830000000 1.0
C      1  0.4011740000000  0.5265390000000  0.5414610000000 1.0
C      1  0.4453130000000  0.4976460000000  0.4414300000000 1.0
C      1  0.4628540000000  0.5900190000000  0.4964820000000 1.0
C      1  0.5275490000000  0.4262950000000  0.4838500000000 1.0
C      1  0.5672610000000  0.4741610000000  0.4547460000000 1.0
C      1  0.5564900000000  0.5322720000000  0.5745570000000 1.0
C      1  0.4074280000000  0.4479720000000  0.5187180000000 1.0
C      1  0.4801220000000  0.4886100000000  0.4734350000000 1.0
C      1  0.5734690000000  0.5460080000000  0.5520190000000 1.0
C      1  0.4804790000000  0.5415360000000  0.5391870000000 1.0
C      1  0.4083190000000  0.5388150000000  0.4560600000000 1.0
C      1  0.4719580000000  0.4334370000000  0.4870580000000 1.0
C      1  0.5096400000000  0.5521630000000  0.5640980000000 1.0
C      1  0.4517730000000  0.5323340000000  0.4806940000000 1.0
C      1  0.5713800000000  0.4249240000000  0.4566380000000 1.0
C      1  0.4452810000000  0.5080160000000  0.4714930000000 1.0
C      1  0.5334160000000  0.4975880000000  0.4282440000000 1.0
C      1  0.5290710000000  0.3987510000000  0.5020780000000 1.0
C      1  0.4975010000000  0.6111750000000  0.4887450000000 1.0
C      1  0.3932300000000  0.5103560000000  0.4677220000000 1.0
C      1  0.5273770000000  0.4765830000000  0.4041820000000 1.0
C      1  0.5334070000000  0.5373740000000  0.4640950000000 1.0
C      1  0.5946710000000  0.4795090000000  0.4714640000000 1.0
C      1  0.5018360000000  0.4853460000000  0.4335100000000 1.0
C      1  0.4126960000000  0.4969860000000  0.5779990000000 1.0
C      1  0.5881170000000  0.4738730000000  0.5546180000000 1.0
C      1  0.4743200000000  0.4491000000000  0.5236580000000 1.0
C      1  0.5009650000000  0.4860500000000  0.3937210000000 1.0
C      1  0.4016850000000  0.4475730000000  0.4887740000000 1.0
C      1  0.5194280000000  0.4537900000000  0.4490710000000 1.0
C      1  0.4453280000000  0.5276300000000  0.5970340000000 1.0
C      1  0.5212540000000  0.4059860000000  0.4582400000000 1.0
C      1  0.5028150000000  0.4570470000000  0.5874710000000 1.0
C      1  0.5970840000000  0.5083810000000  0.4867360000000 1.0
C      1  0.4970850000000  0.3980520000000  0.5146890000000 1.0
C      1  0.4474210000000  0.5707340000000  0.5645190000000 1.0
C      1  0.4481430000000  0.5163610000000  0.5171210000000 1.0
END
