TITL C-2778434-4341-116 0.00400107165439085 125000 -384.822360982459 0 0 66 (C1) n - 1
REM
REM in /home/nfs/bkarasulu/CARBON/AIRSS/Generating-Clusters/REBO/Only-C1/SD-CG/HFTN-CG
REM
REM
REM
REM
REM
REM ./C.cell (11c1c37f851c82e70ff6c80c92926a4b)
REM
REM compiler GCC version 9.2.1 20190827 (Red Hat 9.2.1-1)
REM options -cpp -mtune=generic -march=x86-64 -g -O0 -fpre-include=/usr/include/finclude/math-vector-fortran.h
REM seed 51109930 340693542 1735570563 -854402853 -21647359 601118676 860415274 2144577743 -1098644200 601089790 -19096155 948188173 -2136364566 222086623 804237353 2135608885 -1900563828 1018051396 -1745887904 -637712415 -805036661 630343958 1374479073 1958774139 -460645448 -1002219162 -27396957 1711110503 678637942 1432977217 631948328 -1483052810 926319225
REM
CELL 1.54180   50.00000   50.00000   50.00000   90.00000   90.00000   90.00000
LATT -1
SFAC C  
C      1  0.4900390000000  0.4849550000000  0.5280970000000 1.0
C      1  0.5189500000000  0.4951100000000  0.5227430000000 1.0
C      1  0.5162130000000  0.5236960000000  0.5651430000000 1.0
C      1  0.4526540000000  0.5318290000000  0.4562320000000 1.0
C      1  0.4916130000000  0.4359660000000  0.4529840000000 1.0
C      1  0.5221640000000  0.5114380000000  0.4438840000000 1.0
C      1  0.4929010000000  0.4514020000000  0.5633160000000 1.0
C      1  0.5354400000000  0.5600990000000  0.4814870000000 1.0
C      1  0.4818900000000  0.5662590000000  0.4613970000000 1.0
C      1  0.4693890000000  0.5126490000000  0.5784130000000 1.0
C      1  0.4957280000000  0.5192650000000  0.4368900000000 1.0
C      1  0.4727210000000  0.5459310000000  0.5449930000000 1.0
C      1  0.5663270000000  0.4864800000000  0.5520140000000 1.0
C      1  0.4921540000000  0.4937690000000  0.4672580000000 1.0
C      1  0.5368150000000  0.4691930000000  0.4913790000000 1.0
C      1  0.4409580000000  0.5026100000000  0.5293810000000 1.0
C      1  0.4466470000000  0.5334230000000  0.5429490000000 1.0
C      1  0.5773990000000  0.5116750000000  0.5543260000000 1.0
C      1  0.4234950000000  0.4893680000000  0.5086060000000 1.0
C      1  0.4701690000000  0.5053350000000  0.5172520000000 1.0
C      1  0.5355140000000  0.5852570000000  0.4957750000000 1.0
C      1  0.5098540000000  0.4723310000000  0.4803050000000 1.0
C      1  0.5424300000000  0.5315560000000  0.4906300000000 1.0
C      1  0.5363840000000  0.4836680000000  0.4515280000000 1.0
C      1  0.4511740000000  0.4948180000000  0.4330470000000 1.0
C      1  0.5390700000000  0.4556630000000  0.4538260000000 1.0
C      1  0.5393650000000  0.4434260000000  0.5054470000000 1.0
C      1  0.4877940000000  0.4553110000000  0.5186720000000 1.0
C      1  0.4784600000000  0.4941410000000  0.4357880000000 1.0
C      1  0.5394240000000  0.4854430000000  0.5437070000000 1.0
C      1  0.4757540000000  0.5310610000000  0.4990180000000 1.0
C      1  0.5643730000000  0.4452940000000  0.4513580000000 1.0
C      1  0.5344900000000  0.4391510000000  0.5334410000000 1.0
C      1  0.5001300000000  0.4179610000000  0.5087370000000 1.0
C      1  0.4307660000000  0.4629770000000  0.5006260000000 1.0
C      1  0.5184530000000  0.4945450000000  0.5639430000000 1.0
C      1  0.4448750000000  0.5082920000000  0.5627610000000 1.0
C      1  0.4939940000000  0.4788420000000  0.5590490000000 1.0
C      1  0.5356530000000  0.5385190000000  0.5477900000000 1.0
C      1  0.5684350000000  0.5299450000000  0.5106810000000 1.0
C      1  0.5028850000000  0.4335800000000  0.5385280000000 1.0
C      1  0.5182070000000  0.4368090000000  0.4630760000000 1.0
C      1  0.4913890000000  0.4525720000000  0.4906240000000 1.0
C      1  0.4753740000000  0.4142390000000  0.4977020000000 1.0
C      1  0.4514560000000  0.4597280000000  0.4816000000000 1.0
C      1  0.5107460000000  0.5715470000000  0.5107340000000 1.0
C      1  0.4779070000000  0.5414750000000  0.4461610000000 1.0
C      1  0.4880550000000  0.5319290000000  0.5658470000000 1.0
C      1  0.5638260000000  0.5318180000000  0.5393360000000 1.0
C      1  0.5150200000000  0.5541670000000  0.4384530000000 1.0
C      1  0.5200470000000  0.5192500000000  0.5083050000000 1.0
C      1  0.4860990000000  0.5693750000000  0.4877330000000 1.0
C      1  0.5747870000000  0.5092860000000  0.4873690000000 1.0
C      1  0.4976540000000  0.5240090000000  0.4766220000000 1.0
C      1  0.4499410000000  0.5405300000000  0.4842480000000 1.0
C      1  0.4606730000000  0.4840890000000  0.4701640000000 1.0
C      1  0.4178290000000  0.5072670000000  0.4871180000000 1.0
C      1  0.4826860000000  0.5549670000000  0.5185370000000 1.0
C      1  0.5214340000000  0.4262170000000  0.4903840000000 1.0
C      1  0.5207950000000  0.5446070000000  0.5237960000000 1.0
C      1  0.5607720000000  0.4832690000000  0.4893860000000 1.0
C      1  0.4680850000000  0.4348200000000  0.4746640000000 1.0
C      1  0.4239680000000  0.5347040000000  0.4942240000000 1.0
C      1  0.4359720000000  0.5036450000000  0.4611740000000 1.0
C      1  0.5154940000000  0.5449970000000  0.4644010000000 1.0
C      1  0.5488400000000  0.5124510000000  0.4649410000000 1.0
END
