TITL C-2778428-5639-858 -0.00299321918468751 125000 -897.931186680563 0 0 155 (C1) n - 1
REM
REM in /home/nfs/bkarasulu/CARBON/AIRSS/Generating-Clusters/REBO/Only-C1/SD-CG/HFTN-CG
REM
REM
REM
REM
REM
REM ./C.cell (11c1c37f851c82e70ff6c80c92926a4b)
REM
REM compiler GCC version 9.2.1 20190827 (Red Hat 9.2.1-1)
REM options -cpp -mtune=generic -march=x86-64 -g -O0 -fpre-include=/usr/include/finclude/math-vector-fortran.h
REM seed 1176196009 -2098758191 -310377377 545863200 1828260079 -202401097 1380368375 -1539324723 -1207320508 1037607754 -1230687881 1499007171 1157215980 38107032 -67402744 -192166802 1832717863 -2045133758 -1074381304 -1525725613 -1374063716 1321580850 728892364 -1519595049 -1522473240 2060911594 -1759548863 -1861822120 633774667 -1681523921 -75175504 1060084258 -1481628503
REM
CELL 1.54180   50.00000   50.00000   50.00000   90.00000   90.00000   90.00000
LATT -1
SFAC C  
C      1  0.5147940000000  0.5656730000000  0.4133530000000 1.0
C      1  0.5115430000000  0.5155300000000  0.5073530000000 1.0
C      1  0.4821520000000  0.4448700000000  0.5476770000000 1.0
C      1  0.5872490000000  0.5394040000000  0.5700010000000 1.0
C      1  0.5558370000000  0.4315670000000  0.4554920000000 1.0
C      1  0.4785230000000  0.5153730000000  0.5165430000000 1.0
C      1  0.4238530000000  0.5595350000000  0.4672900000000 1.0
C      1  0.5137590000000  0.5613720000000  0.4828220000000 1.0
C      1  0.5607920000000  0.4634360000000  0.5723580000000 1.0
C      1  0.4604650000000  0.5578360000000  0.4318260000000 1.0
C      1  0.4207110000000  0.4695860000000  0.5338090000000 1.0
C      1  0.4841510000000  0.5504010000000  0.5551560000000 1.0
C      1  0.5308880000000  0.5832170000000  0.4304670000000 1.0
C      1  0.5272210000000  0.5104300000000  0.4504800000000 1.0
C      1  0.5216680000000  0.4425550000000  0.4198860000000 1.0
C      1  0.4994590000000  0.6009800000000  0.4810310000000 1.0
C      1  0.5270060000000  0.4854990000000  0.5034150000000 1.0
C      1  0.4525920000000  0.5162440000000  0.4117570000000 1.0
C      1  0.5782640000000  0.5597060000000  0.4704750000000 1.0
C      1  0.5284270000000  0.5453580000000  0.5552480000000 1.0
C      1  0.5785630000000  0.4859280000000  0.5578870000000 1.0
C      1  0.5789200000000  0.4730550000000  0.4414640000000 1.0
C      1  0.4209520000000  0.5383140000000  0.4489830000000 1.0
C      1  0.4328840000000  0.5320520000000  0.4946430000000 1.0
C      1  0.5279090000000  0.4950720000000  0.5420540000000 1.0
C      1  0.4589630000000  0.5712100000000  0.5457400000000 1.0
C      1  0.5948240000000  0.5142230000000  0.5483130000000 1.0
C      1  0.3903910000000  0.5189970000000  0.5088350000000 1.0
C      1  0.4744960000000  0.5881700000000  0.4795000000000 1.0
C      1  0.5237640000000  0.5133520000000  0.4020700000000 1.0
C      1  0.5358110000000  0.5557390000000  0.5176140000000 1.0
C      1  0.5086170000000  0.5003670000000  0.4266760000000 1.0
C      1  0.5722750000000  0.4805630000000  0.4889870000000 1.0
C      1  0.4485050000000  0.5178160000000  0.5526510000000 1.0
C      1  0.5153600000000  0.6043130000000  0.4523510000000 1.0
C      1  0.5456200000000  0.4945920000000  0.4127080000000 1.0
C      1  0.4741260000000  0.4049350000000  0.5736890000000 1.0
C      1  0.5248880000000  0.4190390000000  0.4771400000000 1.0
C      1  0.4248150000000  0.4383290000000  0.5298860000000 1.0
C      1  0.4468460000000  0.5483630000000  0.5679080000000 1.0
C      1  0.4456220000000  0.4190950000000  0.4518480000000 1.0
C      1  0.5129770000000  0.5234300000000  0.5412590000000 1.0
C      1  0.4492640000000  0.4465920000000  0.4995240000000 1.0
C      1  0.5503090000000  0.4590580000000  0.5036590000000 1.0
C      1  0.4468520000000  0.5710290000000  0.4897810000000 1.0
C      1  0.5034120000000  0.5902730000000  0.5315240000000 1.0
C      1  0.5522930000000  0.5156890000000  0.5531900000000 1.0
C      1  0.5485630000000  0.4634700000000  0.4504520000000 1.0
C      1  0.4506130000000  0.5595470000000  0.5174120000000 1.0
C      1  0.5242430000000  0.4254440000000  0.5668550000000 1.0
C      1  0.3686570000000  0.4662050000000  0.5023820000000 1.0
C      1  0.6132060000000  0.5271890000000  0.4892140000000 1.0
C      1  0.5493050000000  0.5389120000000  0.4332100000000 1.0
C      1  0.4800630000000  0.5126860000000  0.4282110000000 1.0
C      1  0.4999030000000  0.4727950000000  0.5744550000000 1.0
C      1  0.4524570000000  0.4516000000000  0.4467430000000 1.0
C      1  0.4344380000000  0.4532340000000  0.5630940000000 1.0
C      1  0.5525270000000  0.4390330000000  0.5568180000000 1.0
C      1  0.5564200000000  0.5482940000000  0.5754460000000 1.0
C      1  0.5095800000000  0.5276070000000  0.5856020000000 1.0
C      1  0.5704500000000  0.5112730000000  0.5795150000000 1.0
C      1  0.4918590000000  0.5205930000000  0.4794640000000 1.0
C      1  0.4648920000000  0.4183470000000  0.5444560000000 1.0
C      1  0.5336750000000  0.5837560000000  0.4697920000000 1.0
C      1  0.4497570000000  0.4205680000000  0.5186070000000 1.0
C      1  0.5120650000000  0.4609810000000  0.4928510000000 1.0
C      1  0.4807940000000  0.5148220000000  0.5997140000000 1.0
C      1  0.5619160000000  0.5096670000000  0.4846320000000 1.0
C      1  0.5323800000000  0.4948960000000  0.6025690000000 1.0
C      1  0.4829420000000  0.5675940000000  0.4160660000000 1.0
C      1  0.4660640000000  0.4929410000000  0.5782490000000 1.0
C      1  0.4799870000000  0.4560570000000  0.4350740000000 1.0
C      1  0.5445780000000  0.4136260000000  0.5349370000000 1.0
C      1  0.4977830000000  0.4783070000000  0.4472740000000 1.0
C      1  0.4294270000000  0.5373140000000  0.5236430000000 1.0
C      1  0.4993720000000  0.4040850000000  0.4826950000000 1.0
C      1  0.5487850000000  0.4730030000000  0.5949600000000 1.0
C      1  0.5713100000000  0.5180990000000  0.5247380000000 1.0
C      1  0.4151550000000  0.4625930000000  0.4385240000000 1.0
C      1  0.4067450000000  0.5221230000000  0.5326100000000 1.0
C      1  0.5871530000000  0.5290450000000  0.4731590000000 1.0
C      1  0.5175540000000  0.4594610000000  0.4621640000000 1.0
C      1  0.4815580000000  0.4551090000000  0.3873960000000 1.0
C      1  0.5549260000000  0.5675250000000  0.4488660000000 1.0
C      1  0.4544350000000  0.4318800000000  0.5732530000000 1.0
C      1  0.4604580000000  0.4913680000000  0.4419020000000 1.0
C      1  0.5980490000000  0.4768310000000  0.4674430000000 1.0
C      1  0.5491630000000  0.5718810000000  0.5528460000000 1.0
C      1  0.5221680000000  0.4010840000000  0.5283310000000 1.0
C      1  0.4922720000000  0.5905870000000  0.4349290000000 1.0
C      1  0.4808140000000  0.4715170000000  0.5275200000000 1.0
C      1  0.5101830000000  0.4727480000000  0.5448930000000 1.0
C      1  0.4499400000000  0.4967980000000  0.3917250000000 1.0
C      1  0.5536470000000  0.5569270000000  0.4912590000000 1.0
C      1  0.4167010000000  0.4862380000000  0.4819410000000 1.0
C      1  0.4068260000000  0.5246270000000  0.4857880000000 1.0
C      1  0.5466720000000  0.5960570000000  0.4960540000000 1.0
C      1  0.5168750000000  0.5999790000000  0.5036080000000 1.0
C      1  0.5919090000000  0.4530740000000  0.4899290000000 1.0
C      1  0.4630140000000  0.4746590000000  0.3826070000000 1.0
C      1  0.4718470000000  0.4170790000000  0.4689710000000 1.0
C      1  0.5404640000000  0.5230480000000  0.5906740000000 1.0
C      1  0.4714970000000  0.4592740000000  0.5766340000000 1.0
C      1  0.4403120000000  0.5380410000000  0.4270280000000 1.0
C      1  0.4797810000000  0.4596520000000  0.4975350000000 1.0
C      1  0.5587180000000  0.4203220000000  0.4826780000000 1.0
C      1  0.5298840000000  0.4019750000000  0.5909390000000 1.0
C      1  0.5265440000000  0.5411410000000  0.4584340000000 1.0
C      1  0.4862560000000  0.4455470000000  0.4670250000000 1.0
C      1  0.4608480000000  0.4992330000000  0.4942050000000 1.0
C      1  0.5782100000000  0.4303520000000  0.4996570000000 1.0
C      1  0.4995060000000  0.3968840000000  0.5147320000000 1.0
C      1  0.4354230000000  0.4862250000000  0.5104310000000 1.0
C      1  0.5288250000000  0.5410830000000  0.4090230000000 1.0
C      1  0.5022670000000  0.5605230000000  0.5810680000000 1.0
C      1  0.4273170000000  0.4884530000000  0.4435750000000 1.0
C      1  0.5044430000000  0.4906760000000  0.5997710000000 1.0
C      1  0.4140440000000  0.4978280000000  0.5516000000000 1.0
C      1  0.4174810000000  0.4467930000000  0.4871330000000 1.0
C      1  0.5533430000000  0.4936990000000  0.5214800000000 1.0
C      1  0.4425060000000  0.4659580000000  0.4728320000000 1.0
C      1  0.5146690000000  0.4399380000000  0.5384350000000 1.0
C      1  0.5849390000000  0.5047730000000  0.4523240000000 1.0
C      1  0.4221940000000  0.5258320000000  0.5690910000000 1.0
C      1  0.4732510000000  0.5436620000000  0.5872280000000 1.0
C      1  0.5856520000000  0.5454540000000  0.5364790000000 1.0
C      1  0.5051000000000  0.5629520000000  0.5129170000000 1.0
C      1  0.4193150000000  0.4380240000000  0.4563040000000 1.0
C      1  0.5016720000000  0.5631280000000  0.4510450000000 1.0
C      1  0.5421160000000  0.5280070000000  0.4993180000000 1.0
C      1  0.5453580000000  0.4950100000000  0.4623680000000 1.0
C      1  0.5386350000000  0.4674480000000  0.4194700000000 1.0
C      1  0.5627010000000  0.5111240000000  0.4301450000000 1.0
C      1  0.5277960000000  0.4258270000000  0.4434890000000 1.0
C      1  0.4949660000000  0.5054630000000  0.5639620000000 1.0
C      1  0.4697340000000  0.4052980000000  0.5004330000000 1.0
C      1  0.4811420000000  0.4913390000000  0.4693110000000 1.0
C      1  0.3928400000000  0.4660090000000  0.4935210000000 1.0
C      1  0.5695580000000  0.4337910000000  0.5278400000000 1.0
C      1  0.4067870000000  0.5093160000000  0.4585200000000 1.0
C      1  0.5269310000000  0.4360520000000  0.5069320000000 1.0
C      1  0.4455730000000  0.5082810000000  0.4653990000000 1.0
C      1  0.4631080000000  0.5625640000000  0.4610850000000 1.0
C      1  0.5681900000000  0.4664060000000  0.5322330000000 1.0
C      1  0.5171670000000  0.5779580000000  0.5560340000000 1.0
C      1  0.4884910000000  0.5340810000000  0.4492710000000 1.0
C      1  0.4804920000000  0.5460190000000  0.5235290000000 1.0
C      1  0.4611350000000  0.5355950000000  0.4779960000000 1.0
C      1  0.4586250000000  0.4960570000000  0.5336560000000 1.0
C      1  0.5006660000000  0.4053750000000  0.5804720000000 1.0
C      1  0.5761070000000  0.5808560000000  0.4974570000000 1.0
C      1  0.5666560000000  0.5678590000000  0.5272960000000 1.0
C      1  0.4942410000000  0.4463020000000  0.4110060000000 1.0
C      1  0.4379990000000  0.4822160000000  0.5672690000000 1.0
C      1  0.4738480000000  0.5959730000000  0.5405450000000 1.0
END
