TITL C-2778426-5645-502 -0.00205484611157382 125000 -602.623010202751 0 0 108 (C1) n - 1
REM
REM in /home/nfs/bkarasulu/CARBON/AIRSS/Generating-Clusters/REBO/Only-C1/SD-CG/HFTN-CG
REM
REM
REM
REM
REM
REM ./C.cell (11c1c37f851c82e70ff6c80c92926a4b)
REM
REM compiler GCC version 9.2.1 20190827 (Red Hat 9.2.1-1)
REM options -cpp -mtune=generic -march=x86-64 -g -O0 -fpre-include=/usr/include/finclude/math-vector-fortran.h
REM seed 2064328958 -514399278 859903528 1988974274 -112082312 309009125 -1510950804 -991486892 1828787926 1371561775 104738153 -1661548956 2055172576 1949390617 815807635 555008540 127675707 -2077147205 -262705251 -46791708 304205189 1455481600 -1562360548 108744337 -1999982405 -35333203 -328884088 233529727 972248684 -1199306772 1091635637 1333975375 -2026142960
REM
CELL 1.54180   50.00000   50.00000   50.00000   90.00000   90.00000   90.00000
LATT -1
SFAC C  
C      1  0.5691710000000  0.4619370000000  0.5313650000000 1.0
C      1  0.5817170000000  0.5092750000000  0.5481940000000 1.0
C      1  0.4888720000000  0.5488580000000  0.5757670000000 1.0
C      1  0.4176110000000  0.5021160000000  0.5267960000000 1.0
C      1  0.4927730000000  0.4683660000000  0.4482680000000 1.0
C      1  0.4479010000000  0.5723880000000  0.5421630000000 1.0
C      1  0.5598830000000  0.5395090000000  0.5339490000000 1.0
C      1  0.5359180000000  0.5393420000000  0.4995940000000 1.0
C      1  0.5683000000000  0.5013330000000  0.5268670000000 1.0
C      1  0.4727630000000  0.5644750000000  0.5222370000000 1.0
C      1  0.4359880000000  0.4837990000000  0.4460980000000 1.0
C      1  0.5106410000000  0.5644320000000  0.4816280000000 1.0
C      1  0.5168060000000  0.4531600000000  0.4883910000000 1.0
C      1  0.4128840000000  0.4688570000000  0.5190000000000 1.0
C      1  0.5622670000000  0.4586420000000  0.4400890000000 1.0
C      1  0.5308140000000  0.5088860000000  0.4064050000000 1.0
C      1  0.4942560000000  0.4370390000000  0.4728000000000 1.0
C      1  0.5733960000000  0.4858270000000  0.4350900000000 1.0
C      1  0.5397860000000  0.5663570000000  0.4543480000000 1.0
C      1  0.4280540000000  0.5505030000000  0.5534790000000 1.0
C      1  0.4279430000000  0.4462910000000  0.4983010000000 1.0
C      1  0.4881920000000  0.4791450000000  0.5621630000000 1.0
C      1  0.4658220000000  0.5711460000000  0.4550790000000 1.0
C      1  0.4959330000000  0.5788090000000  0.5051910000000 1.0
C      1  0.4496200000000  0.4372760000000  0.4501510000000 1.0
C      1  0.4498990000000  0.5235360000000  0.5171360000000 1.0
C      1  0.4803350000000  0.4363900000000  0.4415460000000 1.0
C      1  0.5588070000000  0.4558790000000  0.4933130000000 1.0
C      1  0.4538810000000  0.4585960000000  0.5624900000000 1.0
C      1  0.5224890000000  0.5180210000000  0.4533080000000 1.0
C      1  0.5174940000000  0.4829680000000  0.4208130000000 1.0
C      1  0.4424560000000  0.5508590000000  0.4415720000000 1.0
C      1  0.5162930000000  0.4507940000000  0.5644900000000 1.0
C      1  0.4652380000000  0.4636640000000  0.4658120000000 1.0
C      1  0.5842900000000  0.4746590000000  0.5035020000000 1.0
C      1  0.5469500000000  0.5006980000000  0.5734630000000 1.0
C      1  0.4695090000000  0.4974020000000  0.4627480000000 1.0
C      1  0.5085210000000  0.5323590000000  0.5937270000000 1.0
C      1  0.4773870000000  0.4549770000000  0.4965050000000 1.0
C      1  0.5302270000000  0.4565530000000  0.4350460000000 1.0
C      1  0.4974310000000  0.5328910000000  0.4422720000000 1.0
C      1  0.4461860000000  0.4254990000000  0.4799630000000 1.0
C      1  0.5357450000000  0.4223190000000  0.5246440000000 1.0
C      1  0.5390080000000  0.5482160000000  0.5577870000000 1.0
C      1  0.4849040000000  0.4238060000000  0.5219930000000 1.0
C      1  0.5432510000000  0.4937590000000  0.4411640000000 1.0
C      1  0.5420230000000  0.4915080000000  0.4753660000000 1.0
C      1  0.5336420000000  0.4015240000000  0.5425820000000 1.0
C      1  0.5235180000000  0.5077750000000  0.5959270000000 1.0
C      1  0.4365640000000  0.5214050000000  0.5464240000000 1.0
C      1  0.4767360000000  0.4882330000000  0.4946190000000 1.0
C      1  0.4878450000000  0.5199980000000  0.5619270000000 1.0
C      1  0.4190600000000  0.4844750000000  0.4913160000000 1.0
C      1  0.5575660000000  0.4299930000000  0.5103270000000 1.0
C      1  0.5161280000000  0.4869180000000  0.5481150000000 1.0
C      1  0.4840750000000  0.4475480000000  0.5540950000000 1.0
C      1  0.4366470000000  0.4522530000000  0.5367920000000 1.0
C      1  0.5495110000000  0.5254400000000  0.4169110000000 1.0
C      1  0.5461190000000  0.4841140000000  0.5074190000000 1.0
C      1  0.4517020000000  0.5296010000000  0.4267490000000 1.0
C      1  0.5426740000000  0.5755420000000  0.4844780000000 1.0
C      1  0.4307400000000  0.5060240000000  0.4693200000000 1.0
C      1  0.5311650000000  0.5670550000000  0.5351580000000 1.0
C      1  0.5488530000000  0.5801420000000  0.5169300000000 1.0
C      1  0.5107690000000  0.4871770000000  0.4625240000000 1.0
C      1  0.4735060000000  0.4662900000000  0.5276130000000 1.0
C      1  0.5145070000000  0.5147800000000  0.5017580000000 1.0
C      1  0.5335190000000  0.5202930000000  0.5276970000000 1.0
C      1  0.4504800000000  0.5473730000000  0.4735950000000 1.0
C      1  0.5577610000000  0.4790920000000  0.5584920000000 1.0
C      1  0.4274650000000  0.4576320000000  0.4661070000000 1.0
C      1  0.5769320000000  0.5389310000000  0.5110900000000 1.0
C      1  0.5126850000000  0.4330570000000  0.4443880000000 1.0
C      1  0.4746480000000  0.5167580000000  0.4378530000000 1.0
C      1  0.4708000000000  0.4144480000000  0.4927700000000 1.0
C      1  0.4877880000000  0.4038120000000  0.5418040000000 1.0
C      1  0.5437900000000  0.5372810000000  0.4699730000000 1.0
C      1  0.5079960000000  0.4858690000000  0.4954430000000 1.0
C      1  0.4552350000000  0.4840820000000  0.4256200000000 1.0
C      1  0.4146770000000  0.5188660000000  0.4972630000000 1.0
C      1  0.4563370000000  0.5082720000000  0.5656410000000 1.0
C      1  0.5000060000000  0.5364970000000  0.4825570000000 1.0
C      1  0.4334180000000  0.5452570000000  0.4990980000000 1.0
C      1  0.4503660000000  0.4830380000000  0.5741590000000 1.0
C      1  0.5142080000000  0.4798690000000  0.5824000000000 1.0
C      1  0.4738100000000  0.5276800000000  0.4761260000000 1.0
C      1  0.5095610000000  0.5505820000000  0.5187560000000 1.0
C      1  0.4497320000000  0.5005380000000  0.4972830000000 1.0
C      1  0.5813280000000  0.5081760000000  0.4968570000000 1.0
C      1  0.5657380000000  0.5325760000000  0.4371440000000 1.0
C      1  0.5118160000000  0.4401790000000  0.5186480000000 1.0
C      1  0.5422110000000  0.4522590000000  0.5503320000000 1.0
C      1  0.4455130000000  0.4847700000000  0.5336210000000 1.0
C      1  0.4451610000000  0.5729700000000  0.5079010000000 1.0
C      1  0.5217400000000  0.5186690000000  0.5576830000000 1.0
C      1  0.4804600000000  0.4993710000000  0.5351350000000 1.0
C      1  0.5904230000000  0.5031140000000  0.4474310000000 1.0
C      1  0.4523530000000  0.4330950000000  0.5185140000000 1.0
C      1  0.5206370000000  0.4726790000000  0.5235940000000 1.0
C      1  0.5707510000000  0.5640340000000  0.4990090000000 1.0
C      1  0.4527700000000  0.5862600000000  0.4826090000000 1.0
C      1  0.5424590000000  0.4526240000000  0.4669720000000 1.0
C      1  0.4817160000000  0.5318060000000  0.5242470000000 1.0
C      1  0.4935720000000  0.5611620000000  0.4440350000000 1.0
C      1  0.4833630000000  0.4817070000000  0.4212680000000 1.0
C      1  0.4735060000000  0.5679920000000  0.5641080000000 1.0
C      1  0.5745360000000  0.5227740000000  0.4686240000000 1.0
C      1  0.5177720000000  0.5751430000000  0.4411000000000 1.0
END
