TITL C-2778436-5916-39 -0.00102417510794907 125000 -1142.64024143565 0 0 193 (C1) n - 1
REM
REM in /home/nfs/bkarasulu/CARBON/AIRSS/Generating-Clusters/REBO/Only-C1/SD-CG/HFTN-CG
REM
REM
REM
REM
REM
REM ./C.cell (11c1c37f851c82e70ff6c80c92926a4b)
REM
REM compiler GCC version 9.2.1 20190827 (Red Hat 9.2.1-1)
REM options -cpp -mtune=generic -march=x86-64 -g -O0 -fpre-include=/usr/include/finclude/math-vector-fortran.h
REM seed 1562941260 -2103443795 -1434523801 -1564565610 1926362126 1122584974 -441448829 474281302 1867500664 -883636118 -644594318 870560453 -537596115 -496253994 -1258067710 697011820 -542620362 643690728 -1522920013 1985354636 -1655450172 355528759 1680266492 871121518 1528744192 574384002 513326404 -667747300 345207278 -1109059675 140781175 1504128731 -335950341
REM
CELL 1.54180   50.00000   50.00000   50.00000   90.00000   90.00000   90.00000
LATT -1
SFAC C  
C      1  0.5735740000000  0.4766220000000  0.5056640000000 1.0
C      1  0.5576370000000  0.4177190000000  0.4438860000000 1.0
C      1  0.6064550000000  0.5150280000000  0.4235800000000 1.0
C      1  0.4488800000000  0.4700620000000  0.5531340000000 1.0
C      1  0.5516710000000  0.4097820000000  0.4895110000000 1.0
C      1  0.4817100000000  0.5554480000000  0.5430500000000 1.0
C      1  0.3866190000000  0.5092910000000  0.4575290000000 1.0
C      1  0.4025350000000  0.4449780000000  0.5297160000000 1.0
C      1  0.4157270000000  0.5485780000000  0.4549100000000 1.0
C      1  0.5423120000000  0.5281250000000  0.4617200000000 1.0
C      1  0.4077640000000  0.4799410000000  0.5602990000000 1.0
C      1  0.4673560000000  0.6033250000000  0.5181850000000 1.0
C      1  0.6000220000000  0.4980570000000  0.5103330000000 1.0
C      1  0.4612590000000  0.4985330000000  0.4533050000000 1.0
C      1  0.5166680000000  0.4336230000000  0.4138070000000 1.0
C      1  0.4651070000000  0.4859050000000  0.4009110000000 1.0
C      1  0.4927780000000  0.6099630000000  0.4767380000000 1.0
C      1  0.5637020000000  0.5711080000000  0.5719530000000 1.0
C      1  0.5577240000000  0.5639630000000  0.4763460000000 1.0
C      1  0.5261320000000  0.3996630000000  0.4734000000000 1.0
C      1  0.4411560000000  0.5870400000000  0.5699040000000 1.0
C      1  0.4306980000000  0.4404580000000  0.5729100000000 1.0
C      1  0.5147900000000  0.5172130000000  0.6068580000000 1.0
C      1  0.4127710000000  0.5045790000000  0.5383250000000 1.0
C      1  0.4189400000000  0.5465970000000  0.5705560000000 1.0
C      1  0.4795120000000  0.5731410000000  0.5786190000000 1.0
C      1  0.5233240000000  0.4719870000000  0.5704370000000 1.0
C      1  0.5520800000000  0.6003510000000  0.4913860000000 1.0
C      1  0.4068200000000  0.5234990000000  0.4433200000000 1.0
C      1  0.5417870000000  0.4646820000000  0.4135480000000 1.0
C      1  0.5452710000000  0.5300880000000  0.5510280000000 1.0
C      1  0.4903130000000  0.4448210000000  0.4581260000000 1.0
C      1  0.4978510000000  0.4647970000000  0.4820570000000 1.0
C      1  0.5238620000000  0.5705530000000  0.4416930000000 1.0
C      1  0.5288200000000  0.5509310000000  0.4831680000000 1.0
C      1  0.4847660000000  0.4625070000000  0.3856030000000 1.0
C      1  0.4662240000000  0.4692510000000  0.4580210000000 1.0
C      1  0.5108200000000  0.4888990000000  0.3989590000000 1.0
C      1  0.5053640000000  0.5339050000000  0.4316720000000 1.0
C      1  0.4221920000000  0.5151310000000  0.4202070000000 1.0
C      1  0.4087580000000  0.5563570000000  0.4815460000000 1.0
C      1  0.6143050000000  0.5283490000000  0.4694100000000 1.0
C      1  0.5011370000000  0.5323910000000  0.5472390000000 1.0
C      1  0.5421730000000  0.5009650000000  0.4810310000000 1.0
C      1  0.5398560000000  0.5597000000000  0.4074570000000 1.0
C      1  0.5278230000000  0.5324260000000  0.4131350000000 1.0
C      1  0.5351480000000  0.5037980000000  0.4101720000000 1.0
C      1  0.4302260000000  0.5715470000000  0.4917420000000 1.0
C      1  0.5110440000000  0.5142260000000  0.4556270000000 1.0
C      1  0.5512380000000  0.4290740000000  0.5502870000000 1.0
C      1  0.4987280000000  0.6071930000000  0.5251870000000 1.0
C      1  0.5341620000000  0.4004110000000  0.4426900000000 1.0
C      1  0.5086360000000  0.5731710000000  0.4890070000000 1.0
C      1  0.4673680000000  0.5437780000000  0.4734620000000 1.0
C      1  0.5687940000000  0.5228140000000  0.5074070000000 1.0
C      1  0.4686780000000  0.6025640000000  0.4882850000000 1.0
C      1  0.4851700000000  0.4269860000000  0.5568300000000 1.0
C      1  0.4722160000000  0.5532280000000  0.5045860000000 1.0
C      1  0.4706920000000  0.4486360000000  0.4126540000000 1.0
C      1  0.4621460000000  0.4227350000000  0.4928610000000 1.0
C      1  0.5486220000000  0.4988040000000  0.5410530000000 1.0
C      1  0.4724920000000  0.5879250000000  0.5482140000000 1.0
C      1  0.4754000000000  0.4614310000000  0.5076490000000 1.0
C      1  0.4951860000000  0.4998200000000  0.6229930000000 1.0
C      1  0.5655430000000  0.4893970000000  0.4144100000000 1.0
C      1  0.5537160000000  0.4442750000000  0.4346020000000 1.0
C      1  0.5403050000000  0.5519380000000  0.5761960000000 1.0
C      1  0.5872880000000  0.5208790000000  0.5310830000000 1.0
C      1  0.4312970000000  0.4198400000000  0.4944490000000 1.0
C      1  0.4157420000000  0.4704700000000  0.5019340000000 1.0
C      1  0.5583250000000  0.4719050000000  0.5313190000000 1.0
C      1  0.4735620000000  0.4814650000000  0.5695580000000 1.0
C      1  0.4555800000000  0.4427960000000  0.4393590000000 1.0
C      1  0.4643880000000  0.5490910000000  0.5975840000000 1.0
C      1  0.5087380000000  0.4988140000000  0.5071200000000 1.0
C      1  0.5885530000000  0.5652580000000  0.4892130000000 1.0
C      1  0.4449210000000  0.5661830000000  0.5168570000000 1.0
C      1  0.5509550000000  0.5925230000000  0.4598170000000 1.0
C      1  0.4316430000000  0.4930590000000  0.5145630000000 1.0
C      1  0.4401280000000  0.4555490000000  0.4051750000000 1.0
C      1  0.4533450000000  0.4289170000000  0.5555040000000 1.0
C      1  0.3875430000000  0.4663480000000  0.5124360000000 1.0
C      1  0.5679910000000  0.5394520000000  0.4455730000000 1.0
C      1  0.4379020000000  0.4167770000000  0.4482760000000 1.0
C      1  0.4802690000000  0.5524980000000  0.4182100000000 1.0
C      1  0.4975070000000  0.4224010000000  0.5320360000000 1.0
C      1  0.3817200000000  0.4623700000000  0.4568580000000 1.0
C      1  0.6166170000000  0.5070120000000  0.4487840000000 1.0
C      1  0.3872700000000  0.5475160000000  0.4953900000000 1.0
C      1  0.5382880000000  0.5135720000000  0.5125200000000 1.0
C      1  0.5073830000000  0.5689500000000  0.4126090000000 1.0
C      1  0.4322390000000  0.5823380000000  0.5420330000000 1.0
C      1  0.3688920000000  0.4821500000000  0.4978170000000 1.0
C      1  0.5875480000000  0.5602440000000  0.5629570000000 1.0
C      1  0.4363830000000  0.5166000000000  0.4938830000000 1.0
C      1  0.5344040000000  0.4864110000000  0.4389510000000 1.0
C      1  0.4966110000000  0.5450020000000  0.6008780000000 1.0
C      1  0.6055860000000  0.5496200000000  0.5104180000000 1.0
C      1  0.4083090000000  0.4519790000000  0.5571060000000 1.0
C      1  0.4351590000000  0.5372940000000  0.4078270000000 1.0
C      1  0.5514350000000  0.4697350000000  0.4836070000000 1.0
C      1  0.5915680000000  0.4362380000000  0.4753720000000 1.0
C      1  0.5103880000000  0.5245650000000  0.4853140000000 1.0
C      1  0.5769430000000  0.4697180000000  0.5794880000000 1.0
C      1  0.4210670000000  0.4126780000000  0.4692400000000 1.0
C      1  0.5263080000000  0.5994740000000  0.5413370000000 1.0
C      1  0.5936060000000  0.5481030000000  0.4628980000000 1.0
C      1  0.4944010000000  0.5742280000000  0.5178270000000 1.0
C      1  0.4499610000000  0.4846400000000  0.6040860000000 1.0
C      1  0.4775910000000  0.3975030000000  0.4782730000000 1.0
C      1  0.4206660000000  0.4612340000000  0.4295760000000 1.0
C      1  0.5037020000000  0.5903190000000  0.5610050000000 1.0
C      1  0.4244430000000  0.4562200000000  0.4793400000000 1.0
C      1  0.4516650000000  0.5803670000000  0.4708340000000 1.0
C      1  0.5657160000000  0.4616550000000  0.4563150000000 1.0
C      1  0.4168540000000  0.5560870000000  0.5432730000000 1.0
C      1  0.5497860000000  0.4691200000000  0.6001860000000 1.0
C      1  0.5131430000000  0.5692140000000  0.5845390000000 1.0
C      1  0.5253970000000  0.5968520000000  0.5069260000000 1.0
C      1  0.5443860000000  0.4473830000000  0.5736900000000 1.0
C      1  0.4713760000000  0.4170470000000  0.4545610000000 1.0
C      1  0.5123500000000  0.4453590000000  0.4379850000000 1.0
C      1  0.4500070000000  0.5231340000000  0.5615180000000 1.0
C      1  0.4524360000000  0.4501990000000  0.4792940000000 1.0
C      1  0.5037600000000  0.4821030000000  0.4530370000000 1.0
C      1  0.5335310000000  0.4544380000000  0.5233710000000 1.0
C      1  0.5175270000000  0.5992370000000  0.4591020000000 1.0
C      1  0.5248270000000  0.5402240000000  0.5263340000000 1.0
C      1  0.5706710000000  0.4175120000000  0.4699100000000 1.0
C      1  0.4602430000000  0.4857730000000  0.5261750000000 1.0
C      1  0.4094090000000  0.4564270000000  0.4545950000000 1.0
C      1  0.4998420000000  0.4793860000000  0.5510320000000 1.0
C      1  0.4379250000000  0.4536340000000  0.5964740000000 1.0
C      1  0.5495320000000  0.5604760000000  0.5362420000000 1.0
C      1  0.5764600000000  0.4364880000000  0.5281570000000 1.0
C      1  0.4540700000000  0.5190890000000  0.4724020000000 1.0
C      1  0.5623690000000  0.4944370000000  0.4545950000000 1.0
C      1  0.5017730000000  0.3882740000000  0.4893600000000 1.0
C      1  0.5407750000000  0.5018450000000  0.6039200000000 1.0
C      1  0.5488550000000  0.4199230000000  0.5175080000000 1.0
C      1  0.4845900000000  0.5716970000000  0.4686600000000 1.0
C      1  0.4601030000000  0.3977250000000  0.5464550000000 1.0
C      1  0.5748470000000  0.5887420000000  0.5037740000000 1.0
C      1  0.4341090000000  0.4883010000000  0.5773570000000 1.0
C      1  0.4388650000000  0.5639310000000  0.4465120000000 1.0
C      1  0.5715920000000  0.5826470000000  0.5302630000000 1.0
C      1  0.5949110000000  0.4429400000000  0.5046280000000 1.0
C      1  0.4620960000000  0.5165700000000  0.6076860000000 1.0
C      1  0.5046330000000  0.4722080000000  0.5207310000000 1.0
C      1  0.4934130000000  0.5830460000000  0.4404210000000 1.0
C      1  0.5032830000000  0.3857410000000  0.5175150000000 1.0
C      1  0.5772360000000  0.4588920000000  0.5537560000000 1.0
C      1  0.3743860000000  0.4866870000000  0.4698550000000 1.0
C      1  0.5432610000000  0.4955570000000  0.5710010000000 1.0
C      1  0.5168650000000  0.4565120000000  0.3918450000000 1.0
C      1  0.4837320000000  0.5060280000000  0.5371850000000 1.0
C      1  0.4764480000000  0.5238390000000  0.4061790000000 1.0
C      1  0.5274660000000  0.4534460000000  0.4921900000000 1.0
C      1  0.4870420000000  0.5252810000000  0.5092900000000 1.0
C      1  0.5787040000000  0.5179760000000  0.4231870000000 1.0
C      1  0.4505880000000  0.5560400000000  0.4227200000000 1.0
C      1  0.6028740000000  0.4719510000000  0.4898790000000 1.0
C      1  0.5556250000000  0.5674890000000  0.4366140000000 1.0
C      1  0.4538230000000  0.5418430000000  0.5382180000000 1.0
C      1  0.4193900000000  0.5163220000000  0.5691530000000 1.0
C      1  0.5248740000000  0.4051180000000  0.5324670000000 1.0
C      1  0.4924940000000  0.5116670000000  0.3875560000000 1.0
C      1  0.5973850000000  0.4566730000000  0.4531310000000 1.0
C      1  0.5978610000000  0.5475710000000  0.5400890000000 1.0
C      1  0.5228900000000  0.4155100000000  0.5634070000000 1.0
C      1  0.4956160000000  0.4646290000000  0.5877960000000 1.0
C      1  0.4899390000000  0.4242520000000  0.5052930000000 1.0
C      1  0.5716070000000  0.5001520000000  0.5893640000000 1.0
C      1  0.5266640000000  0.4449760000000  0.6028620000000 1.0
C      1  0.4805560000000  0.4807840000000  0.6097060000000 1.0
C      1  0.6144510000000  0.5249730000000  0.4982940000000 1.0
C      1  0.4904720000000  0.4749700000000  0.4225500000000 1.0
C      1  0.4679880000000  0.5094070000000  0.5783820000000 1.0
C      1  0.5136080000000  0.5306030000000  0.5753490000000 1.0
C      1  0.4254680000000  0.5316940000000  0.5221040000000 1.0
C      1  0.4522550000000  0.4469880000000  0.5283230000000 1.0
C      1  0.5036480000000  0.4337120000000  0.5813300000000 1.0
C      1  0.5917760000000  0.4726830000000  0.4282020000000 1.0
C      1  0.4789410000000  0.3841440000000  0.5323880000000 1.0
C      1  0.5529470000000  0.5933400000000  0.5531650000000 1.0
C      1  0.4256450000000  0.4347630000000  0.5169220000000 1.0
C      1  0.4379730000000  0.5623730000000  0.5852460000000 1.0
C      1  0.4656080000000  0.5059150000000  0.4271720000000 1.0
C      1  0.5206410000000  0.4057530000000  0.4179190000000 1.0
C      1  0.4329870000000  0.4880700000000  0.4124900000000 1.0
C      1  0.5119480000000  0.4268270000000  0.4866330000000 1.0
C      1  0.5940940000000  0.4939540000000  0.4669890000000 1.0
C      1  0.5783760000000  0.5173820000000  0.4828990000000 1.0
END
