TITL C-2778433-5640-992 0.00321620722657172 125000 -588.429084311882 0 0 101 (C1) n - 1
REM
REM in /home/nfs/bkarasulu/CARBON/AIRSS/Generating-Clusters/REBO/Only-C1/SD-CG/HFTN-CG
REM
REM
REM
REM
REM
REM ./C.cell (11c1c37f851c82e70ff6c80c92926a4b)
REM
REM compiler GCC version 9.2.1 20190827 (Red Hat 9.2.1-1)
REM options -cpp -mtune=generic -march=x86-64 -g -O0 -fpre-include=/usr/include/finclude/math-vector-fortran.h
REM seed 1390424770 -1489436935 -2101639762 -432794502 -1024005901 1933038291 -768049349 -1286842459 1086780307 -985169536 -115612021 -2026264037 707686718 -2010170309 -1813982429 960096865 -1800185742 1957853423 1879667199 -1120636775 878084067 -121522212 287256028 -232063087 1519874816 -1590934432 -170782585 2081397075 -1500083917 1510283640 325923974 2128927235 656725887
REM
CELL 1.54180   50.00000   50.00000   50.00000   90.00000   90.00000   90.00000
LATT -1
SFAC C  
C      1  0.5409300000000  0.4113850000000  0.4711400000000 1.0
C      1  0.5348120000000  0.4862360000000  0.5697700000000 1.0
C      1  0.4924710000000  0.5847380000000  0.4762570000000 1.0
C      1  0.5081500000000  0.4882700000000  0.5471900000000 1.0
C      1  0.5106420000000  0.5409280000000  0.4933990000000 1.0
C      1  0.4934520000000  0.4592790000000  0.5702490000000 1.0
C      1  0.4760460000000  0.4993140000000  0.5114150000000 1.0
C      1  0.4955250000000  0.5888710000000  0.5317380000000 1.0
C      1  0.4692520000000  0.4932120000000  0.4535490000000 1.0
C      1  0.4411440000000  0.4802330000000  0.4415280000000 1.0
C      1  0.4914670000000  0.4268100000000  0.4523930000000 1.0
C      1  0.5190180000000  0.5637740000000  0.4720090000000 1.0
C      1  0.5477230000000  0.5289050000000  0.5313120000000 1.0
C      1  0.4427670000000  0.5136790000000  0.4475000000000 1.0
C      1  0.4230600000000  0.5085460000000  0.4983860000000 1.0
C      1  0.5172000000000  0.4455440000000  0.4417740000000 1.0
C      1  0.4673770000000  0.5644540000000  0.4666610000000 1.0
C      1  0.4990860000000  0.5388630000000  0.5207990000000 1.0
C      1  0.5696570000000  0.4523210000000  0.4944660000000 1.0
C      1  0.4160750000000  0.5078390000000  0.5288890000000 1.0
C      1  0.5439240000000  0.4338290000000  0.4383320000000 1.0
C      1  0.5303430000000  0.5541900000000  0.5568970000000 1.0
C      1  0.5357790000000  0.4503060000000  0.4907750000000 1.0
C      1  0.5294560000000  0.4877900000000  0.4145560000000 1.0
C      1  0.4361030000000  0.4143940000000  0.5107080000000 1.0
C      1  0.5774900000000  0.5158520000000  0.5233900000000 1.0
C      1  0.5045230000000  0.4991910000000  0.4972640000000 1.0
C      1  0.4572620000000  0.5452650000000  0.5454520000000 1.0
C      1  0.5329680000000  0.4864940000000  0.5074000000000 1.0
C      1  0.5062680000000  0.4654540000000  0.4187570000000 1.0
C      1  0.4958980000000  0.5198940000000  0.4736260000000 1.0
C      1  0.5522730000000  0.5591740000000  0.5370270000000 1.0
C      1  0.5851610000000  0.4855010000000  0.5340850000000 1.0
C      1  0.4534280000000  0.4627350000000  0.4215520000000 1.0
C      1  0.4994130000000  0.5274580000000  0.5650820000000 1.0
C      1  0.5089600000000  0.4964440000000  0.4576850000000 1.0
C      1  0.4242490000000  0.4796240000000  0.4928530000000 1.0
C      1  0.4656210000000  0.5926590000000  0.5185200000000 1.0
C      1  0.5536650000000  0.4876360000000  0.4854080000000 1.0
C      1  0.4450560000000  0.5707200000000  0.5344630000000 1.0
C      1  0.4662580000000  0.5277260000000  0.5733610000000 1.0
C      1  0.5643010000000  0.5225540000000  0.5671160000000 1.0
C      1  0.5184580000000  0.5194990000000  0.5384070000000 1.0
C      1  0.5630520000000  0.5312100000000  0.4750830000000 1.0
C      1  0.4322360000000  0.4625080000000  0.4657810000000 1.0
C      1  0.4898590000000  0.4857660000000  0.5832760000000 1.0
C      1  0.4815670000000  0.4235260000000  0.5305220000000 1.0
C      1  0.4853990000000  0.6044230000000  0.4966790000000 1.0
C      1  0.4766320000000  0.4431540000000  0.5539220000000 1.0
C      1  0.5225270000000  0.4672940000000  0.4643840000000 1.0
C      1  0.4966800000000  0.5444200000000  0.4269920000000 1.0
C      1  0.4937570000000  0.6294070000000  0.4973900000000 1.0
C      1  0.4520770000000  0.4859890000000  0.5555480000000 1.0
C      1  0.4589730000000  0.4563470000000  0.5296770000000 1.0
C      1  0.5815930000000  0.5167030000000  0.4910680000000 1.0
C      1  0.4614170000000  0.4242780000000  0.5060550000000 1.0
C      1  0.5201600000000  0.5144170000000  0.4133020000000 1.0
C      1  0.5410290000000  0.5022220000000  0.4589950000000 1.0
C      1  0.5286010000000  0.4314070000000  0.5161710000000 1.0
C      1  0.5341730000000  0.5224570000000  0.4849580000000 1.0
C      1  0.4922780000000  0.4920140000000  0.4311690000000 1.0
C      1  0.4781750000000  0.4541620000000  0.5033640000000 1.0
C      1  0.4955010000000  0.5666920000000  0.4475160000000 1.0
C      1  0.5159270000000  0.5078250000000  0.5840180000000 1.0
C      1  0.4748460000000  0.5345330000000  0.4589340000000 1.0
C      1  0.5424840000000  0.4452880000000  0.5391470000000 1.0
C      1  0.4482450000000  0.5299280000000  0.4992010000000 1.0
C      1  0.4384560000000  0.5786380000000  0.5036140000000 1.0
C      1  0.5822340000000  0.4837640000000  0.5001740000000 1.0
C      1  0.4281940000000  0.4848820000000  0.5408460000000 1.0
C      1  0.5417240000000  0.5476320000000  0.4553360000000 1.0
C      1  0.4791000000000  0.4508660000000  0.4315870000000 1.0
C      1  0.4646420000000  0.4981870000000  0.5778890000000 1.0
C      1  0.5379020000000  0.5322370000000  0.5740840000000 1.0
C      1  0.4190790000000  0.4459610000000  0.4923190000000 1.0
C      1  0.5067980000000  0.4657110000000  0.5007910000000 1.0
C      1  0.5623980000000  0.4939850000000  0.5579780000000 1.0
C      1  0.5228490000000  0.4591950000000  0.5587260000000 1.0
C      1  0.5715420000000  0.4557640000000  0.5264370000000 1.0
C      1  0.4306000000000  0.5277880000000  0.4711780000000 1.0
C      1  0.4885810000000  0.5161060000000  0.4094770000000 1.0
C      1  0.5462200000000  0.4781890000000  0.5325140000000 1.0
C      1  0.4296670000000  0.4609240000000  0.5208160000000 1.0
C      1  0.4644730000000  0.4545460000000  0.4622230000000 1.0
C      1  0.4687800000000  0.5292500000000  0.5207620000000 1.0
C      1  0.4816620000000  0.5561510000000  0.5657750000000 1.0
C      1  0.4026520000000  0.5283340000000  0.5414040000000 1.0
C      1  0.5810300000000  0.5657360000000  0.5429600000000 1.0
C      1  0.4723000000000  0.4806690000000  0.4829640000000 1.0
C      1  0.4704310000000  0.4262800000000  0.4762530000000 1.0
C      1  0.5074840000000  0.4164570000000  0.5228190000000 1.0
C      1  0.5293420000000  0.5364280000000  0.4320250000000 1.0
C      1  0.5634090000000  0.4346370000000  0.4664630000000 1.0
C      1  0.5507010000000  0.4852870000000  0.4334890000000 1.0
C      1  0.5036700000000  0.5611280000000  0.5439820000000 1.0
C      1  0.4789160000000  0.4826640000000  0.5367630000000 1.0
C      1  0.5827800000000  0.5362870000000  0.5489050000000 1.0
C      1  0.4429340000000  0.5576490000000  0.4826090000000 1.0
C      1  0.5557410000000  0.4654280000000  0.4596110000000 1.0
C      1  0.5178560000000  0.4110540000000  0.4620190000000 1.0
C      1  0.4659570000000  0.5286260000000  0.4289150000000 1.0
END
