TITL C-2778427-5640-611 -0.00518766591651724 125000 -764.258233339649 0 0 131 (C1) n - 1
REM
REM in /home/nfs/bkarasulu/CARBON/AIRSS/Generating-Clusters/REBO/Only-C1/SD-CG/HFTN-CG
REM
REM
REM
REM
REM
REM ./C.cell (11c1c37f851c82e70ff6c80c92926a4b)
REM
REM compiler GCC version 9.2.1 20190827 (Red Hat 9.2.1-1)
REM options -cpp -mtune=generic -march=x86-64 -g -O0 -fpre-include=/usr/include/finclude/math-vector-fortran.h
REM seed 2125461929 1837951322 1844782756 -548134288 -1581535184 542627622 -1884560312 641291240 958897987 -1648739486 -927459653 2023438962 -1193533876 -775091532 112151297 2009740174 104734617 1168636774 1573721334 2086949390 1126446487 1082095440 667348801 -710733282 -1489597001 -933629254 2024750069 -738212937 -1044554626 776556848 -1243471159 153532997 -143614796
REM
CELL 1.54180   50.00000   50.00000   50.00000   90.00000   90.00000   90.00000
LATT -1
SFAC C  
C      1  0.4350330000000  0.5226230000000  0.4838270000000 1.0
C      1  0.5177470000000  0.5059950000000  0.4001130000000 1.0
C      1  0.5567970000000  0.5656110000000  0.4528380000000 1.0
C      1  0.4444130000000  0.4720570000000  0.5761770000000 1.0
C      1  0.4470190000000  0.4943620000000  0.5431480000000 1.0
C      1  0.4362930000000  0.4848820000000  0.5137170000000 1.0
C      1  0.4488860000000  0.4413450000000  0.5331170000000 1.0
C      1  0.4994670000000  0.5436850000000  0.5899430000000 1.0
C      1  0.5167310000000  0.4675000000000  0.5616700000000 1.0
C      1  0.4972300000000  0.4356130000000  0.5358310000000 1.0
C      1  0.4147770000000  0.4520470000000  0.4562350000000 1.0
C      1  0.4758870000000  0.4801330000000  0.5138010000000 1.0
C      1  0.4102240000000  0.5433120000000  0.4808710000000 1.0
C      1  0.4315670000000  0.5845490000000  0.4985760000000 1.0
C      1  0.5692930000000  0.4376330000000  0.4977080000000 1.0
C      1  0.5041070000000  0.5204560000000  0.5061810000000 1.0
C      1  0.5272870000000  0.4196160000000  0.4802290000000 1.0
C      1  0.5321540000000  0.5946710000000  0.5222970000000 1.0
C      1  0.5182410000000  0.4917920000000  0.5081910000000 1.0
C      1  0.4050310000000  0.5156310000000  0.5092190000000 1.0
C      1  0.5859880000000  0.4439660000000  0.5196100000000 1.0
C      1  0.4306480000000  0.5199200000000  0.5551900000000 1.0
C      1  0.5235950000000  0.4692280000000  0.4762880000000 1.0
C      1  0.5093960000000  0.4588320000000  0.5140920000000 1.0
C      1  0.5369050000000  0.4895990000000  0.5352740000000 1.0
C      1  0.5373370000000  0.5861100000000  0.4929700000000 1.0
C      1  0.5402180000000  0.5549470000000  0.4875260000000 1.0
C      1  0.4347590000000  0.4796130000000  0.4569500000000 1.0
C      1  0.5054750000000  0.3974360000000  0.4888620000000 1.0
C      1  0.4926290000000  0.4794370000000  0.4444720000000 1.0
C      1  0.4961900000000  0.4914780000000  0.6002660000000 1.0
C      1  0.4574030000000  0.5027180000000  0.4960880000000 1.0
C      1  0.5470290000000  0.4788700000000  0.4549530000000 1.0
C      1  0.4331140000000  0.5280360000000  0.4442530000000 1.0
C      1  0.4521390000000  0.3989730000000  0.4754200000000 1.0
C      1  0.4729020000000  0.5325820000000  0.4171410000000 1.0
C      1  0.4843680000000  0.4085140000000  0.5029840000000 1.0
C      1  0.4634590000000  0.5266860000000  0.5915160000000 1.0
C      1  0.4881040000000  0.4735810000000  0.5442860000000 1.0
C      1  0.5104760000000  0.5035360000000  0.3732450000000 1.0
C      1  0.5058580000000  0.4424570000000  0.4737940000000 1.0
C      1  0.5387350000000  0.4502370000000  0.5557870000000 1.0
C      1  0.5405900000000  0.5135480000000  0.5929460000000 1.0
C      1  0.4723530000000  0.4201040000000  0.5295030000000 1.0
C      1  0.5880740000000  0.5204170000000  0.5464860000000 1.0
C      1  0.5469070000000  0.4794290000000  0.4283410000000 1.0
C      1  0.4904890000000  0.4773750000000  0.4841500000000 1.0
C      1  0.5902170000000  0.4907070000000  0.5329770000000 1.0
C      1  0.5413030000000  0.4606100000000  0.5173390000000 1.0
C      1  0.4159510000000  0.4577060000000  0.5174770000000 1.0
C      1  0.5779540000000  0.5281600000000  0.4477690000000 1.0
C      1  0.5386890000000  0.5718640000000  0.4338990000000 1.0
C      1  0.5066960000000  0.5823220000000  0.4827210000000 1.0
C      1  0.4762040000000  0.5413170000000  0.5651040000000 1.0
C      1  0.5532800000000  0.5387910000000  0.5113540000000 1.0
C      1  0.4395560000000  0.4243180000000  0.4761410000000 1.0
C      1  0.5884080000000  0.5098240000000  0.4718110000000 1.0
C      1  0.5711030000000  0.5455720000000  0.4761980000000 1.0
C      1  0.5024790000000  0.5018410000000  0.4669270000000 1.0
C      1  0.5682560000000  0.5622570000000  0.5313140000000 1.0
C      1  0.5617440000000  0.4990650000000  0.5496430000000 1.0
C      1  0.5563890000000  0.4882650000000  0.5791590000000 1.0
C      1  0.4784320000000  0.5498970000000  0.4796290000000 1.0
C      1  0.5334560000000  0.5229300000000  0.4537860000000 1.0
C      1  0.4856350000000  0.4403620000000  0.4980910000000 1.0
C      1  0.5057530000000  0.5731460000000  0.4241920000000 1.0
C      1  0.5040950000000  0.5318370000000  0.4164970000000 1.0
C      1  0.4189010000000  0.5053730000000  0.4611260000000 1.0
C      1  0.4418700000000  0.5056530000000  0.5811000000000 1.0
C      1  0.5277850000000  0.5548020000000  0.4072920000000 1.0
C      1  0.4750640000000  0.5094650000000  0.5554340000000 1.0
C      1  0.4849910000000  0.4322940000000  0.5736960000000 1.0
C      1  0.5414580000000  0.4275950000000  0.5079090000000 1.0
C      1  0.5466410000000  0.5799980000000  0.5457170000000 1.0
C      1  0.4675570000000  0.4542950000000  0.5586020000000 1.0
C      1  0.4371960000000  0.5552700000000  0.4540100000000 1.0
C      1  0.5665760000000  0.4479990000000  0.4708120000000 1.0
C      1  0.5226900000000  0.4862920000000  0.5866260000000 1.0
C      1  0.4597190000000  0.4853600000000  0.4373500000000 1.0
C      1  0.5404390000000  0.4395290000000  0.4556310000000 1.0
C      1  0.4291450000000  0.5301020000000  0.5225970000000 1.0
C      1  0.4204930000000  0.5709470000000  0.4755160000000 1.0
C      1  0.3991400000000  0.5054450000000  0.4871090000000 1.0
C      1  0.5757620000000  0.4807690000000  0.4700960000000 1.0
C      1  0.4352730000000  0.5514970000000  0.5477260000000 1.0
C      1  0.5876260000000  0.4982000000000  0.5039870000000 1.0
C      1  0.4652070000000  0.5615520000000  0.4546860000000 1.0
C      1  0.5218610000000  0.4803000000000  0.4147470000000 1.0
C      1  0.4722910000000  0.4890690000000  0.5813570000000 1.0
C      1  0.4898740000000  0.4392370000000  0.4286720000000 1.0
C      1  0.5433280000000  0.5516580000000  0.5642820000000 1.0
C      1  0.5523120000000  0.4771180000000  0.4939370000000 1.0
C      1  0.5895990000000  0.5418450000000  0.5274920000000 1.0
C      1  0.5043510000000  0.5829000000000  0.5144710000000 1.0
C      1  0.5163130000000  0.4554160000000  0.4374290000000 1.0
C      1  0.5642610000000  0.4612940000000  0.5621470000000 1.0
C      1  0.4768750000000  0.4558550000000  0.4625300000000 1.0
C      1  0.5149210000000  0.5785670000000  0.5564290000000 1.0
C      1  0.5088400000000  0.5408100000000  0.4474440000000 1.0
C      1  0.5424980000000  0.5264900000000  0.4079700000000 1.0
C      1  0.4379060000000  0.4653780000000  0.4855520000000 1.0
C      1  0.4369840000000  0.4483690000000  0.4321550000000 1.0
C      1  0.4951800000000  0.5627330000000  0.5367520000000 1.0
C      1  0.4307790000000  0.4645220000000  0.5473420000000 1.0
C      1  0.5903930000000  0.5316450000000  0.4983280000000 1.0
C      1  0.4649510000000  0.5634310000000  0.5441220000000 1.0
C      1  0.5313820000000  0.5077670000000  0.4802080000000 1.0
C      1  0.4730800000000  0.3965190000000  0.4572370000000 1.0
C      1  0.5119460000000  0.5425780000000  0.4814860000000 1.0
C      1  0.5106800000000  0.4222970000000  0.5603230000000 1.0
C      1  0.4673400000000  0.4557860000000  0.4234150000000 1.0
C      1  0.4594390000000  0.4534470000000  0.5056800000000 1.0
C      1  0.5065430000000  0.5021600000000  0.5446800000000 1.0
C      1  0.4475160000000  0.5701540000000  0.5159200000000 1.0
C      1  0.5837380000000  0.4619540000000  0.5414110000000 1.0
C      1  0.5067650000000  0.5342060000000  0.5337320000000 1.0
C      1  0.5367390000000  0.5391240000000  0.5381140000000 1.0
C      1  0.5565140000000  0.5105350000000  0.5000690000000 1.0
C      1  0.4807530000000  0.5179210000000  0.4843950000000 1.0
C      1  0.4542270000000  0.5156060000000  0.4288080000000 1.0
C      1  0.4141330000000  0.4411230000000  0.4885370000000 1.0
C      1  0.5354920000000  0.4252270000000  0.5391540000000 1.0
C      1  0.5104410000000  0.5732470000000  0.5834120000000 1.0
C      1  0.5312430000000  0.5392050000000  0.5861090000000 1.0
C      1  0.4855950000000  0.4133780000000  0.4395770000000 1.0
C      1  0.4878140000000  0.5189620000000  0.6081890000000 1.0
C      1  0.4544360000000  0.5419530000000  0.5024460000000 1.0
C      1  0.4529930000000  0.4411190000000  0.4576470000000 1.0
C      1  0.5538600000000  0.5226140000000  0.4341760000000 1.0
C      1  0.4780260000000  0.5591170000000  0.4297120000000 1.0
C      1  0.5033320000000  0.5729910000000  0.4572740000000 1.0
END
