TITL C-2778427-5640-1168 -0.0079215157122676 125000 -600.639765621214 0 0 101 (C1) n - 1
REM
REM in /home/nfs/bkarasulu/CARBON/AIRSS/Generating-Clusters/REBO/Only-C1/SD-CG/HFTN-CG
REM
REM
REM
REM
REM
REM ./C.cell (11c1c37f851c82e70ff6c80c92926a4b)
REM
REM compiler GCC version 9.2.1 20190827 (Red Hat 9.2.1-1)
REM options -cpp -mtune=generic -march=x86-64 -g -O0 -fpre-include=/usr/include/finclude/math-vector-fortran.h
REM seed 782206184 -1628911504 -1812797743 238667806 -1016421846 553246804 1009365523 2066987009 1400171969 -1576593173 -1797463184 1994406718 -385660846 1171179173 1947308002 1607460035 -1469400599 679005191 -704371113 -53241199 25986817 -316930671 1930928471 -895763689 1534243378 -1884104116 -573032267 -1872240274 2075138838 2107280963 -2060026091 1465019662 1401817824
REM
CELL 1.54180   50.00000   50.00000   50.00000   90.00000   90.00000   90.00000
LATT -1
SFAC C  
C      1  0.4341600000000  0.5007120000000  0.5487010000000 1.0
C      1  0.5348610000000  0.5150760000000  0.4324760000000 1.0
C      1  0.4865230000000  0.5920810000000  0.5213650000000 1.0
C      1  0.4302000000000  0.5003560000000  0.4468720000000 1.0
C      1  0.4601800000000  0.4788310000000  0.4908790000000 1.0
C      1  0.5346930000000  0.4975130000000  0.4682190000000 1.0
C      1  0.4969360000000  0.4832820000000  0.5942690000000 1.0
C      1  0.5506710000000  0.4363910000000  0.5002670000000 1.0
C      1  0.5319940000000  0.5229760000000  0.5133870000000 1.0
C      1  0.4771120000000  0.5318360000000  0.4666470000000 1.0
C      1  0.4880710000000  0.5191010000000  0.4136660000000 1.0
C      1  0.5782250000000  0.4868870000000  0.4986510000000 1.0
C      1  0.5068840000000  0.4342030000000  0.5268750000000 1.0
C      1  0.5135170000000  0.5772600000000  0.5293460000000 1.0
C      1  0.4390120000000  0.4247430000000  0.4771990000000 1.0
C      1  0.4842690000000  0.4786670000000  0.5401100000000 1.0
C      1  0.5078380000000  0.5665350000000  0.5592560000000 1.0
C      1  0.4645490000000  0.4206200000000  0.5071540000000 1.0
C      1  0.5078380000000  0.4862350000000  0.4640660000000 1.0
C      1  0.4601530000000  0.4662030000000  0.4625520000000 1.0
C      1  0.4267500000000  0.4798570000000  0.4950830000000 1.0
C      1  0.4861760000000  0.5380720000000  0.4936520000000 1.0
C      1  0.4668000000000  0.4332640000000  0.5530730000000 1.0
C      1  0.5590270000000  0.5191150000000  0.4560590000000 1.0
C      1  0.5827600000000  0.5163720000000  0.4879660000000 1.0
C      1  0.5420570000000  0.5760850000000  0.5216610000000 1.0
C      1  0.5438400000000  0.4569190000000  0.4398790000000 1.0
C      1  0.4934690000000  0.5532760000000  0.5146790000000 1.0
C      1  0.5103720000000  0.4613090000000  0.5435870000000 1.0
C      1  0.4659440000000  0.5347430000000  0.4345550000000 1.0
C      1  0.4814840000000  0.5090770000000  0.5289860000000 1.0
C      1  0.4305920000000  0.4694920000000  0.4325290000000 1.0
C      1  0.5082800000000  0.5208780000000  0.5331050000000 1.0
C      1  0.5575690000000  0.5547170000000  0.5322310000000 1.0
C      1  0.4228680000000  0.5260980000000  0.4586190000000 1.0
C      1  0.5258390000000  0.5498540000000  0.5719540000000 1.0
C      1  0.4698000000000  0.4192790000000  0.4755290000000 1.0
C      1  0.4724720000000  0.5068730000000  0.4973100000000 1.0
C      1  0.5174280000000  0.4414440000000  0.4966770000000 1.0
C      1  0.4594220000000  0.5448390000000  0.5525730000000 1.0
C      1  0.4846550000000  0.4735400000000  0.4147880000000 1.0
C      1  0.4336370000000  0.4456720000000  0.4563590000000 1.0
C      1  0.4569310000000  0.5124570000000  0.4108540000000 1.0
C      1  0.5459600000000  0.4801550000000  0.5728560000000 1.0
C      1  0.4211630000000  0.4745460000000  0.4656360000000 1.0
C      1  0.5759780000000  0.5407350000000  0.5107620000000 1.0
C      1  0.4887170000000  0.4721200000000  0.5083770000000 1.0
C      1  0.5847250000000  0.4972390000000  0.4606350000000 1.0
C      1  0.4627340000000  0.4903790000000  0.4436420000000 1.0
C      1  0.4636020000000  0.5837530000000  0.5175950000000 1.0
C      1  0.4079700000000  0.5237980000000  0.4825620000000 1.0
C      1  0.4536840000000  0.4811000000000  0.4123370000000 1.0
C      1  0.5727780000000  0.4663290000000  0.5321990000000 1.0
C      1  0.5147200000000  0.5293170000000  0.5885420000000 1.0
C      1  0.5205150000000  0.4637410000000  0.4270460000000 1.0
C      1  0.5391570000000  0.4616060000000  0.5530970000000 1.0
C      1  0.4353140000000  0.4332810000000  0.5078270000000 1.0
C      1  0.5495600000000  0.4772930000000  0.5146290000000 1.0
C      1  0.4856350000000  0.5530110000000  0.5443400000000 1.0
C      1  0.5003600000000  0.5620950000000  0.4553490000000 1.0
C      1  0.5323170000000  0.5236810000000  0.4854080000000 1.0
C      1  0.4488770000000  0.5587250000000  0.5042400000000 1.0
C      1  0.5405150000000  0.4404520000000  0.5289720000000 1.0
C      1  0.5497020000000  0.5694070000000  0.4745150000000 1.0
C      1  0.5303770000000  0.5094850000000  0.5506970000000 1.0
C      1  0.5457930000000  0.4075100000000  0.4442970000000 1.0
C      1  0.4824200000000  0.4430380000000  0.4588560000000 1.0
C      1  0.5484940000000  0.5860310000000  0.4959440000000 1.0
C      1  0.4291460000000  0.4593840000000  0.5184440000000 1.0
C      1  0.4796610000000  0.4239380000000  0.5304570000000 1.0
C      1  0.5273880000000  0.5486090000000  0.4680260000000 1.0
C      1  0.4615060000000  0.4636050000000  0.5561930000000 1.0
C      1  0.4150990000000  0.5062350000000  0.5036970000000 1.0
C      1  0.5250550000000  0.4824840000000  0.5966110000000 1.0
C      1  0.5568900000000  0.4793820000000  0.4543510000000 1.0
C      1  0.4400980000000  0.5580840000000  0.5372800000000 1.0
C      1  0.5662090000000  0.5435580000000  0.4781350000000 1.0
C      1  0.4292260000000  0.5161400000000  0.5256970000000 1.0
C      1  0.5107850000000  0.4953610000000  0.4186480000000 1.0
C      1  0.5229350000000  0.4728870000000  0.5074370000000 1.0
C      1  0.4864110000000  0.5145010000000  0.5854110000000 1.0
C      1  0.5355320000000  0.5109590000000  0.5954040000000 1.0
C      1  0.5857110000000  0.5131950000000  0.5276970000000 1.0
C      1  0.4420470000000  0.5454910000000  0.4540770000000 1.0
C      1  0.5557850000000  0.5131580000000  0.5311540000000 1.0
C      1  0.4780460000000  0.5725240000000  0.4658510000000 1.0
C      1  0.5658460000000  0.4392530000000  0.4771790000000 1.0
C      1  0.4578870000000  0.5166260000000  0.5667100000000 1.0
C      1  0.5510830000000  0.5427560000000  0.5576330000000 1.0
C      1  0.4989800000000  0.4608860000000  0.4780350000000 1.0
C      1  0.5579650000000  0.5121530000000  0.5709220000000 1.0
C      1  0.4357410000000  0.4723700000000  0.5433200000000 1.0
C      1  0.5097770000000  0.5311680000000  0.4445050000000 1.0
C      1  0.4878590000000  0.5057390000000  0.4511720000000 1.0
C      1  0.4939510000000  0.4477170000000  0.4305370000000 1.0
C      1  0.4525610000000  0.5624310000000  0.4739880000000 1.0
C      1  0.5523910000000  0.4325570000000  0.4521400000000 1.0
C      1  0.5803850000000  0.4663820000000  0.4744810000000 1.0
C      1  0.4693270000000  0.4859810000000  0.5764010000000 1.0
C      1  0.4553330000000  0.5277670000000  0.5166310000000 1.0
C      1  0.5964630000000  0.4851500000000  0.5277520000000 1.0
END
