TITL C-2778422-5617-1381 -0.00412254498886109 125000 -1073.577836867 0 0 186 (C1) n - 1
REM
REM in /home/nfs/bkarasulu/CARBON/AIRSS/Generating-Clusters/REBO/Only-C1/SD-CG/HFTN-CG
REM
REM
REM
REM
REM
REM ./C.cell (11c1c37f851c82e70ff6c80c92926a4b)
REM
REM compiler GCC version 9.2.1 20190827 (Red Hat 9.2.1-1)
REM options -cpp -mtune=generic -march=x86-64 -g -O0 -fpre-include=/usr/include/finclude/math-vector-fortran.h
REM seed 1517507266 -1919188335 1283500606 -346106283 1150417031 1284062228 -30090693 799739135 931570720 258600347 -1177349198 -1018105613 -633972338 2015427803 -1212349875 -443679567 -776965935 -1866101862 -1650429682 261499817 -1805446074 677657372 -214459127 -1468615930 -2060090879 -1827984547 371660829 -1051646163 779700857 -1629312585 -1944702991 -1552589292 1683983537
REM
CELL 1.54180   50.00000   50.00000   50.00000   90.00000   90.00000   90.00000
LATT -1
SFAC C  
C      1  0.5000030000000  0.4583620000000  0.5858300000000 1.0
C      1  0.5172080000000  0.5052690000000  0.5703330000000 1.0
C      1  0.4666650000000  0.5463880000000  0.5578870000000 1.0
C      1  0.4148260000000  0.4273540000000  0.4691100000000 1.0
C      1  0.5040310000000  0.5056730000000  0.6079520000000 1.0
C      1  0.4454720000000  0.5420680000000  0.4940930000000 1.0
C      1  0.4690610000000  0.5433070000000  0.5262190000000 1.0
C      1  0.4042940000000  0.4267440000000  0.4996770000000 1.0
C      1  0.4787780000000  0.4154190000000  0.5591820000000 1.0
C      1  0.5015460000000  0.5809080000000  0.5260260000000 1.0
C      1  0.4860120000000  0.5419610000000  0.4439480000000 1.0
C      1  0.5248290000000  0.4215710000000  0.4716160000000 1.0
C      1  0.5607060000000  0.4652060000000  0.4129710000000 1.0
C      1  0.5051420000000  0.4282320000000  0.5725790000000 1.0
C      1  0.4795120000000  0.4764670000000  0.5200570000000 1.0
C      1  0.5112980000000  0.3766320000000  0.4992480000000 1.0
C      1  0.5426940000000  0.5994750000000  0.4829110000000 1.0
C      1  0.4894570000000  0.5132720000000  0.4320820000000 1.0
C      1  0.5475580000000  0.5805470000000  0.4548720000000 1.0
C      1  0.5976200000000  0.4640620000000  0.5136630000000 1.0
C      1  0.5890470000000  0.5477630000000  0.4706320000000 1.0
C      1  0.5048100000000  0.5655320000000  0.5910740000000 1.0
C      1  0.5145150000000  0.4744250000000  0.5622020000000 1.0
C      1  0.5005860000000  0.5681890000000  0.4990700000000 1.0
C      1  0.4535700000000  0.5868590000000  0.4394560000000 1.0
C      1  0.5926450000000  0.5016070000000  0.5642730000000 1.0
C      1  0.5209030000000  0.6053570000000  0.5011050000000 1.0
C      1  0.4734500000000  0.4813610000000  0.4553850000000 1.0
C      1  0.5527280000000  0.5264410000000  0.4221620000000 1.0
C      1  0.4935100000000  0.4640590000000  0.4961760000000 1.0
C      1  0.4934310000000  0.4741630000000  0.4328080000000 1.0
C      1  0.5503960000000  0.5589420000000  0.4293160000000 1.0
C      1  0.4842370000000  0.5827600000000  0.5815390000000 1.0
C      1  0.4010490000000  0.5069360000000  0.4507770000000 1.0
C      1  0.5549750000000  0.4830280000000  0.5390660000000 1.0
C      1  0.5730290000000  0.4344170000000  0.4824060000000 1.0
C      1  0.5843930000000  0.4352770000000  0.5091880000000 1.0
C      1  0.4732210000000  0.4561450000000  0.4739060000000 1.0
C      1  0.5537830000000  0.4597830000000  0.4912690000000 1.0
C      1  0.4804320000000  0.5807270000000  0.4765110000000 1.0
C      1  0.6005190000000  0.4632770000000  0.4792180000000 1.0
C      1  0.4630140000000  0.5456860000000  0.4114440000000 1.0
C      1  0.5731300000000  0.5762290000000  0.4715790000000 1.0
C      1  0.4983740000000  0.5298740000000  0.4705440000000 1.0
C      1  0.4875560000000  0.6059050000000  0.4985180000000 1.0
C      1  0.4949020000000  0.3986690000000  0.4526610000000 1.0
C      1  0.4636380000000  0.5130460000000  0.4775570000000 1.0
C      1  0.4627030000000  0.4055330000000  0.4968900000000 1.0
C      1  0.5441680000000  0.5202020000000  0.5848380000000 1.0
C      1  0.5208510000000  0.4500960000000  0.4708180000000 1.0
C      1  0.5284080000000  0.4875370000000  0.5247890000000 1.0
C      1  0.5070610000000  0.3975760000000  0.5230990000000 1.0
C      1  0.4156480000000  0.5726890000000  0.5268270000000 1.0
C      1  0.4536120000000  0.4971410000000  0.5559110000000 1.0
C      1  0.5209910000000  0.5611940000000  0.4558490000000 1.0
C      1  0.5056670000000  0.4394300000000  0.5248090000000 1.0
C      1  0.3841490000000  0.4812400000000  0.4934020000000 1.0
C      1  0.5391760000000  0.4294950000000  0.5698250000000 1.0
C      1  0.5651940000000  0.4304460000000  0.5287480000000 1.0
C      1  0.4441240000000  0.5151710000000  0.5986140000000 1.0
C      1  0.5268610000000  0.4976000000000  0.3951500000000 1.0
C      1  0.4468230000000  0.5363140000000  0.4400080000000 1.0
C      1  0.5934510000000  0.4724810000000  0.5466410000000 1.0
C      1  0.4201340000000  0.5181860000000  0.4291450000000 1.0
C      1  0.4541520000000  0.4845920000000  0.4029920000000 1.0
C      1  0.5680570000000  0.5125770000000  0.4713530000000 1.0
C      1  0.5744600000000  0.4434490000000  0.4352030000000 1.0
C      1  0.4157570000000  0.5476780000000  0.4790880000000 1.0
C      1  0.4367350000000  0.4682880000000  0.4212660000000 1.0
C      1  0.6128820000000  0.4191350000000  0.4536250000000 1.0
C      1  0.5594090000000  0.5027630000000  0.5613420000000 1.0
C      1  0.5190770000000  0.5631200000000  0.5441370000000 1.0
C      1  0.4990450000000  0.4898040000000  0.5385640000000 1.0
C      1  0.5435280000000  0.5930180000000  0.5537900000000 1.0
C      1  0.5410000000000  0.5024510000000  0.4892970000000 1.0
C      1  0.5288920000000  0.4102730000000  0.4969950000000 1.0
C      1  0.4259540000000  0.4528140000000  0.5687960000000 1.0
C      1  0.5878270000000  0.4877830000000  0.4591930000000 1.0
C      1  0.5516430000000  0.5352080000000  0.5393770000000 1.0
C      1  0.4941980000000  0.4300540000000  0.4957300000000 1.0
C      1  0.4486590000000  0.4411170000000  0.4853970000000 1.0
C      1  0.5752060000000  0.4842760000000  0.4986410000000 1.0
C      1  0.5334870000000  0.4567150000000  0.5145150000000 1.0
C      1  0.5577630000000  0.4765360000000  0.4637580000000 1.0
C      1  0.4846460000000  0.5158310000000  0.5217180000000 1.0
C      1  0.5577780000000  0.5421330000000  0.4582870000000 1.0
C      1  0.4488270000000  0.4118240000000  0.5430320000000 1.0
C      1  0.4203410000000  0.5098260000000  0.5740550000000 1.0
C      1  0.4444910000000  0.5173360000000  0.4053200000000 1.0
C      1  0.3864970000000  0.4757320000000  0.5271040000000 1.0
C      1  0.4329550000000  0.5108370000000  0.5026450000000 1.0
C      1  0.3944320000000  0.4549810000000  0.4744920000000 1.0
C      1  0.5182250000000  0.4980970000000  0.4340810000000 1.0
C      1  0.5307060000000  0.5618300000000  0.4885350000000 1.0
C      1  0.3799170000000  0.4500820000000  0.5054060000000 1.0
C      1  0.4253520000000  0.4531160000000  0.4495580000000 1.0
C      1  0.4015880000000  0.4972330000000  0.5491440000000 1.0
C      1  0.4970690000000  0.5465150000000  0.4119010000000 1.0
C      1  0.5163090000000  0.5175280000000  0.5165230000000 1.0
C      1  0.5279000000000  0.5999390000000  0.5312520000000 1.0
C      1  0.6085630000000  0.5021050000000  0.5180180000000 1.0
C      1  0.4617250000000  0.4025600000000  0.4468100000000 1.0
C      1  0.4176150000000  0.4470010000000  0.5177280000000 1.0
C      1  0.5753640000000  0.5813780000000  0.5206090000000 1.0
C      1  0.5425900000000  0.4764180000000  0.4382560000000 1.0
C      1  0.5316790000000  0.4480360000000  0.4080040000000 1.0
C      1  0.4264000000000  0.4630380000000  0.4822080000000 1.0
C      1  0.5246040000000  0.5627770000000  0.4136630000000 1.0
C      1  0.5705670000000  0.5956990000000  0.4960870000000 1.0
C      1  0.4929480000000  0.3976650000000  0.4852310000000 1.0
C      1  0.5688840000000  0.5800960000000  0.5473760000000 1.0
C      1  0.4510580000000  0.5042060000000  0.4497950000000 1.0
C      1  0.4291740000000  0.5088310000000  0.5353210000000 1.0
C      1  0.4912610000000  0.5351800000000  0.5689920000000 1.0
C      1  0.3890610000000  0.5062440000000  0.4792100000000 1.0
C      1  0.5484500000000  0.4793670000000  0.5937440000000 1.0
C      1  0.5209390000000  0.4804650000000  0.6011750000000 1.0
C      1  0.5966140000000  0.5284090000000  0.4483260000000 1.0
C      1  0.4514950000000  0.4438910000000  0.4317280000000 1.0
C      1  0.4030320000000  0.5273170000000  0.5232800000000 1.0
C      1  0.4708920000000  0.4682900000000  0.5865510000000 1.0
C      1  0.5470650000000  0.4342570000000  0.4338900000000 1.0
C      1  0.4727850000000  0.4978970000000  0.6032800000000 1.0
C      1  0.5216070000000  0.5319790000000  0.5538110000000 1.0
C      1  0.5925850000000  0.4376550000000  0.4583230000000 1.0
C      1  0.5508600000000  0.5495440000000  0.5814620000000 1.0
C      1  0.5177880000000  0.4595420000000  0.4436090000000 1.0
C      1  0.6057470000000  0.5257210000000  0.5501670000000 1.0
C      1  0.4828650000000  0.5036300000000  0.5721440000000 1.0
C      1  0.4306660000000  0.4777250000000  0.5103530000000 1.0
C      1  0.4990230000000  0.4974790000000  0.4687950000000 1.0
C      1  0.4530200000000  0.4738300000000  0.5328560000000 1.0
C      1  0.4770250000000  0.4277540000000  0.4318590000000 1.0
C      1  0.3995880000000  0.5526200000000  0.5355510000000 1.0
C      1  0.5295050000000  0.5706790000000  0.5745130000000 1.0
C      1  0.5040430000000  0.5346080000000  0.5997020000000 1.0
C      1  0.4627390000000  0.5614030000000  0.4554330000000 1.0
C      1  0.4264000000000  0.5167550000000  0.4697470000000 1.0
C      1  0.5419490000000  0.4165690000000  0.5230890000000 1.0
C      1  0.4584900000000  0.6133810000000  0.4824140000000 1.0
C      1  0.4752400000000  0.4409250000000  0.5376470000000 1.0
C      1  0.5688270000000  0.5533460000000  0.5577070000000 1.0
C      1  0.5597820000000  0.5230780000000  0.5089350000000 1.0
C      1  0.4776800000000  0.4019570000000  0.5274150000000 1.0
C      1  0.5777940000000  0.5027980000000  0.5259970000000 1.0
C      1  0.4766760000000  0.5089390000000  0.4039970000000 1.0
C      1  0.5163640000000  0.4202530000000  0.4380280000000 1.0
C      1  0.5791700000000  0.5085570000000  0.4332230000000 1.0
C      1  0.5582280000000  0.4974390000000  0.4082840000000 1.0
C      1  0.5627260000000  0.5558560000000  0.4995210000000 1.0
C      1  0.4674540000000  0.5883540000000  0.5604380000000 1.0
C      1  0.5264240000000  0.4508630000000  0.5474030000000 1.0
C      1  0.4984060000000  0.5789010000000  0.4521210000000 1.0
C      1  0.5074920000000  0.5184570000000  0.3970170000000 1.0
C      1  0.3963170000000  0.4668050000000  0.5587320000000 1.0
C      1  0.4412400000000  0.5691270000000  0.5626120000000 1.0
C      1  0.3973690000000  0.5273380000000  0.4951390000000 1.0
C      1  0.5282720000000  0.5458670000000  0.5170960000000 1.0
C      1  0.4525740000000  0.5764890000000  0.4133920000000 1.0
C      1  0.4999310000000  0.4393770000000  0.4143260000000 1.0
C      1  0.6058100000000  0.5401390000000  0.5300610000000 1.0
C      1  0.5220390000000  0.4111330000000  0.5478080000000 1.0
C      1  0.5735340000000  0.4681740000000  0.5749760000000 1.0
C      1  0.4506790000000  0.5940230000000  0.5074920000000 1.0
C      1  0.4384990000000  0.5385900000000  0.5752890000000 1.0
C      1  0.5729560000000  0.5030590000000  0.5922020000000 1.0
C      1  0.4404270000000  0.4843280000000  0.5847540000000 1.0
C      1  0.4441190000000  0.4110110000000  0.4702240000000 1.0
C      1  0.5145420000000  0.4715280000000  0.3957090000000 1.0
C      1  0.4287930000000  0.5717450000000  0.4963640000000 1.0
C      1  0.5961670000000  0.5414730000000  0.5022090000000 1.0
C      1  0.5242080000000  0.5310350000000  0.4400300000000 1.0
C      1  0.4558010000000  0.4564920000000  0.5608890000000 1.0
C      1  0.4540390000000  0.4316430000000  0.5155660000000 1.0
C      1  0.4863900000000  0.4297800000000  0.4626360000000 1.0
C      1  0.4794530000000  0.5437960000000  0.4937370000000 1.0
C      1  0.5935480000000  0.5120310000000  0.4904570000000 1.0
C      1  0.4829680000000  0.4673510000000  0.4034170000000 1.0
C      1  0.5660170000000  0.4527090000000  0.5471280000000 1.0
C      1  0.5199050000000  0.4801980000000  0.4853650000000 1.0
C      1  0.5307700000000  0.5261670000000  0.4718830000000 1.0
C      1  0.4487320000000  0.5686680000000  0.5303730000000 1.0
C      1  0.4523160000000  0.6094450000000  0.4563170000000 1.0
C      1  0.4106030000000  0.4418160000000  0.5438900000000 1.0
C      1  0.4710090000000  0.4970050000000  0.4972040000000 1.0
C      1  0.4757050000000  0.5977350000000  0.5303050000000 1.0
END
