TITL C-2778434-4341-1383 5.59010741139246e-07 125000 -62.5228035079519 0 0 12 (Cs) n - 1
REM
REM in /home/nfs/bkarasulu/CARBON/AIRSS/Generating-Clusters/REBO/Only-C1/SD-CG/HFTN-CG
REM
REM
REM
REM
REM
REM ./C.cell (11c1c37f851c82e70ff6c80c92926a4b)
REM
REM compiler GCC version 9.2.1 20190827 (Red Hat 9.2.1-1)
REM options -cpp -mtune=generic -march=x86-64 -g -O0 -fpre-include=/usr/include/finclude/math-vector-fortran.h
REM seed -458149804 -2074437360 -2004363635 -1795729627 256055293 1599387340 -820553047 -36285389 -727254725 1094023860 369685060 1150469829 596579356 -145985486 -427891515 1128768410 -16618497 1992709978 812065869 1269536476 439410918 679128908 -1085253795 -1124216955 620434303 -806853623 487877308 -1701522222 664650893 -2131410840 -275129773 995104676 802974429
REM
CELL 1.54180   50.00000   50.00000   50.00000   90.00000   90.00000   90.00000
LATT -1
SFAC C  
C      1  0.4711800000000  0.5162370000000  0.4629840000000 1.0
C      1  0.4740720000000  0.5028480000000  0.4119530000000 1.0
C      1  0.4983030000000  0.5095200000000  0.5376890000000 1.0
C      1  0.4556470000000  0.5400200000000  0.5130190000000 1.0
C      1  0.5725680000000  0.4398350000000  0.5034370000000 1.0
C      1  0.4726380000000  0.5094890000000  0.4372640000000 1.0
C      1  0.5176400000000  0.4913750000000  0.5287700000000 1.0
C      1  0.5360470000000  0.4741040000000  0.5202810000000 1.0
C      1  0.4806530000000  0.5204380000000  0.5195580000000 1.0
C      1  0.4971020000000  0.5162010000000  0.5641010000000 1.0
C      1  0.4696970000000  0.5231020000000  0.4891520000000 1.0
C      1  0.5544540000000  0.4568320000000  0.5117910000000 1.0
END
