TITL C-2778424-3986-601 0.0041457601706994 125000 -1121.22919319641 0 0 192 (C1) n - 1
REM
REM in /home/nfs/bkarasulu/CARBON/AIRSS/Generating-Clusters/REBO/Only-C1/SD-CG/HFTN-CG
REM
REM
REM
REM
REM
REM ./C.cell (11c1c37f851c82e70ff6c80c92926a4b)
REM
REM compiler GCC version 9.2.1 20190827 (Red Hat 9.2.1-1)
REM options -cpp -mtune=generic -march=x86-64 -g -O0 -fpre-include=/usr/include/finclude/math-vector-fortran.h
REM seed 344772343 -962461313 -587073773 790953904 426674715 -1177352006 -1754076071 -776320072 -628655881 -2121076613 264979 -1060073970 -1460280116 -1989943060 1093389025 -419248302 -1396008356 -96316274 391971915 -978114565 885028642 -1512667163 912581469 -278622894 -1461206825 120894061 1852341707 506755533 -460533086 -1711857693 290691753 -1991851368 130360057
REM
CELL 1.54180   50.00000   50.00000   50.00000   90.00000   90.00000   90.00000
LATT -1
SFAC C  
C      1  0.5132800000000  0.6042940000000  0.5084160000000 1.0
C      1  0.5362580000000  0.5707750000000  0.4325060000000 1.0
C      1  0.4518440000000  0.6064810000000  0.5095010000000 1.0
C      1  0.4255030000000  0.4974050000000  0.4671750000000 1.0
C      1  0.5215750000000  0.4946090000000  0.3916710000000 1.0
C      1  0.4910190000000  0.4515550000000  0.6001920000000 1.0
C      1  0.5347130000000  0.3906440000000  0.4722500000000 1.0
C      1  0.6140900000000  0.4663480000000  0.4736190000000 1.0
C      1  0.5330710000000  0.4053750000000  0.5188780000000 1.0
C      1  0.4804020000000  0.5964400000000  0.5516230000000 1.0
C      1  0.4809680000000  0.3951940000000  0.5194070000000 1.0
C      1  0.5909660000000  0.5358720000000  0.4468140000000 1.0
C      1  0.5553650000000  0.4635120000000  0.4196200000000 1.0
C      1  0.5708090000000  0.4274550000000  0.5031610000000 1.0
C      1  0.4433040000000  0.4043000000000  0.4801630000000 1.0
C      1  0.5683580000000  0.5737570000000  0.5616920000000 1.0
C      1  0.4017500000000  0.4736720000000  0.5550840000000 1.0
C      1  0.4162860000000  0.5894980000000  0.5156820000000 1.0
C      1  0.4238080000000  0.4261100000000  0.5202390000000 1.0
C      1  0.4210780000000  0.5774060000000  0.4769490000000 1.0
C      1  0.5184810000000  0.5012810000000  0.4801590000000 1.0
C      1  0.4498200000000  0.4864930000000  0.5348160000000 1.0
C      1  0.5122820000000  0.4303700000000  0.5874320000000 1.0
C      1  0.6006310000000  0.5420100000000  0.4735490000000 1.0
C      1  0.5773130000000  0.5100100000000  0.4791660000000 1.0
C      1  0.5232030000000  0.4359400000000  0.5251510000000 1.0
C      1  0.5015520000000  0.5545450000000  0.5745840000000 1.0
C      1  0.5126980000000  0.4397140000000  0.4128900000000 1.0
C      1  0.4877110000000  0.5762400000000  0.4631230000000 1.0
C      1  0.4610790000000  0.4509670000000  0.4060830000000 1.0
C      1  0.4570390000000  0.3782660000000  0.4745060000000 1.0
C      1  0.5606920000000  0.4962110000000  0.5583810000000 1.0
C      1  0.6069250000000  0.4803830000000  0.5244610000000 1.0
C      1  0.5369500000000  0.4492390000000  0.5538020000000 1.0
C      1  0.4544860000000  0.5667660000000  0.4420630000000 1.0
C      1  0.5194580000000  0.4844510000000  0.5476650000000 1.0
C      1  0.5894860000000  0.4493450000000  0.4849150000000 1.0
C      1  0.5382070000000  0.5195670000000  0.4072320000000 1.0
C      1  0.4529120000000  0.5463990000000  0.4076890000000 1.0
C      1  0.5785020000000  0.4213250000000  0.4703470000000 1.0
C      1  0.4271150000000  0.5452360000000  0.4864990000000 1.0
C      1  0.4510210000000  0.5282210000000  0.4301760000000 1.0
C      1  0.4013970000000  0.5126300000000  0.4859090000000 1.0
C      1  0.4866410000000  0.5059340000000  0.6073270000000 1.0
C      1  0.3956400000000  0.4876020000000  0.4439710000000 1.0
C      1  0.5031150000000  0.5461160000000  0.5420930000000 1.0
C      1  0.5499930000000  0.4043780000000  0.4925970000000 1.0
C      1  0.4851600000000  0.5205800000000  0.5565070000000 1.0
C      1  0.4595760000000  0.4877710000000  0.4299450000000 1.0
C      1  0.4530630000000  0.4116840000000  0.5300000000000 1.0
C      1  0.4281230000000  0.5605310000000  0.4500970000000 1.0
C      1  0.4418070000000  0.5342050000000  0.5573320000000 1.0
C      1  0.4691150000000  0.5907980000000  0.4309100000000 1.0
C      1  0.4349760000000  0.4688430000000  0.4976690000000 1.0
C      1  0.5503520000000  0.5619280000000  0.5832900000000 1.0
C      1  0.5569480000000  0.5899750000000  0.5412680000000 1.0
C      1  0.5463840000000  0.5823090000000  0.5141830000000 1.0
C      1  0.3991060000000  0.4331710000000  0.5082510000000 1.0
C      1  0.6023400000000  0.5064220000000  0.5460070000000 1.0
C      1  0.5659180000000  0.5541290000000  0.4339060000000 1.0
C      1  0.4036340000000  0.4712220000000  0.4729320000000 1.0
C      1  0.4549260000000  0.5965430000000  0.5368180000000 1.0
C      1  0.5575730000000  0.5192660000000  0.4610250000000 1.0
C      1  0.4655830000000  0.5299760000000  0.6048430000000 1.0
C      1  0.5262630000000  0.5416100000000  0.5914940000000 1.0
C      1  0.4439170000000  0.4884090000000  0.5875920000000 1.0
C      1  0.4828310000000  0.5828020000000  0.5774370000000 1.0
C      1  0.5536580000000  0.5351610000000  0.5632350000000 1.0
C      1  0.5544050000000  0.4858900000000  0.3939500000000 1.0
C      1  0.4591010000000  0.5248280000000  0.5306740000000 1.0
C      1  0.5687230000000  0.4763940000000  0.5134590000000 1.0
C      1  0.5709470000000  0.4718990000000  0.4552710000000 1.0
C      1  0.5158650000000  0.4116580000000  0.5663890000000 1.0
C      1  0.5081810000000  0.5150970000000  0.4259850000000 1.0
C      1  0.3802940000000  0.5292910000000  0.4681290000000 1.0
C      1  0.5246460000000  0.4989130000000  0.6215720000000 1.0
C      1  0.3793890000000  0.5619110000000  0.5088410000000 1.0
C      1  0.6236470000000  0.4848030000000  0.4961750000000 1.0
C      1  0.4750480000000  0.5676190000000  0.5069680000000 1.0
C      1  0.5176810000000  0.5485900000000  0.4454100000000 1.0
C      1  0.5619710000000  0.4659390000000  0.5678090000000 1.0
C      1  0.5397380000000  0.4819270000000  0.4989150000000 1.0
C      1  0.5494970000000  0.4836180000000  0.5943580000000 1.0
C      1  0.4453980000000  0.5976590000000  0.4829240000000 1.0
C      1  0.4978200000000  0.5099650000000  0.5260590000000 1.0
C      1  0.5749130000000  0.5292300000000  0.5131720000000 1.0
C      1  0.5615050000000  0.4332070000000  0.5353920000000 1.0
C      1  0.4951040000000  0.5368340000000  0.3912640000000 1.0
C      1  0.4689480000000  0.4767680000000  0.6075270000000 1.0
C      1  0.4574570000000  0.4201830000000  0.4995950000000 1.0
C      1  0.4297090000000  0.5801990000000  0.5428890000000 1.0
C      1  0.5525040000000  0.5527330000000  0.4642380000000 1.0
C      1  0.4711160000000  0.5274800000000  0.4789240000000 1.0
C      1  0.3841970000000  0.4683350000000  0.5740740000000 1.0
C      1  0.4615140000000  0.4398260000000  0.4653520000000 1.0
C      1  0.4448170000000  0.5199570000000  0.5865630000000 1.0
C      1  0.5404990000000  0.4478940000000  0.4459430000000 1.0
C      1  0.4231160000000  0.5318570000000  0.4429780000000 1.0
C      1  0.4926860000000  0.5076750000000  0.3900370000000 1.0
C      1  0.4839060000000  0.3940160000000  0.4851740000000 1.0
C      1  0.4996730000000  0.4638440000000  0.5571610000000 1.0
C      1  0.6009300000000  0.5120380000000  0.5132500000000 1.0
C      1  0.3937430000000  0.4808000000000  0.5272460000000 1.0
C      1  0.5406090000000  0.4101680000000  0.5499800000000 1.0
C      1  0.4416220000000  0.4437900000000  0.5704470000000 1.0
C      1  0.5379240000000  0.5983730000000  0.4857240000000 1.0
C      1  0.5320260000000  0.5092130000000  0.5673390000000 1.0
C      1  0.5078620000000  0.4471610000000  0.4983740000000 1.0
C      1  0.5871650000000  0.4552460000000  0.5293390000000 1.0
C      1  0.4877150000000  0.5818250000000  0.4102750000000 1.0
C      1  0.4826880000000  0.4815520000000  0.5256240000000 1.0
C      1  0.4284070000000  0.4845300000000  0.4358010000000 1.0
C      1  0.5066760000000  0.5961810000000  0.5373240000000 1.0
C      1  0.4662580000000  0.5986330000000  0.4629130000000 1.0
C      1  0.5944830000000  0.5077920000000  0.4400480000000 1.0
C      1  0.5425140000000  0.5522780000000  0.5400570000000 1.0
C      1  0.4938330000000  0.4547870000000  0.4476440000000 1.0
C      1  0.5054600000000  0.5158280000000  0.5831330000000 1.0
C      1  0.3929520000000  0.5828330000000  0.4951420000000 1.0
C      1  0.5903110000000  0.5551910000000  0.5228190000000 1.0
C      1  0.6161340000000  0.5164070000000  0.4855120000000 1.0
C      1  0.5791620000000  0.4818140000000  0.4847050000000 1.0
C      1  0.5148160000000  0.4776630000000  0.4557780000000 1.0
C      1  0.4877940000000  0.5907150000000  0.5025360000000 1.0
C      1  0.4171800000000  0.4901080000000  0.5054800000000 1.0
C      1  0.5105630000000  0.5385180000000  0.5122690000000 1.0
C      1  0.4818760000000  0.5188610000000  0.4414390000000 1.0
C      1  0.5707820000000  0.5096190000000  0.5882940000000 1.0
C      1  0.3981360000000  0.5178770000000  0.4464320000000 1.0
C      1  0.5272140000000  0.4595240000000  0.5853520000000 1.0
C      1  0.4874760000000  0.4079690000000  0.5497550000000 1.0
C      1  0.5426040000000  0.5160000000000  0.6051040000000 1.0
C      1  0.4976670000000  0.4375080000000  0.5420290000000 1.0
C      1  0.5225370000000  0.5640200000000  0.4981900000000 1.0
C      1  0.4201230000000  0.5537260000000  0.5508160000000 1.0
C      1  0.5866000000000  0.5259710000000  0.5634940000000 1.0
C      1  0.4880210000000  0.4198200000000  0.4659750000000 1.0
C      1  0.4345940000000  0.4585450000000  0.4192050000000 1.0
C      1  0.5804060000000  0.4454170000000  0.4462510000000 1.0
C      1  0.5121800000000  0.3775730000000  0.4838970000000 1.0
C      1  0.5443480000000  0.5346240000000  0.5138580000000 1.0
C      1  0.5279910000000  0.5296620000000  0.4693210000000 1.0
C      1  0.5416070000000  0.4699970000000  0.4713030000000 1.0
C      1  0.4784660000000  0.4721850000000  0.5760340000000 1.0
C      1  0.5210620000000  0.5729050000000  0.5448930000000 1.0
C      1  0.4755710000000  0.5483160000000  0.4555290000000 1.0
C      1  0.5859520000000  0.4535780000000  0.5594700000000 1.0
C      1  0.5257680000000  0.4901770000000  0.4311000000000 1.0
C      1  0.4764910000000  0.5576800000000  0.3966120000000 1.0
C      1  0.5086300000000  0.4796400000000  0.6058370000000 1.0
C      1  0.4190280000000  0.5577630000000  0.5116430000000 1.0
C      1  0.5628030000000  0.5023990000000  0.5285050000000 1.0
C      1  0.5105220000000  0.3852770000000  0.5133030000000 1.0
C      1  0.5576680000000  0.4206380000000  0.4439620000000 1.0
C      1  0.4552570000000  0.5022670000000  0.5056160000000 1.0
C      1  0.5888370000000  0.5604400000000  0.4924930000000 1.0
C      1  0.5876420000000  0.5555580000000  0.5511920000000 1.0
C      1  0.4683860000000  0.5470020000000  0.5689890000000 1.0
C      1  0.4418200000000  0.4499830000000  0.5205760000000 1.0
C      1  0.5157630000000  0.4398390000000  0.4681920000000 1.0
C      1  0.6090760000000  0.4943850000000  0.4605710000000 1.0
C      1  0.4406750000000  0.5193590000000  0.4825760000000 1.0
C      1  0.4885280000000  0.5034970000000  0.4710000000000 1.0
C      1  0.5639600000000  0.5282590000000  0.4142770000000 1.0
C      1  0.3961600000000  0.5134270000000  0.5190580000000 1.0
C      1  0.5126810000000  0.5789620000000  0.4736180000000 1.0
C      1  0.4715580000000  0.5602010000000  0.5999920000000 1.0
C      1  0.5172820000000  0.5429170000000  0.4117470000000 1.0
C      1  0.5308650000000  0.5080570000000  0.5275360000000 1.0
C      1  0.4697900000000  0.5413700000000  0.5067810000000 1.0
C      1  0.4443740000000  0.4331860000000  0.4372830000000 1.0
C      1  0.4773610000000  0.4461080000000  0.4940630000000 1.0
C      1  0.3922680000000  0.4593840000000  0.5012240000000 1.0
C      1  0.5143770000000  0.4737700000000  0.5157940000000 1.0
C      1  0.4727230000000  0.4959470000000  0.4074030000000 1.0
C      1  0.4613520000000  0.4291180000000  0.5559560000000 1.0
C      1  0.5240540000000  0.4652690000000  0.4087990000000 1.0
C      1  0.4643970000000  0.4757640000000  0.4861720000000 1.0
C      1  0.5772640000000  0.4899510000000  0.4189270000000 1.0
C      1  0.4298930000000  0.4518890000000  0.4694480000000 1.0
C      1  0.4276150000000  0.4194070000000  0.4620400000000 1.0
C      1  0.5330560000000  0.4033220000000  0.4469620000000 1.0
C      1  0.5610620000000  0.5730590000000  0.4847730000000 1.0
C      1  0.4776320000000  0.4338680000000  0.4294910000000 1.0
C      1  0.5540050000000  0.4973510000000  0.4406890000000 1.0
C      1  0.4317750000000  0.4729200000000  0.5603130000000 1.0
C      1  0.3972640000000  0.5411170000000  0.5290070000000 1.0
C      1  0.5165020000000  0.5845350000000  0.4153900000000 1.0
C      1  0.4644080000000  0.4958020000000  0.5614690000000 1.0
C      1  0.4748850000000  0.4790300000000  0.4552050000000 1.0
C      1  0.4702360000000  0.4524850000000  0.5327050000000 1.0
C      1  0.5062040000000  0.4167660000000  0.4371730000000 1.0
END
