TITL C-2778434-4341-10 -0.00597958688129038 125000 -664.311908928619 0 0 114 (C1) n - 1
REM
REM in /home/nfs/bkarasulu/CARBON/AIRSS/Generating-Clusters/REBO/Only-C1/SD-CG/HFTN-CG
REM
REM
REM
REM
REM
REM ./C.cell (11c1c37f851c82e70ff6c80c92926a4b)
REM
REM compiler GCC version 9.2.1 20190827 (Red Hat 9.2.1-1)
REM options -cpp -mtune=generic -march=x86-64 -g -O0 -fpre-include=/usr/include/finclude/math-vector-fortran.h
REM seed 655730502 -1158135515 -807779376 1555902715 -1391208340 -624929448 1161798357 2117217958 -74754077 1558189007 -1599733202 291776766 1650674980 -1853867039 -800716477 -1871201373 -69567529 32204102 -98148275 -1839023446 267987787 1209279155 871277327 -1150698356 -1904298970 1687197497 -781409257 -469174540 -1227731692 1432228360 1671899375 -2013917531 755023983
REM
CELL 1.54180   50.00000   50.00000   50.00000   90.00000   90.00000   90.00000
LATT -1
SFAC C  
C      1  0.5268710000000  0.5325980000000  0.5042490000000 1.0
C      1  0.5535180000000  0.4789220000000  0.4632560000000 1.0
C      1  0.4439980000000  0.4655890000000  0.5553320000000 1.0
C      1  0.4629010000000  0.5031950000000  0.5874420000000 1.0
C      1  0.4590230000000  0.4277780000000  0.4776080000000 1.0
C      1  0.4451980000000  0.5396500000000  0.4571650000000 1.0
C      1  0.5672240000000  0.4980610000000  0.5351450000000 1.0
C      1  0.5284120000000  0.5068500000000  0.5344050000000 1.0
C      1  0.4165320000000  0.5583680000000  0.5477110000000 1.0
C      1  0.5729990000000  0.5145230000000  0.5059260000000 1.0
C      1  0.5215330000000  0.4567300000000  0.5281220000000 1.0
C      1  0.4918760000000  0.5536700000000  0.4317310000000 1.0
C      1  0.3988410000000  0.4811450000000  0.4453600000000 1.0
C      1  0.4156010000000  0.5360040000000  0.4939320000000 1.0
C      1  0.5056780000000  0.4709230000000  0.4776620000000 1.0
C      1  0.5757740000000  0.4760410000000  0.4959040000000 1.0
C      1  0.4998240000000  0.5723300000000  0.4510090000000 1.0
C      1  0.4861860000000  0.4887100000000  0.4575720000000 1.0
C      1  0.4787850000000  0.5731430000000  0.4736460000000 1.0
C      1  0.5060320000000  0.5106420000000  0.4110940000000 1.0
C      1  0.5275830000000  0.5764940000000  0.4556170000000 1.0
C      1  0.5781080000000  0.5178360000000  0.4464720000000 1.0
C      1  0.4345330000000  0.5128440000000  0.5441000000000 1.0
C      1  0.5534040000000  0.4520160000000  0.4503400000000 1.0
C      1  0.5141130000000  0.5045310000000  0.5910510000000 1.0
C      1  0.4624870000000  0.5967930000000  0.5014730000000 1.0
C      1  0.5379700000000  0.5584520000000  0.5366850000000 1.0
C      1  0.5771910000000  0.4223580000000  0.4881030000000 1.0
C      1  0.5342750000000  0.5126920000000  0.4283170000000 1.0
C      1  0.5531900000000  0.5125970000000  0.4769930000000 1.0
C      1  0.4181800000000  0.5144900000000  0.5193020000000 1.0
C      1  0.4468320000000  0.5225040000000  0.4928550000000 1.0
C      1  0.4347290000000  0.5590340000000  0.4830750000000 1.0
C      1  0.4391940000000  0.4484650000000  0.5325630000000 1.0
C      1  0.5471200000000  0.5597410000000  0.4425470000000 1.0
C      1  0.5234220000000  0.4526860000000  0.4979440000000 1.0
C      1  0.5553850000000  0.5608230000000  0.5143110000000 1.0
C      1  0.5110180000000  0.5420540000000  0.4145190000000 1.0
C      1  0.5259640000000  0.5008660000000  0.5035000000000 1.0
C      1  0.4864500000000  0.5251150000000  0.5641870000000 1.0
C      1  0.4294620000000  0.5114440000000  0.4658140000000 1.0
C      1  0.4968070000000  0.4081180000000  0.5013230000000 1.0
C      1  0.5097810000000  0.4216280000000  0.5271130000000 1.0
C      1  0.5055050000000  0.5440060000000  0.5184260000000 1.0
C      1  0.4958000000000  0.4542380000000  0.5629300000000 1.0
C      1  0.5046520000000  0.5720690000000  0.5164490000000 1.0
C      1  0.5332720000000  0.5758390000000  0.4846190000000 1.0
C      1  0.4672790000000  0.4594530000000  0.4770360000000 1.0
C      1  0.4854260000000  0.5071680000000  0.6046730000000 1.0
C      1  0.5086790000000  0.4005990000000  0.4718290000000 1.0
C      1  0.5674320000000  0.5447430000000  0.4955530000000 1.0
C      1  0.5129680000000  0.5641660000000  0.5547510000000 1.0
C      1  0.5765040000000  0.4185940000000  0.5203920000000 1.0
C      1  0.4946910000000  0.4937570000000  0.5653150000000 1.0
C      1  0.5127420000000  0.4558470000000  0.4232600000000 1.0
C      1  0.4733900000000  0.5127030000000  0.4753250000000 1.0
C      1  0.4663790000000  0.5149700000000  0.5386510000000 1.0
C      1  0.4395200000000  0.5681680000000  0.5332970000000 1.0
C      1  0.4691480000000  0.4738280000000  0.5710330000000 1.0
C      1  0.4792960000000  0.4863740000000  0.5292430000000 1.0
C      1  0.5305970000000  0.5454360000000  0.4804140000000 1.0
C      1  0.5830020000000  0.4940870000000  0.4679440000000 1.0
C      1  0.4724110000000  0.4627340000000  0.4432640000000 1.0
C      1  0.5135720000000  0.4504050000000  0.4533720000000 1.0
C      1  0.4955870000000  0.4985710000000  0.4949470000000 1.0
C      1  0.5324370000000  0.4068860000000  0.5381440000000 1.0
C      1  0.4815890000000  0.5245340000000  0.5123500000000 1.0
C      1  0.4510420000000  0.4884380000000  0.5132290000000 1.0
C      1  0.4875300000000  0.4662900000000  0.4157550000000 1.0
C      1  0.4557200000000  0.5866120000000  0.4634160000000 1.0
C      1  0.4700190000000  0.5362360000000  0.4431630000000 1.0
C      1  0.5093120000000  0.5421150000000  0.5731140000000 1.0
C      1  0.4215610000000  0.4581380000000  0.5121510000000 1.0
C      1  0.5354700000000  0.4856850000000  0.5766600000000 1.0
C      1  0.5574690000000  0.5002020000000  0.5621840000000 1.0
C      1  0.5656800000000  0.5432680000000  0.4616210000000 1.0
C      1  0.3901410000000  0.5159030000000  0.5037740000000 1.0
C      1  0.4262940000000  0.4862870000000  0.5572910000000 1.0
C      1  0.4121540000000  0.4720170000000  0.4906840000000 1.0
C      1  0.5380390000000  0.5508700000000  0.4171400000000 1.0
C      1  0.4505320000000  0.4828340000000  0.4889190000000 1.0
C      1  0.4614050000000  0.5596930000000  0.5519240000000 1.0
C      1  0.5363570000000  0.5300070000000  0.5466650000000 1.0
C      1  0.4859930000000  0.5740710000000  0.5515450000000 1.0
C      1  0.5268400000000  0.4206780000000  0.4511220000000 1.0
C      1  0.5356650000000  0.5940370000000  0.5039880000000 1.0
C      1  0.4429640000000  0.5764190000000  0.5051970000000 1.0
C      1  0.4236230000000  0.5362550000000  0.5625310000000 1.0
C      1  0.4719400000000  0.5448910000000  0.4863900000000 1.0
C      1  0.5487280000000  0.4504610000000  0.5434390000000 1.0
C      1  0.5255400000000  0.4238480000000  0.4905070000000 1.0
C      1  0.4708880000000  0.4305990000000  0.4499840000000 1.0
C      1  0.5367020000000  0.5255660000000  0.5787080000000 1.0
C      1  0.4907760000000  0.5884720000000  0.4987950000000 1.0
C      1  0.5275050000000  0.5243090000000  0.4572920000000 1.0
C      1  0.6006550000000  0.5077250000000  0.5004840000000 1.0
C      1  0.4667800000000  0.4154310000000  0.5015100000000 1.0
C      1  0.5263390000000  0.4605550000000  0.5670620000000 1.0
C      1  0.4788080000000  0.4599860000000  0.5091660000000 1.0
C      1  0.5697430000000  0.4675790000000  0.5284800000000 1.0
C      1  0.4937790000000  0.4145280000000  0.4454580000000 1.0
C      1  0.5615130000000  0.5105880000000  0.4248720000000 1.0
C      1  0.5532880000000  0.4262060000000  0.4709790000000 1.0
C      1  0.4547420000000  0.5327930000000  0.5722560000000 1.0
C      1  0.4136090000000  0.4884320000000  0.4671890000000 1.0
C      1  0.5417760000000  0.4779760000000  0.4933050000000 1.0
C      1  0.5558920000000  0.4212660000000  0.5393940000000 1.0
C      1  0.4868320000000  0.4403560000000  0.5362790000000 1.0
C      1  0.5873920000000  0.4477290000000  0.5073130000000 1.0
C      1  0.5420150000000  0.4501370000000  0.4253360000000 1.0
C      1  0.5092600000000  0.4829330000000  0.5387380000000 1.0
C      1  0.4593210000000  0.4295960000000  0.5256760000000 1.0
C      1  0.4974790000000  0.5159230000000  0.4435960000000 1.0
C      1  0.4890020000000  0.4884370000000  0.4000240000000 1.0
END
