TITL C-2778424-3986-1082 0.00235258205934848 125000 -824.659722127018 0 0 141 (C1) n - 1
REM
REM in /home/nfs/bkarasulu/CARBON/AIRSS/Generating-Clusters/REBO/Only-C1/SD-CG/HFTN-CG
REM
REM
REM
REM
REM
REM ./C.cell (11c1c37f851c82e70ff6c80c92926a4b)
REM
REM compiler GCC version 9.2.1 20190827 (Red Hat 9.2.1-1)
REM options -cpp -mtune=generic -march=x86-64 -g -O0 -fpre-include=/usr/include/finclude/math-vector-fortran.h
REM seed 1730544789 1637995737 626321901 1298168803 -2130778255 -872154019 1215654374 -2011327160 -664454421 513982012 -655789426 162987173 40570539 1315972028 -138236817 528124083 1223813222 1521624152 -25388139 -742925598 1780267853 -793641524 1678785289 1177960140 464107632 737546377 -53034957 605338908 918511143 2026439997 -1863224160 1209347756 -1255875989
REM
CELL 1.54180   50.00000   50.00000   50.00000   90.00000   90.00000   90.00000
LATT -1
SFAC C  
C      1  0.5486580000000  0.5798560000000  0.5076530000000 1.0
C      1  0.5263920000000  0.4005440000000  0.4817860000000 1.0
C      1  0.4728340000000  0.5432290000000  0.5366500000000 1.0
C      1  0.5639960000000  0.5705560000000  0.4604920000000 1.0
C      1  0.4377390000000  0.5721560000000  0.4538360000000 1.0
C      1  0.5479600000000  0.4185470000000  0.5430640000000 1.0
C      1  0.4842000000000  0.5830700000000  0.4516470000000 1.0
C      1  0.4804440000000  0.4483410000000  0.4827210000000 1.0
C      1  0.5743380000000  0.4831640000000  0.5565160000000 1.0
C      1  0.5395350000000  0.4107620000000  0.5039300000000 1.0
C      1  0.5047040000000  0.4620650000000  0.5494330000000 1.0
C      1  0.5845650000000  0.4712930000000  0.4872480000000 1.0
C      1  0.5590330000000  0.5244260000000  0.4375570000000 1.0
C      1  0.5725420000000  0.4204750000000  0.5287850000000 1.0
C      1  0.5324110000000  0.5850210000000  0.5373490000000 1.0
C      1  0.4936500000000  0.5082950000000  0.5720740000000 1.0
C      1  0.5868230000000  0.5237680000000  0.5229250000000 1.0
C      1  0.5025910000000  0.5600930000000  0.4461150000000 1.0
C      1  0.5033520000000  0.4814590000000  0.6000850000000 1.0
C      1  0.4798420000000  0.5181070000000  0.5194820000000 1.0
C      1  0.5750520000000  0.4727900000000  0.5179290000000 1.0
C      1  0.4812300000000  0.5091760000000  0.3951460000000 1.0
C      1  0.5541000000000  0.4270080000000  0.4704800000000 1.0
C      1  0.5817710000000  0.4391630000000  0.4807280000000 1.0
C      1  0.5224350000000  0.4827220000000  0.4086040000000 1.0
C      1  0.5025530000000  0.4235810000000  0.5121610000000 1.0
C      1  0.4817760000000  0.4645840000000  0.5945300000000 1.0
C      1  0.5208690000000  0.5310080000000  0.4906720000000 1.0
C      1  0.5363870000000  0.4496740000000  0.5454240000000 1.0
C      1  0.4911000000000  0.5075030000000  0.4534960000000 1.0
C      1  0.5259280000000  0.5716090000000  0.4270710000000 1.0
C      1  0.5152060000000  0.4495960000000  0.5790140000000 1.0
C      1  0.5868930000000  0.5412330000000  0.4936870000000 1.0
C      1  0.4786860000000  0.4212760000000  0.4295020000000 1.0
C      1  0.5132420000000  0.5979640000000  0.5123520000000 1.0
C      1  0.4646000000000  0.4106750000000  0.5305970000000 1.0
C      1  0.4314660000000  0.4564720000000  0.4580080000000 1.0
C      1  0.5191490000000  0.5793420000000  0.5656160000000 1.0
C      1  0.5525430000000  0.4685750000000  0.5637160000000 1.0
C      1  0.5297540000000  0.5299390000000  0.5342570000000 1.0
C      1  0.4408300000000  0.5363910000000  0.5644880000000 1.0
C      1  0.4886990000000  0.4454260000000  0.4146020000000 1.0
C      1  0.5136440000000  0.4547310000000  0.3996950000000 1.0
C      1  0.5519830000000  0.5233450000000  0.4868570000000 1.0
C      1  0.5237770000000  0.4869350000000  0.5401140000000 1.0
C      1  0.5286070000000  0.5527090000000  0.5845460000000 1.0
C      1  0.4873170000000  0.4540010000000  0.5131190000000 1.0
C      1  0.4279800000000  0.5033390000000  0.4852810000000 1.0
C      1  0.4627200000000  0.5293420000000  0.4961690000000 1.0
C      1  0.4851570000000  0.5368260000000  0.5647220000000 1.0
C      1  0.5052870000000  0.5591390000000  0.4939240000000 1.0
C      1  0.5102070000000  0.5520210000000  0.5474590000000 1.0
C      1  0.4306550000000  0.4636040000000  0.4854700000000 1.0
C      1  0.4022960000000  0.4984520000000  0.4550930000000 1.0
C      1  0.4670750000000  0.4905900000000  0.5247720000000 1.0
C      1  0.4816490000000  0.5874380000000  0.4789580000000 1.0
C      1  0.4444120000000  0.5046570000000  0.4226220000000 1.0
C      1  0.4635470000000  0.4505240000000  0.5324750000000 1.0
C      1  0.4002140000000  0.4917310000000  0.4853940000000 1.0
C      1  0.4819690000000  0.4831880000000  0.5526110000000 1.0
C      1  0.4255410000000  0.5448160000000  0.4432820000000 1.0
C      1  0.4156060000000  0.4489730000000  0.5073380000000 1.0
C      1  0.5331840000000  0.4652740000000  0.4430910000000 1.0
C      1  0.5616620000000  0.4566080000000  0.4580810000000 1.0
C      1  0.4617170000000  0.5148210000000  0.4679500000000 1.0
C      1  0.5313130000000  0.4448940000000  0.4831530000000 1.0
C      1  0.4514630000000  0.4856650000000  0.4989890000000 1.0
C      1  0.4943800000000  0.5119820000000  0.6049630000000 1.0
C      1  0.5077360000000  0.5357310000000  0.4615920000000 1.0
C      1  0.5372000000000  0.5790740000000  0.4555920000000 1.0
C      1  0.4169190000000  0.5495640000000  0.4940990000000 1.0
C      1  0.4631820000000  0.5114970000000  0.5977330000000 1.0
C      1  0.5306220000000  0.4157760000000  0.4297020000000 1.0
C      1  0.4848330000000  0.5940480000000  0.5311940000000 1.0
C      1  0.5308450000000  0.4768380000000  0.4883030000000 1.0
C      1  0.5385080000000  0.5317010000000  0.5669210000000 1.0
C      1  0.4536850000000  0.5905430000000  0.5067930000000 1.0
C      1  0.5333310000000  0.5142570000000  0.4169800000000 1.0
C      1  0.4822760000000  0.6090060000000  0.5020700000000 1.0
C      1  0.4247970000000  0.4827730000000  0.4402770000000 1.0
C      1  0.5170530000000  0.4150020000000  0.5417000000000 1.0
C      1  0.4605540000000  0.5771940000000  0.4367340000000 1.0
C      1  0.5227300000000  0.5037300000000  0.5635130000000 1.0
C      1  0.5337540000000  0.4759550000000  0.5900090000000 1.0
C      1  0.5245960000000  0.5825720000000  0.4842200000000 1.0
C      1  0.5061840000000  0.4798320000000  0.5118930000000 1.0
C      1  0.5059360000000  0.4400060000000  0.4681050000000 1.0
C      1  0.4950630000000  0.4052720000000  0.4844990000000 1.0
C      1  0.5021740000000  0.4251890000000  0.5641710000000 1.0
C      1  0.4959610000000  0.5616220000000  0.5834650000000 1.0
C      1  0.4672000000000  0.4067780000000  0.5039920000000 1.0
C      1  0.5795170000000  0.4845230000000  0.4573740000000 1.0
C      1  0.4950020000000  0.5641790000000  0.5230980000000 1.0
C      1  0.4588440000000  0.4567630000000  0.5714210000000 1.0
C      1  0.4711800000000  0.5580550000000  0.4916430000000 1.0
C      1  0.5397620000000  0.4047640000000  0.4541670000000 1.0
C      1  0.4239570000000  0.5521690000000  0.5476140000000 1.0
C      1  0.5068960000000  0.5274000000000  0.4036350000000 1.0
C      1  0.5728620000000  0.4974230000000  0.4315310000000 1.0
C      1  0.5554820000000  0.5328390000000  0.5164300000000 1.0
C      1  0.4578040000000  0.5732580000000  0.5328830000000 1.0
C      1  0.4045950000000  0.4777520000000  0.5119960000000 1.0
C      1  0.5311250000000  0.4412540000000  0.5151480000000 1.0
C      1  0.4567430000000  0.4880240000000  0.4488140000000 1.0
C      1  0.5590710000000  0.4937920000000  0.4829830000000 1.0
C      1  0.4965910000000  0.4999610000000  0.4225540000000 1.0
C      1  0.4526430000000  0.5100630000000  0.5494860000000 1.0
C      1  0.5556360000000  0.5612600000000  0.5349710000000 1.0
C      1  0.4221500000000  0.5435190000000  0.5203710000000 1.0
C      1  0.5092680000000  0.5136520000000  0.5143570000000 1.0
C      1  0.4437210000000  0.5759730000000  0.4814680000000 1.0
C      1  0.4002870000000  0.5249060000000  0.4474930000000 1.0
C      1  0.5296880000000  0.5159320000000  0.4495460000000 1.0
C      1  0.5324910000000  0.4323040000000  0.4034500000000 1.0
C      1  0.5513590000000  0.5040280000000  0.5820570000000 1.0
C      1  0.4399140000000  0.5190270000000  0.5195240000000 1.0
C      1  0.4581010000000  0.4906230000000  0.5758090000000 1.0
C      1  0.4401180000000  0.4710240000000  0.5465060000000 1.0
C      1  0.4886040000000  0.4151100000000  0.4538520000000 1.0
C      1  0.5454690000000  0.4783460000000  0.5190990000000 1.0
C      1  0.5184630000000  0.4878070000000  0.4598410000000 1.0
C      1  0.4254230000000  0.4896560000000  0.5290540000000 1.0
C      1  0.4427430000000  0.4300200000000  0.4582890000000 1.0
C      1  0.5768190000000  0.5401460000000  0.5492340000000 1.0
C      1  0.5722260000000  0.5688300000000  0.4896250000000 1.0
C      1  0.5815510000000  0.4409390000000  0.5128650000000 1.0
C      1  0.5134420000000  0.4416870000000  0.4372920000000 1.0
C      1  0.4996420000000  0.5540330000000  0.4136250000000 1.0
C      1  0.4663110000000  0.5549180000000  0.4184350000000 1.0
C      1  0.4674510000000  0.4740580000000  0.4741780000000 1.0
C      1  0.4727420000000  0.4297020000000  0.5570830000000 1.0
C      1  0.5693140000000  0.5385820000000  0.4639600000000 1.0
C      1  0.5068230000000  0.5401520000000  0.6075600000000 1.0
C      1  0.4490550000000  0.5346380000000  0.5918290000000 1.0
C      1  0.4316920000000  0.5314560000000  0.4713540000000 1.0
C      1  0.4606130000000  0.4250940000000  0.4803910000000 1.0
C      1  0.5770080000000  0.5241640000000  0.5725960000000 1.0
C      1  0.4462270000000  0.5338210000000  0.4222920000000 1.0
C      1  0.5890350000000  0.4950650000000  0.5342020000000 1.0
C      1  0.4336840000000  0.4374250000000  0.5259020000000 1.0
C      1  0.5524810000000  0.4793850000000  0.4199970000000 1.0
END
