TITL C-2778436-5916-311 -0.00299766835698912 125000 -441.784794350252 0 0 77 (C1) n - 1
REM
REM in /home/nfs/bkarasulu/CARBON/AIRSS/Generating-Clusters/REBO/Only-C1/SD-CG/HFTN-CG
REM
REM
REM
REM
REM
REM ./C.cell (11c1c37f851c82e70ff6c80c92926a4b)
REM
REM compiler GCC version 9.2.1 20190827 (Red Hat 9.2.1-1)
REM options -cpp -mtune=generic -march=x86-64 -g -O0 -fpre-include=/usr/include/finclude/math-vector-fortran.h
REM seed -1426683840 -433221715 -56193254 554687593 1719162426 500122159 -1526228306 1324102774 917463044 -530858859 1420494149 424776210 1802454736 -1531990761 1005770660 1369418941 1346803434 -1451894653 1109923100 1032116173 -1594772867 -1973137843 190698717 2031867218 1417746562 357794207 -2042317014 155800319 1944193926 502588004 -914809827 -138381971 -1326989066
REM
CELL 1.54180   50.00000   50.00000   50.00000   90.00000   90.00000   90.00000
LATT -1
SFAC C  
C      1  0.4860740000000  0.5591710000000  0.5330480000000 1.0
C      1  0.4742440000000  0.5001310000000  0.5696870000000 1.0
C      1  0.4477050000000  0.5055730000000  0.5701400000000 1.0
C      1  0.4839740000000  0.5463030000000  0.4888280000000 1.0
C      1  0.4330760000000  0.4532840000000  0.4854310000000 1.0
C      1  0.5078720000000  0.4502570000000  0.5551660000000 1.0
C      1  0.5333990000000  0.5619390000000  0.4909240000000 1.0
C      1  0.5152540000000  0.4433150000000  0.4239170000000 1.0
C      1  0.5414270000000  0.5043120000000  0.4344490000000 1.0
C      1  0.4634190000000  0.5344380000000  0.4681520000000 1.0
C      1  0.5535380000000  0.4458890000000  0.4551410000000 1.0
C      1  0.5408580000000  0.5372880000000  0.4749760000000 1.0
C      1  0.5456700000000  0.4831550000000  0.5499100000000 1.0
C      1  0.5668410000000  0.5110280000000  0.4430140000000 1.0
C      1  0.5786860000000  0.5060160000000  0.5276760000000 1.0
C      1  0.5668600000000  0.4516640000000  0.4780100000000 1.0
C      1  0.5464740000000  0.4467050000000  0.5213850000000 1.0
C      1  0.5193270000000  0.4814530000000  0.5271930000000 1.0
C      1  0.4540280000000  0.5474900000000  0.5364850000000 1.0
C      1  0.5036710000000  0.5460040000000  0.5574170000000 1.0
C      1  0.5164480000000  0.4642820000000  0.5016510000000 1.0
C      1  0.5397340000000  0.4544520000000  0.5480110000000 1.0
C      1  0.5037220000000  0.5672020000000  0.4771160000000 1.0
C      1  0.4860440000000  0.4732790000000  0.5682750000000 1.0
C      1  0.4218430000000  0.4663990000000  0.5117340000000 1.0
C      1  0.4785970000000  0.5260750000000  0.5336530000000 1.0
C      1  0.5258180000000  0.5370680000000  0.4511930000000 1.0
C      1  0.4367260000000  0.5461680000000  0.5115870000000 1.0
C      1  0.5250960000000  0.4847240000000  0.4505860000000 1.0
C      1  0.4936120000000  0.4938460000000  0.4598560000000 1.0
C      1  0.4741010000000  0.4802760000000  0.5120940000000 1.0
C      1  0.4382700000000  0.4991730000000  0.4285350000000 1.0
C      1  0.4792270000000  0.5180310000000  0.4082100000000 1.0
C      1  0.4532070000000  0.5575900000000  0.4904090000000 1.0
C      1  0.4234470000000  0.5247790000000  0.4957070000000 1.0
C      1  0.5672650000000  0.5390180000000  0.6152470000000 1.0
C      1  0.4232530000000  0.4972860000000  0.5031970000000 1.0
C      1  0.4378150000000  0.4570070000000  0.5341060000000 1.0
C      1  0.4580360000000  0.4754840000000  0.4390470000000 1.0
C      1  0.5286340000000  0.5293430000000  0.5140110000000 1.0
C      1  0.4948960000000  0.5496300000000  0.4490820000000 1.0
C      1  0.4968310000000  0.5257600000000  0.5062110000000 1.0
C      1  0.5596930000000  0.5350430000000  0.5904740000000 1.0
C      1  0.4400810000000  0.5526940000000  0.5626640000000 1.0
C      1  0.4682800000000  0.5408440000000  0.4291490000000 1.0
C      1  0.4822710000000  0.5172890000000  0.4489080000000 1.0
C      1  0.4655030000000  0.4657900000000  0.4659720000000 1.0
C      1  0.5260590000000  0.4892970000000  0.4821610000000 1.0
C      1  0.4958820000000  0.4361260000000  0.5297940000000 1.0
C      1  0.4679700000000  0.4539400000000  0.5265250000000 1.0
C      1  0.5057390000000  0.5197020000000  0.3998680000000 1.0
C      1  0.4386170000000  0.5264930000000  0.4382020000000 1.0
C      1  0.4957380000000  0.5210610000000  0.5694250000000 1.0
C      1  0.4976500000000  0.4627700000000  0.4731410000000 1.0
C      1  0.4512150000000  0.4825620000000  0.4904480000000 1.0
C      1  0.5167690000000  0.4187980000000  0.4819480000000 1.0
C      1  0.5672570000000  0.4930710000000  0.5050320000000 1.0
C      1  0.4951620000000  0.4970880000000  0.4936940000000 1.0
C      1  0.5295700000000  0.5145830000000  0.4114500000000 1.0
C      1  0.5318130000000  0.5483850000000  0.5523930000000 1.0
C      1  0.4905890000000  0.4972030000000  0.5333520000000 1.0
C      1  0.5515990000000  0.5307930000000  0.5639920000000 1.0
C      1  0.5164450000000  0.4761170000000  0.5760580000000 1.0
C      1  0.4316460000000  0.5288470000000  0.4679240000000 1.0
C      1  0.5612350000000  0.5067630000000  0.5500980000000 1.0
C      1  0.5064530000000  0.4336700000000  0.4640900000000 1.0
C      1  0.4729960000000  0.4298680000000  0.5050790000000 1.0
C      1  0.5452040000000  0.5104900000000  0.4922380000000 1.0
C      1  0.4652660000000  0.4934010000000  0.4123550000000 1.0
C      1  0.4584520000000  0.4358820000000  0.4810570000000 1.0
C      1  0.5310030000000  0.4564970000000  0.4423080000000 1.0
C      1  0.5205700000000  0.5122620000000  0.5394590000000 1.0
C      1  0.5211990000000  0.4325940000000  0.5089390000000 1.0
C      1  0.5626680000000  0.4634530000000  0.5034980000000 1.0
C      1  0.5213510000000  0.5045410000000  0.5726590000000 1.0
C      1  0.5064900000000  0.5700780000000  0.5114400000000 1.0
C      1  0.5365420000000  0.5597210000000  0.5237380000000 1.0
END
