TITL C-2778434-4341-169 -3.06201330097258 125000 -194.405788574795 0 0 36 (C1) n - 1
REM
REM in /home/nfs/bkarasulu/CARBON/AIRSS/Generating-Clusters/REBO/Only-C1/SD-CG/HFTN-CG
REM
REM
REM
REM
REM
REM ./C.cell (11c1c37f851c82e70ff6c80c92926a4b)
REM
REM compiler GCC version 9.2.1 20190827 (Red Hat 9.2.1-1)
REM options -cpp -mtune=generic -march=x86-64 -g -O0 -fpre-include=/usr/include/finclude/math-vector-fortran.h
REM seed 1264896355 338783847 233137384 1219121435 1675448706 1934955538 574683464 2923894 -1265233189 1599301249 -827395870 1685430607 -277026850 183830670 256784595 -1528854576 -53422214 -1554408886 1023791481 -1477443377 -2129376405 -789438776 1446480220 -989772869 1793771151 374599795 -182327382 -1657536455 1713381847 920706718 -1781161310 1821119208 -714907268
REM
CELL 1.54180   50.00000   50.00000   50.00000   90.00000   90.00000   90.00000
LATT -1
SFAC C  
C      1  0.5072970000000  0.5311020000000  0.5445300000000 1.0
C      1  0.5382660000000  0.4909780000000  0.4938140000000 1.0
C      1  0.4764420000000  0.5484550000000  0.4998360000000 1.0
C      1  0.4825230000000  0.5178440000000  0.5535930000000 1.0
C      1  0.5497130000000  0.5323360000000  0.4592620000000 1.0
C      1  0.5174490000000  0.4980390000000  0.4385050000000 1.0
C      1  0.5131160000000  0.5347280000000  0.4920670000000 1.0
C      1  0.5239150000000  0.4720130000000  0.4486360000000 1.0
C      1  0.5066400000000  0.5611190000000  0.4715230000000 1.0
C      1  0.4383270000000  0.4647640000000  0.4729920000000 1.0
C      1  0.5090720000000  0.4545850000000  0.5062180000000 1.0
C      1  0.5437750000000  0.5344730000000  0.5177160000000 1.0
C      1  0.4837910000000  0.5287370000000  0.4764530000000 1.0
C      1  0.5349520000000  0.5196320000000  0.4340520000000 1.0
C      1  0.4922620000000  0.5419270000000  0.4469800000000 1.0
C      1  0.4896310000000  0.5082150000000  0.4514230000000 1.0
C      1  0.5390160000000  0.5044170000000  0.5215420000000 1.0
C      1  0.4984020000000  0.4527380000000  0.4528630000000 1.0
C      1  0.5414060000000  0.5226390000000  0.4862370000000 1.0
C      1  0.4548920000000  0.4403470000000  0.5506030000000 1.0
C      1  0.5044830000000  0.4275110000000  0.5029390000000 1.0
C      1  0.4586260000000  0.5428200000000  0.5192920000000 1.0
C      1  0.4715170000000  0.4679250000000  0.5486770000000 1.0
C      1  0.5248600000000  0.5504430000000  0.4447380000000 1.0
C      1  0.4547040000000  0.4579000000000  0.5232480000000 1.0
C      1  0.4589600000000  0.5288370000000  0.5428600000000 1.0
C      1  0.5065130000000  0.4687540000000  0.5293670000000 1.0
C      1  0.5216530000000  0.5489560000000  0.5283690000000 1.0
C      1  0.5148730000000  0.4979950000000  0.5413040000000 1.0
C      1  0.5046600000000  0.5648880000000  0.5055950000000 1.0
C      1  0.5179050000000  0.4713130000000  0.4823400000000 1.0
C      1  0.4891760000000  0.4800720000000  0.4659120000000 1.0
C      1  0.4890820000000  0.4876270000000  0.5611040000000 1.0
C      1  0.5001330000000  0.4018540000000  0.4998310000000 1.0
C      1  0.4463790000000  0.4613890000000  0.4977020000000 1.0
C      1  0.4955890000000  0.4826260000000  0.5878740000000 1.0
END
