TITL C-2778428-5639-187 -0.000306314664459996 125000 -297.809006592394 0 0 52 (C1) n - 1
REM
REM in /home/nfs/bkarasulu/CARBON/AIRSS/Generating-Clusters/REBO/Only-C1/SD-CG/HFTN-CG
REM
REM
REM
REM
REM
REM ./C.cell (11c1c37f851c82e70ff6c80c92926a4b)
REM
REM compiler GCC version 9.2.1 20190827 (Red Hat 9.2.1-1)
REM options -cpp -mtune=generic -march=x86-64 -g -O0 -fpre-include=/usr/include/finclude/math-vector-fortran.h
REM seed -1090654686 1429763773 222724231 1735544908 1750616065 542686842 213516578 -519714200 -1993531072 -323297580 1881658677 920992320 1053988778 357667615 -1655906320 -1937016541 -2012445132 1380895179 -169868709 205011171 -215684584 -1232750529 652569196 -330382153 1428173076 1290001887 -1633726570 835702056 1590762695 1986463466 567760643 929897474 -963016021
REM
CELL 1.54180   50.00000   50.00000   50.00000   90.00000   90.00000   90.00000
LATT -1
SFAC C  
C      1  0.4996950000000  0.5101500000000  0.4922220000000 1.0
C      1  0.5208580000000  0.5438010000000  0.5147930000000 1.0
C      1  0.5405690000000  0.5400600000000  0.4822820000000 1.0
C      1  0.4961240000000  0.4634860000000  0.5743340000000 1.0
C      1  0.4860940000000  0.5533770000000  0.4746980000000 1.0
C      1  0.4433810000000  0.4855920000000  0.4662750000000 1.0
C      1  0.5020010000000  0.4728620000000  0.4186360000000 1.0
C      1  0.4959270000000  0.5889210000000  0.5094690000000 1.0
C      1  0.4579020000000  0.4903780000000  0.5154030000000 1.0
C      1  0.5255060000000  0.4802720000000  0.4874540000000 1.0
C      1  0.5275540000000  0.5209580000000  0.5324990000000 1.0
C      1  0.4649150000000  0.4758030000000  0.4861340000000 1.0
C      1  0.4478240000000  0.4041790000000  0.4625910000000 1.0
C      1  0.5030120000000  0.5134880000000  0.5529750000000 1.0
C      1  0.5118420000000  0.5720930000000  0.5285360000000 1.0
C      1  0.5231430000000  0.4889270000000  0.5441780000000 1.0
C      1  0.4510780000000  0.5384890000000  0.5003690000000 1.0
C      1  0.4785280000000  0.5394100000000  0.4462680000000 1.0
C      1  0.5484250000000  0.4741400000000  0.4445210000000 1.0
C      1  0.4596440000000  0.5189920000000  0.5195940000000 1.0
C      1  0.5483310000000  0.4565750000000  0.5677530000000 1.0
C      1  0.4560130000000  0.4245270000000  0.4776940000000 1.0
C      1  0.4977350000000  0.4919700000000  0.5137580000000 1.0
C      1  0.4715290000000  0.4699940000000  0.5636460000000 1.0
C      1  0.5358420000000  0.5583300000000  0.5483050000000 1.0
C      1  0.4624490000000  0.4702800000000  0.5367030000000 1.0
C      1  0.5034460000000  0.5473420000000  0.5503810000000 1.0
C      1  0.4771340000000  0.5282540000000  0.5396810000000 1.0
C      1  0.4775590000000  0.5765810000000  0.4931890000000 1.0
C      1  0.5582420000000  0.5124230000000  0.4726350000000 1.0
C      1  0.5679770000000  0.4672130000000  0.5510480000000 1.0
C      1  0.5357460000000  0.4798940000000  0.5137260000000 1.0
C      1  0.4752460000000  0.4468020000000  0.5201510000000 1.0
C      1  0.4399800000000  0.5097100000000  0.4607390000000 1.0
C      1  0.4939530000000  0.4836280000000  0.4748610000000 1.0
C      1  0.5743860000000  0.5394230000000  0.4797970000000 1.0
C      1  0.5596800000000  0.5154770000000  0.5372140000000 1.0
C      1  0.5223220000000  0.4673270000000  0.5646210000000 1.0
C      1  0.4992760000000  0.4657240000000  0.5220110000000 1.0
C      1  0.5582280000000  0.5463450000000  0.5337320000000 1.0
C      1  0.4315770000000  0.3638060000000  0.4326260000000 1.0
C      1  0.4881730000000  0.5177380000000  0.4323690000000 1.0
C      1  0.4568160000000  0.5332550000000  0.4701010000000 1.0
C      1  0.4941150000000  0.4885710000000  0.4452090000000 1.0
C      1  0.4644350000000  0.4454560000000  0.4932280000000 1.0
C      1  0.4396350000000  0.3838310000000  0.4474890000000 1.0
C      1  0.4536900000000  0.5664200000000  0.5056260000000 1.0
C      1  0.4964350000000  0.5008940000000  0.4076150000000 1.0
C      1  0.5609170000000  0.4869240000000  0.5313000000000 1.0
C      1  0.5090300000000  0.5377050000000  0.4862690000000 1.0
C      1  0.5447890000000  0.4887060000000  0.4671940000000 1.0
C      1  0.5612900000000  0.5534960000000  0.5060980000000 1.0
END
