TITL C-2778428-5639-1066 0.173991511934883 125000 -945.956144923833 0 0 162 (C1) n - 1
REM
REM in /home/nfs/bkarasulu/CARBON/AIRSS/Generating-Clusters/REBO/Only-C1/SD-CG/HFTN-CG
REM
REM
REM
REM
REM
REM ./C.cell (11c1c37f851c82e70ff6c80c92926a4b)
REM
REM compiler GCC version 9.2.1 20190827 (Red Hat 9.2.1-1)
REM options -cpp -mtune=generic -march=x86-64 -g -O0 -fpre-include=/usr/include/finclude/math-vector-fortran.h
REM seed 1440116046 829409758 -1526299960 -1392689033 -321843650 1831080944 375738010 -996010040 1115078270 660911286 -942692221 230989998 1560533189 290228885 -2043067334 757437219 185327260 -759432592 -301103407 -187216601 -947839096 817387155 1027397381 -521982683 297640266 -378770292 2122571677 1003195143 -959963335 1258213712 -636354189 812796631 -1163805604
REM
CELL 1.54180   50.00000   50.00000   50.00000   90.00000   90.00000   90.00000
LATT -1
SFAC C  
C      1  0.5128650000000  0.4713760000000  0.4122740000000 1.0
C      1  0.5252720000000  0.4682520000000  0.6000850000000 1.0
C      1  0.5002470000000  0.4216660000000  0.4242240000000 1.0
C      1  0.5020410000000  0.4316230000000  0.4644290000000 1.0
C      1  0.5376130000000  0.5113130000000  0.4142370000000 1.0
C      1  0.4645390000000  0.4912500000000  0.5607510000000 1.0
C      1  0.5340660000000  0.5296340000000  0.4962120000000 1.0
C      1  0.4361020000000  0.4386730000000  0.5539440000000 1.0
C      1  0.5758350000000  0.4599930000000  0.4624020000000 1.0
C      1  0.5897520000000  0.4607760000000  0.4897490000000 1.0
C      1  0.5269250000000  0.3935080000000  0.5395410000000 1.0
C      1  0.4206540000000  0.5118160000000  0.5301680000000 1.0
C      1  0.4431810000000  0.5140900000000  0.5892010000000 1.0
C      1  0.5865710000000  0.4330440000000  0.5373660000000 1.0
C      1  0.5112460000000  0.5003750000000  0.4451820000000 1.0
C      1  0.5489330000000  0.5865110000000  0.4988000000000 1.0
C      1  0.4428520000000  0.5068850000000  0.5044760000000 1.0
C      1  0.4703970000000  0.5263560000000  0.4996170000000 1.0
C      1  0.5365030000000  0.5943460000000  0.5424350000000 1.0
C      1  0.5248700000000  0.5640620000000  0.4163130000000 1.0
C      1  0.4689160000000  0.4359750000000  0.5450490000000 1.0
C      1  0.4636080000000  0.4532940000000  0.4427270000000 1.0
C      1  0.5957680000000  0.5482870000000  0.4737100000000 1.0
C      1  0.4500420000000  0.4412050000000  0.5798280000000 1.0
C      1  0.5077270000000  0.4863710000000  0.4745170000000 1.0
C      1  0.4914510000000  0.5700760000000  0.4227080000000 1.0
C      1  0.5542200000000  0.4131200000000  0.4614490000000 1.0
C      1  0.4584470000000  0.4857130000000  0.4653030000000 1.0
C      1  0.5339540000000  0.4313940000000  0.5054160000000 1.0
C      1  0.5054490000000  0.5820160000000  0.4479660000000 1.0
C      1  0.4536200000000  0.4209390000000  0.4825290000000 1.0
C      1  0.4464240000000  0.5420510000000  0.5271420000000 1.0
C      1  0.5708910000000  0.5424050000000  0.4327900000000 1.0
C      1  0.4964840000000  0.5197790000000  0.3949630000000 1.0
C      1  0.4939020000000  0.4198790000000  0.5310620000000 1.0
C      1  0.6044000000000  0.5218830000000  0.4848320000000 1.0
C      1  0.5469930000000  0.4621190000000  0.5900570000000 1.0
C      1  0.5325710000000  0.4365560000000  0.4734340000000 1.0
C      1  0.4577920000000  0.4709750000000  0.5840900000000 1.0
C      1  0.4466470000000  0.4750090000000  0.4038850000000 1.0
C      1  0.4931820000000  0.5879230000000  0.5677560000000 1.0
C      1  0.5844880000000  0.4976700000000  0.4724230000000 1.0
C      1  0.4159320000000  0.5323910000000  0.5506040000000 1.0
C      1  0.4323120000000  0.4886880000000  0.5842700000000 1.0
C      1  0.4661310000000  0.5945980000000  0.4723870000000 1.0
C      1  0.5179220000000  0.5744620000000  0.5356090000000 1.0
C      1  0.5318510000000  0.5353000000000  0.4283510000000 1.0
C      1  0.4429180000000  0.5707650000000  0.5449580000000 1.0
C      1  0.5338950000000  0.4240570000000  0.4285840000000 1.0
C      1  0.4170750000000  0.4426800000000  0.5047300000000 1.0
C      1  0.4195220000000  0.4555250000000  0.4770000000000 1.0
C      1  0.5231400000000  0.5964100000000  0.5026660000000 1.0
C      1  0.5127140000000  0.4622520000000  0.5402250000000 1.0
C      1  0.5056170000000  0.5030070000000  0.5045250000000 1.0
C      1  0.5200920000000  0.4971000000000  0.5729140000000 1.0
C      1  0.4621020000000  0.5164570000000  0.5378630000000 1.0
C      1  0.4032640000000  0.4585750000000  0.5232310000000 1.0
C      1  0.5445710000000  0.4636490000000  0.5404250000000 1.0
C      1  0.5796080000000  0.4770530000000  0.5180620000000 1.0
C      1  0.4859620000000  0.5573500000000  0.5523900000000 1.0
C      1  0.5538420000000  0.6129300000000  0.5488260000000 1.0
C      1  0.4939180000000  0.6079370000000  0.5021900000000 1.0
C      1  0.4139980000000  0.4566880000000  0.5496230000000 1.0
C      1  0.5755780000000  0.5232420000000  0.4141510000000 1.0
C      1  0.4858860000000  0.5370670000000  0.5285250000000 1.0
C      1  0.5726530000000  0.5330460000000  0.4593620000000 1.0
C      1  0.4862480000000  0.5368200000000  0.5768060000000 1.0
C      1  0.4436990000000  0.4322580000000  0.5073290000000 1.0
C      1  0.4870480000000  0.4548910000000  0.4963670000000 1.0
C      1  0.5643220000000  0.4943520000000  0.4239200000000 1.0
C      1  0.4939170000000  0.4782540000000  0.5186010000000 1.0
C      1  0.4821160000000  0.4655630000000  0.4686020000000 1.0
C      1  0.4395040000000  0.5168250000000  0.4330860000000 1.0
C      1  0.4197910000000  0.5549550000000  0.4660930000000 1.0
C      1  0.5614140000000  0.5250490000000  0.5145510000000 1.0
C      1  0.3990480000000  0.5082960000000  0.4524240000000 1.0
C      1  0.4973940000000  0.4859350000000  0.5965260000000 1.0
C      1  0.5250380000000  0.5445130000000  0.5717390000000 1.0
C      1  0.5377020000000  0.4820200000000  0.4413120000000 1.0
C      1  0.6078500000000  0.5654600000000  0.5888330000000 1.0
C      1  0.4770970000000  0.4860960000000  0.4028930000000 1.0
C      1  0.4629240000000  0.4531860000000  0.5191540000000 1.0
C      1  0.4844460000000  0.4984870000000  0.4282910000000 1.0
C      1  0.4057320000000  0.5262160000000  0.4782100000000 1.0
C      1  0.5151850000000  0.3992710000000  0.4421050000000 1.0
C      1  0.5352400000000  0.4949340000000  0.5447590000000 1.0
C      1  0.5568290000000  0.4424500000000  0.5229370000000 1.0
C      1  0.4642680000000  0.4839520000000  0.5292250000000 1.0
C      1  0.5117710000000  0.4133370000000  0.5592750000000 1.0
C      1  0.4112200000000  0.4772800000000  0.5693600000000 1.0
C      1  0.5417660000000  0.5206680000000  0.5799730000000 1.0
C      1  0.3899920000000  0.4813640000000  0.5113590000000 1.0
C      1  0.5018530000000  0.3916670000000  0.4644950000000 1.0
C      1  0.5065440000000  0.4521020000000  0.4376370000000 1.0
C      1  0.4847540000000  0.3958730000000  0.5124060000000 1.0
C      1  0.5686700000000  0.5018980000000  0.5727030000000 1.0
C      1  0.5081880000000  0.4410860000000  0.5157280000000 1.0
C      1  0.4287970000000  0.5358960000000  0.4995870000000 1.0
C      1  0.4741290000000  0.5109690000000  0.5941610000000 1.0
C      1  0.4587500000000  0.5899440000000  0.5270020000000 1.0
C      1  0.4239070000000  0.5683230000000  0.4973300000000 1.0
C      1  0.6071860000000  0.4895910000000  0.4951330000000 1.0
C      1  0.5842830000000  0.4631370000000  0.5433560000000 1.0
C      1  0.5537590000000  0.5680800000000  0.4339780000000 1.0
C      1  0.5240660000000  0.5191650000000  0.5270450000000 1.0
C      1  0.5232970000000  0.5470950000000  0.5430330000000 1.0
C      1  0.4873530000000  0.5865850000000  0.5353140000000 1.0
C      1  0.5169490000000  0.5315900000000  0.4563070000000 1.0
C      1  0.5148920000000  0.3852130000000  0.5188340000000 1.0
C      1  0.5850980000000  0.4838820000000  0.4441830000000 1.0
C      1  0.5714810000000  0.5470820000000  0.5254420000000 1.0
C      1  0.4813320000000  0.4040050000000  0.5655270000000 1.0
C      1  0.4507250000000  0.5831980000000  0.4986400000000 1.0
C      1  0.5555800000000  0.5129720000000  0.4771420000000 1.0
C      1  0.4614310000000  0.5594010000000  0.4305140000000 1.0
C      1  0.4702590000000  0.5718710000000  0.5866930000000 1.0
C      1  0.4974150000000  0.4443070000000  0.5620830000000 1.0
C      1  0.4291120000000  0.5485140000000  0.4353850000000 1.0
C      1  0.4606250000000  0.5024150000000  0.4438060000000 1.0
C      1  0.5149640000000  0.4989500000000  0.4026540000000 1.0
C      1  0.5841410000000  0.4332310000000  0.5043550000000 1.0
C      1  0.5034540000000  0.5626500000000  0.5878210000000 1.0
C      1  0.4416370000000  0.5344610000000  0.4068870000000 1.0
C      1  0.4202400000000  0.4838400000000  0.4446060000000 1.0
C      1  0.4038740000000  0.4836720000000  0.4739660000000 1.0
C      1  0.4725340000000  0.4230550000000  0.5849510000000 1.0
C      1  0.4707160000000  0.4542090000000  0.3965270000000 1.0
C      1  0.4708940000000  0.5581240000000  0.4878760000000 1.0
C      1  0.4361160000000  0.4847950000000  0.4847480000000 1.0
C      1  0.5761790000000  0.4095180000000  0.4871960000000 1.0
C      1  0.5614180000000  0.4383090000000  0.4426830000000 1.0
C      1  0.4402950000000  0.4698470000000  0.4326200000000 1.0
C      1  0.5439260000000  0.4034050000000  0.4922420000000 1.0
C      1  0.5886230000000  0.5552910000000  0.5724500000000 1.0
C      1  0.4327040000000  0.5363940000000  0.5747900000000 1.0
C      1  0.4980370000000  0.5747150000000  0.4961470000000 1.0
C      1  0.4907560000000  0.5992050000000  0.4628090000000 1.0
C      1  0.5020820000000  0.5533250000000  0.3949670000000 1.0
C      1  0.4919410000000  0.5083010000000  0.5644070000000 1.0
C      1  0.4157720000000  0.5590470000000  0.5292300000000 1.0
C      1  0.5833100000000  0.5670520000000  0.5470280000000 1.0
C      1  0.5543680000000  0.4940860000000  0.5164030000000 1.0
C      1  0.5738020000000  0.5323850000000  0.5794930000000 1.0
C      1  0.5643440000000  0.4730460000000  0.5664730000000 1.0
C      1  0.4716560000000  0.5418620000000  0.4027520000000 1.0
C      1  0.5440950000000  0.4643210000000  0.4674590000000 1.0
C      1  0.5783480000000  0.5722080000000  0.4583890000000 1.0
C      1  0.4825130000000  0.4103760000000  0.4828050000000 1.0
C      1  0.4020130000000  0.5070690000000  0.5062450000000 1.0
C      1  0.4703390000000  0.3902250000000  0.5430170000000 1.0
C      1  0.4981230000000  0.5248170000000  0.4795520000000 1.0
C      1  0.4862080000000  0.4545510000000  0.5899580000000 1.0
C      1  0.4367530000000  0.4326050000000  0.4633440000000 1.0
C      1  0.5652430000000  0.5776020000000  0.5203480000000 1.0
C      1  0.4517050000000  0.5664700000000  0.4623220000000 1.0
C      1  0.4739140000000  0.4375900000000  0.4203330000000 1.0
C      1  0.5419400000000  0.4553730000000  0.4205300000000 1.0
C      1  0.4470060000000  0.5616960000000  0.5738640000000 1.0
C      1  0.5280030000000  0.5637630000000  0.4560650000000 1.0
C      1  0.5050210000000  0.5455940000000  0.5042420000000 1.0
C      1  0.5385140000000  0.4871000000000  0.4888310000000 1.0
C      1  0.5525370000000  0.5761530000000  0.4729090000000 1.0
END
