TITL C-2778433-5640-221 -0.00350178001576763 125000 -387.340968134653 0 0 68 (C1) n - 1
REM
REM in /home/nfs/bkarasulu/CARBON/AIRSS/Generating-Clusters/REBO/Only-C1/SD-CG/HFTN-CG
REM
REM
REM
REM
REM
REM ./C.cell (11c1c37f851c82e70ff6c80c92926a4b)
REM
REM compiler GCC version 9.2.1 20190827 (Red Hat 9.2.1-1)
REM options -cpp -mtune=generic -march=x86-64 -g -O0 -fpre-include=/usr/include/finclude/math-vector-fortran.h
REM seed -763457464 -2082613266 -2121688632 1183800993 -1165869909 1944725404 1701143637 -621991951 976919051 -1951695534 742899864 133486890 -171234670 1606207685 -1499787852 -631086146 -2026298137 -1564403804 178781776 1573902900 -1637280363 -577247103 -2021932595 1498623034 2117696728 -1047475970 -318628320 -673146863 905947108 1496522101 -1761470320 -700303184 -660397965
REM
CELL 1.54180   50.00000   50.00000   50.00000   90.00000   90.00000   90.00000
LATT -1
SFAC C  
C      1  0.4455960000000  0.5092560000000  0.4451920000000 1.0
C      1  0.4544940000000  0.4433160000000  0.5334880000000 1.0
C      1  0.4702650000000  0.4736610000000  0.5690570000000 1.0
C      1  0.5419730000000  0.4950730000000  0.4366250000000 1.0
C      1  0.4232070000000  0.4909550000000  0.4798680000000 1.0
C      1  0.4506420000000  0.4460000000000  0.4820260000000 1.0
C      1  0.5347260000000  0.5042170000000  0.4911160000000 1.0
C      1  0.5181850000000  0.5453170000000  0.4332070000000 1.0
C      1  0.4909760000000  0.5207020000000  0.5645190000000 1.0
C      1  0.4354070000000  0.5175420000000  0.4897190000000 1.0
C      1  0.4840980000000  0.4967440000000  0.5261360000000 1.0
C      1  0.4328780000000  0.4911940000000  0.5411720000000 1.0
C      1  0.5033810000000  0.4927480000000  0.4977090000000 1.0
C      1  0.4937140000000  0.4895770000000  0.5738800000000 1.0
C      1  0.4904200000000  0.5758850000000  0.5046930000000 1.0
C      1  0.4686650000000  0.4739760000000  0.5092570000000 1.0
C      1  0.5170330000000  0.5188730000000  0.5301530000000 1.0
C      1  0.4962220000000  0.4335820000000  0.5594150000000 1.0
C      1  0.4617440000000  0.5251570000000  0.5060680000000 1.0
C      1  0.4588220000000  0.4267940000000  0.5070670000000 1.0
C      1  0.4738440000000  0.4994330000000  0.4873190000000 1.0
C      1  0.4888910000000  0.5360750000000  0.5350690000000 1.0
C      1  0.5214610000000  0.4426970000000  0.5586400000000 1.0
C      1  0.5272280000000  0.4753820000000  0.5622130000000 1.0
C      1  0.5667980000000  0.4744330000000  0.5279800000000 1.0
C      1  0.5705970000000  0.4774660000000  0.4987020000000 1.0
C      1  0.5002580000000  0.5673440000000  0.4528110000000 1.0
C      1  0.5156230000000  0.4743530000000  0.4335390000000 1.0
C      1  0.4453150000000  0.4877230000000  0.5654460000000 1.0
C      1  0.5201660000000  0.5010100000000  0.4625270000000 1.0
C      1  0.5335030000000  0.5523200000000  0.4690200000000 1.0
C      1  0.5255160000000  0.4293490000000  0.4831180000000 1.0
C      1  0.5406250000000  0.4673980000000  0.4564440000000 1.0
C      1  0.4221510000000  0.4947130000000  0.4515710000000 1.0
C      1  0.4788970000000  0.5458250000000  0.4435900000000 1.0
C      1  0.4931310000000  0.5247100000000  0.4261060000000 1.0
C      1  0.5476760000000  0.5480350000000  0.5209710000000 1.0
C      1  0.5575350000000  0.5208030000000  0.4714420000000 1.0
C      1  0.5743890000000  0.5312630000000  0.5060510000000 1.0
C      1  0.4739310000000  0.4536180000000  0.4672740000000 1.0
C      1  0.5525950000000  0.5091610000000  0.5150680000000 1.0
C      1  0.5065020000000  0.5795380000000  0.4778810000000 1.0
C      1  0.5233660000000  0.5661750000000  0.5051380000000 1.0
C      1  0.4577780000000  0.5323610000000  0.4671780000000 1.0
C      1  0.5037740000000  0.4456640000000  0.4821890000000 1.0
C      1  0.4360170000000  0.5180140000000  0.5245050000000 1.0
C      1  0.5120410000000  0.5305370000000  0.4627240000000 1.0
C      1  0.4388170000000  0.4691000000000  0.5224490000000 1.0
C      1  0.4828130000000  0.4473870000000  0.5056080000000 1.0
C      1  0.4637830000000  0.5162170000000  0.5443340000000 1.0
C      1  0.4700790000000  0.5553210000000  0.5024130000000 1.0
C      1  0.5412090000000  0.4578220000000  0.5362220000000 1.0
C      1  0.5453760000000  0.5264520000000  0.4413300000000 1.0
C      1  0.5017290000000  0.4723900000000  0.4635740000000 1.0
C      1  0.5807280000000  0.5028180000000  0.4880970000000 1.0
C      1  0.5149860000000  0.4876950000000  0.5349380000000 1.0
C      1  0.5059920000000  0.5391670000000  0.5074420000000 1.0
C      1  0.5468090000000  0.4667160000000  0.4842400000000 1.0
C      1  0.4892690000000  0.5356460000000  0.4803520000000 1.0
C      1  0.4711920000000  0.4967250000000  0.4555580000000 1.0
C      1  0.4912830000000  0.4980670000000  0.4350350000000 1.0
C      1  0.4718910000000  0.4477110000000  0.5557300000000 1.0
C      1  0.5559210000000  0.5509570000000  0.4878170000000 1.0
C      1  0.5258370000000  0.4692740000000  0.5081190000000 1.0
C      1  0.5223420000000  0.5085190000000  0.5681930000000 1.0
C      1  0.4330530000000  0.4674300000000  0.4916400000000 1.0
C      1  0.5421920000000  0.5278340000000  0.5480400000000 1.0
C      1  0.5626450000000  0.5007820000000  0.5439870000000 1.0
END
