TITL C-2778435-5768-561 -0.00136297623718078 125000 -274.862285542644 0 0 48 (C1) n - 1
REM
REM in /home/nfs/bkarasulu/CARBON/AIRSS/Generating-Clusters/REBO/Only-C1/SD-CG/HFTN-CG
REM
REM
REM
REM
REM
REM ./C.cell (11c1c37f851c82e70ff6c80c92926a4b)
REM
REM compiler GCC version 9.2.1 20190827 (Red Hat 9.2.1-1)
REM options -cpp -mtune=generic -march=x86-64 -g -O0 -fpre-include=/usr/include/finclude/math-vector-fortran.h
REM seed -178873891 789920922 -1804936316 1448516393 -627011112 -337580512 1557447187 1235441791 866771841 -734637331 1701030834 446267909 -2127139452 1313673536 128677445 -1296023893 1124117808 -394288026 -600666767 -1946082950 -1052868222 -742740936 -247943784 -1083447902 1567377633 -61109486 -1599993893 155972329 -507806100 1402813425 1236190111 -437045532 1193806085
REM
CELL 1.54180   50.00000   50.00000   50.00000   90.00000   90.00000   90.00000
LATT -1
SFAC C  
C      1  0.5546880000000  0.4743970000000  0.4602930000000 1.0
C      1  0.4937340000000  0.4828210000000  0.5407090000000 1.0
C      1  0.4553350000000  0.4814190000000  0.5512530000000 1.0
C      1  0.5330280000000  0.4438920000000  0.4987940000000 1.0
C      1  0.5682350000000  0.4892510000000  0.4793300000000 1.0
C      1  0.5302720000000  0.4574130000000  0.5228880000000 1.0
C      1  0.4807740000000  0.4820700000000  0.4451600000000 1.0
C      1  0.5325920000000  0.5070500000000  0.4765760000000 1.0
C      1  0.4954310000000  0.5433690000000  0.4847110000000 1.0
C      1  0.4692780000000  0.4933450000000  0.5952240000000 1.0
C      1  0.4962020000000  0.5032840000000  0.5189070000000 1.0
C      1  0.5069920000000  0.5568690000000  0.4492370000000 1.0
C      1  0.5237970000000  0.5005330000000  0.4340250000000 1.0
C      1  0.4401130000000  0.4800670000000  0.4764290000000 1.0
C      1  0.5175500000000  0.5410430000000  0.5085880000000 1.0
C      1  0.4818440000000  0.5229820000000  0.5050720000000 1.0
C      1  0.4528330000000  0.4395860000000  0.5001500000000 1.0
C      1  0.5039810000000  0.4457290000000  0.4835570000000 1.0
C      1  0.4868620000000  0.5324360000000  0.4533800000000 1.0
C      1  0.5369160000000  0.4875050000000  0.5625330000000 1.0
C      1  0.5229360000000  0.4932840000000  0.5067870000000 1.0
C      1  0.5333650000000  0.5476580000000  0.4440700000000 1.0
C      1  0.5445680000000  0.4855340000000  0.5295120000000 1.0
C      1  0.5025070000000  0.4574240000000  0.5306450000000 1.0
C      1  0.4843730000000  0.4446610000000  0.5079200000000 1.0
C      1  0.5181300000000  0.5224730000000  0.5580110000000 1.0
C      1  0.5387790000000  0.5203440000000  0.4491450000000 1.0
C      1  0.4539830000000  0.5197250000000  0.5015860000000 1.0
C      1  0.5317820000000  0.4736560000000  0.4426820000000 1.0
C      1  0.4837110000000  0.5223190000000  0.5596870000000 1.0
C      1  0.5495060000000  0.5136210000000  0.5482850000000 1.0
C      1  0.5188970000000  0.4762390000000  0.4802340000000 1.0
C      1  0.5074140000000  0.4908520000000  0.5650830000000 1.0
C      1  0.5016050000000  0.6002650000000  0.4817680000000 1.0
C      1  0.5071100000000  0.5418680000000  0.5342390000000 1.0
C      1  0.4385730000000  0.4959680000000  0.5006000000000 1.0
C      1  0.4957300000000  0.5054930000000  0.4370640000000 1.0
C      1  0.4568670000000  0.5204880000000  0.4540210000000 1.0
C      1  0.5668550000000  0.5114640000000  0.4964290000000 1.0
C      1  0.4685340000000  0.4994040000000  0.5685190000000 1.0
C      1  0.5026050000000  0.4620410000000  0.4543590000000 1.0
C      1  0.4557610000000  0.4915150000000  0.4554830000000 1.0
C      1  0.4772060000000  0.5459600000000  0.5405590000000 1.0
C      1  0.4389340000000  0.4518760000000  0.4804040000000 1.0
C      1  0.4385100000000  0.4816150000000  0.5246600000000 1.0
C      1  0.4595480000000  0.4563090000000  0.5284300000000 1.0
C      1  0.5409380000000  0.5280960000000  0.5001790000000 1.0
C      1  0.5008160000000  0.5747880000000  0.4728240000000 1.0
END
