TITL C-2778430-5657-5 0.0144602992016557 125000 -326.479776488107 0 0 59 (C1) n - 1
REM
REM in /home/nfs/bkarasulu/CARBON/AIRSS/Generating-Clusters/REBO/Only-C1/SD-CG/HFTN-CG
REM
REM
REM
REM
REM
REM ./C.cell (11c1c37f851c82e70ff6c80c92926a4b)
REM
REM compiler GCC version 9.2.1 20190827 (Red Hat 9.2.1-1)
REM options -cpp -mtune=generic -march=x86-64 -g -O0 -fpre-include=/usr/include/finclude/math-vector-fortran.h
REM seed 85671249 -1940959578 1315168163 1235019449 -995079691 811215470 532328720 154348396 -1198140258 -1281057357 -619692928 -519205742 -906714142 623995455 -903216579 -2067093960 -1639249693 328272030 2097068796 1694015191 -1223541599 1163558465 1173571030 102264465 -1891738468 1667246022 1295269868 -1601682356 -367773671 -1870847999 219225231 -423651617 1985411812
REM
CELL 1.54180   50.00000   50.00000   50.00000   90.00000   90.00000   90.00000
LATT -1
SFAC C  
C      1  0.5422200000000  0.5392620000000  0.4529720000000 1.0
C      1  0.5297690000000  0.4976810000000  0.5654450000000 1.0
C      1  0.5095700000000  0.5639710000000  0.5437600000000 1.0
C      1  0.4942990000000  0.4672480000000  0.4393660000000 1.0
C      1  0.4903690000000  0.5378460000000  0.5444900000000 1.0
C      1  0.5727600000000  0.4866080000000  0.4633400000000 1.0
C      1  0.4462540000000  0.4818500000000  0.5156640000000 1.0
C      1  0.5223800000000  0.5752190000000  0.5213790000000 1.0
C      1  0.4992720000000  0.4824420000000  0.5191500000000 1.0
C      1  0.5544230000000  0.5093270000000  0.4472540000000 1.0
C      1  0.4021460000000  0.4624510000000  0.5033580000000 1.0
C      1  0.5419740000000  0.4511950000000  0.5093430000000 1.0
C      1  0.5007420000000  0.4973620000000  0.4492380000000 1.0
C      1  0.4800190000000  0.5988640000000  0.5307270000000 1.0
C      1  0.4841400000000  0.5193330000000  0.5254800000000 1.0
C      1  0.5052040000000  0.4696370000000  0.4776150000000 1.0
C      1  0.4754180000000  0.4642840000000  0.5133110000000 1.0
C      1  0.5239170000000  0.5207330000000  0.5815200000000 1.0
C      1  0.5109780000000  0.5427710000000  0.5691530000000 1.0
C      1  0.4756160000000  0.5605270000000  0.4957430000000 1.0
C      1  0.4830470000000  0.4184360000000  0.4892410000000 1.0
C      1  0.4800120000000  0.5288820000000  0.4870650000000 1.0
C      1  0.4138830000000  0.5294200000000  0.4768550000000 1.0
C      1  0.5223710000000  0.5137410000000  0.4469970000000 1.0
C      1  0.5692130000000  0.4715650000000  0.5431080000000 1.0
C      1  0.4184710000000  0.4847400000000  0.5047770000000 1.0
C      1  0.4662700000000  0.5016980000000  0.5025370000000 1.0
C      1  0.4521500000000  0.4790100000000  0.4568120000000 1.0
C      1  0.4662810000000  0.5498510000000  0.4656020000000 1.0
C      1  0.4722330000000  0.4568140000000  0.4552610000000 1.0
C      1  0.5232740000000  0.4644330000000  0.4510360000000 1.0
C      1  0.5425770000000  0.4982920000000  0.5004740000000 1.0
C      1  0.5687750000000  0.5353860000000  0.4932710000000 1.0
C      1  0.4231430000000  0.5200860000000  0.4474480000000 1.0
C      1  0.5516750000000  0.5544830000000  0.4754010000000 1.0
C      1  0.4804550000000  0.4483630000000  0.4854660000000 1.0
C      1  0.5641890000000  0.5075980000000  0.4858520000000 1.0
C      1  0.5492370000000  0.4697160000000  0.4491190000000 1.0
C      1  0.4374790000000  0.5451610000000  0.4615030000000 1.0
C      1  0.5336930000000  0.4250660000000  0.5117890000000 1.0
C      1  0.5247910000000  0.4741590000000  0.5007100000000 1.0
C      1  0.4440530000000  0.4711130000000  0.5452180000000 1.0
C      1  0.5539970000000  0.4822670000000  0.5635420000000 1.0
C      1  0.5680930000000  0.4621640000000  0.5159800000000 1.0
C      1  0.5817970000000  0.4724450000000  0.4927070000000 1.0
C      1  0.4688100000000  0.4620630000000  0.5646260000000 1.0
C      1  0.4332380000000  0.4942930000000  0.4439700000000 1.0
C      1  0.5046240000000  0.5106270000000  0.5005810000000 1.0
C      1  0.4808150000000  0.5585200000000  0.4435160000000 1.0
C      1  0.4726630000000  0.4447200000000  0.5373300000000 1.0
C      1  0.4421890000000  0.4384750000000  0.5467910000000 1.0
C      1  0.5422740000000  0.5626070000000  0.5054340000000 1.0
C      1  0.5182310000000  0.5010350000000  0.5392710000000 1.0
C      1  0.5258070000000  0.4001820000000  0.5141180000000 1.0
C      1  0.5373620000000  0.5147390000000  0.5229880000000 1.0
C      1  0.4103290000000  0.5101590000000  0.4964860000000 1.0
C      1  0.4787050000000  0.4910570000000  0.4744490000000 1.0
C      1  0.5545190000000  0.5384450000000  0.5212410000000 1.0
C      1  0.4778040000000  0.5795750000000  0.5131250000000 1.0
END
