TITL C-2778424-3986-1402 -0.00013851125406056 125000 -203.246872386115 0 0 35 (C1) n - 1
REM
REM in /home/nfs/bkarasulu/CARBON/AIRSS/Generating-Clusters/REBO/Only-C1/SD-CG/HFTN-CG
REM
REM
REM
REM
REM
REM ./C.cell (11c1c37f851c82e70ff6c80c92926a4b)
REM
REM compiler GCC version 9.2.1 20190827 (Red Hat 9.2.1-1)
REM options -cpp -mtune=generic -march=x86-64 -g -O0 -fpre-include=/usr/include/finclude/math-vector-fortran.h
REM seed 667749604 2106755129 -937438796 -1172136428 -376132995 -268128160 170860539 2130679570 -1537617934 1452995186 1961148089 2127857879 -2040838540 -1660374736 844635383 -955901432 -173553596 -922783178 -1891678785 1356784395 -1134449446 -1752958456 91763073 -2124970456 -1381132572 2110162384 2136208230 448467786 1747292552 -1502004319 -95365079 -606197480 343302119
REM
CELL 1.54180   50.00000   50.00000   50.00000   90.00000   90.00000   90.00000
LATT -1
SFAC C  
C      1  0.5222910000000  0.5041750000000  0.4376560000000 1.0
C      1  0.5517490000000  0.5176910000000  0.5057870000000 1.0
C      1  0.4368690000000  0.4748600000000  0.5098490000000 1.0
C      1  0.4675480000000  0.4629230000000  0.5164850000000 1.0
C      1  0.5661370000000  0.5246520000000  0.5540870000000 1.0
C      1  0.5248370000000  0.5072600000000  0.5173510000000 1.0
C      1  0.4529630000000  0.4918570000000  0.5327310000000 1.0
C      1  0.4753330000000  0.4833840000000  0.5526260000000 1.0
C      1  0.4822910000000  0.4855660000000  0.4992730000000 1.0
C      1  0.5000170000000  0.5425810000000  0.4913030000000 1.0
C      1  0.4521740000000  0.5286450000000  0.4970850000000 1.0
C      1  0.4771950000000  0.4370740000000  0.5036270000000 1.0
C      1  0.4374770000000  0.4869060000000  0.4845250000000 1.0
C      1  0.5380420000000  0.4932350000000  0.4592180000000 1.0
C      1  0.4910270000000  0.4373810000000  0.4799030000000 1.0
C      1  0.4908770000000  0.4685950000000  0.4400280000000 1.0
C      1  0.5279710000000  0.4927210000000  0.5451290000000 1.0
C      1  0.5037930000000  0.4560900000000  0.4626290000000 1.0
C      1  0.5050520000000  0.5312890000000  0.5174810000000 1.0
C      1  0.5423950000000  0.4682480000000  0.5417540000000 1.0
C      1  0.4267970000000  0.5280600000000  0.4872500000000 1.0
C      1  0.5440550000000  0.5118210000000  0.5639600000000 1.0
C      1  0.4994620000000  0.4866680000000  0.5558100000000 1.0
C      1  0.5107370000000  0.4869700000000  0.4986450000000 1.0
C      1  0.5222710000000  0.4749230000000  0.4755910000000 1.0
C      1  0.4775190000000  0.5121630000000  0.4567380000000 1.0
C      1  0.4752280000000  0.5333400000000  0.4792100000000 1.0
C      1  0.4942340000000  0.4974440000000  0.4383270000000 1.0
C      1  0.4584610000000  0.5200540000000  0.5238920000000 1.0
C      1  0.5477970000000  0.5398920000000  0.4807420000000 1.0
C      1  0.5719410000000  0.5254240000000  0.5274030000000 1.0
C      1  0.4644100000000  0.4948970000000  0.4783410000000 1.0
C      1  0.5229240000000  0.5523750000000  0.4777420000000 1.0
C      1  0.4825510000000  0.5306610000000  0.5344250000000 1.0
C      1  0.5555750000000  0.5101770000000  0.4734000000000 1.0
END
