TITL C-2778436-5916-1009 0.132798425543943 125000 -1070.63056763571 0 0 184 (C1) n - 1
REM
REM in /home/nfs/bkarasulu/CARBON/AIRSS/Generating-Clusters/REBO/Only-C1/SD-CG/HFTN-CG
REM
REM
REM
REM
REM
REM ./C.cell (11c1c37f851c82e70ff6c80c92926a4b)
REM
REM compiler GCC version 9.2.1 20190827 (Red Hat 9.2.1-1)
REM options -cpp -mtune=generic -march=x86-64 -g -O0 -fpre-include=/usr/include/finclude/math-vector-fortran.h
REM seed 83039533 661274490 -603098765 1932862998 -900601180 -554383707 1304436192 858067298 943882834 872975725 -1920155659 -579114318 -273652492 526159998 2022994528 -886074165 -1594817886 1824016155 -1627946923 1295238112 737507745 -1108456727 -1799627416 1946129424 -715177264 1312918257 -689358471 602758216 -987239869 -17066191 1417810252 119813152 -449279069
REM
CELL 1.54180   50.00000   50.00000   50.00000   90.00000   90.00000   90.00000
LATT -1
SFAC C  
C      1  0.5575070000000  0.5379790000000  0.4821990000000 1.0
C      1  0.4325240000000  0.5609560000000  0.5599450000000 1.0
C      1  0.4480200000000  0.4471560000000  0.4138490000000 1.0
C      1  0.5595710000000  0.6012650000000  0.5286180000000 1.0
C      1  0.4717770000000  0.3862760000000  0.5262660000000 1.0
C      1  0.5468030000000  0.6083600000000  0.4975110000000 1.0
C      1  0.4993280000000  0.5212740000000  0.3934300000000 1.0
C      1  0.4923970000000  0.4932560000000  0.4635420000000 1.0
C      1  0.4160070000000  0.4065080000000  0.5173580000000 1.0
C      1  0.4155220000000  0.6006420000000  0.5067570000000 1.0
C      1  0.5287950000000  0.5525920000000  0.5481430000000 1.0
C      1  0.5675050000000  0.4989920000000  0.5331310000000 1.0
C      1  0.5799380000000  0.4582760000000  0.5520470000000 1.0
C      1  0.4575780000000  0.4883050000000  0.4447630000000 1.0
C      1  0.5269630000000  0.3791530000000  0.4776670000000 1.0
C      1  0.5339440000000  0.4980080000000  0.5400340000000 1.0
C      1  0.4835800000000  0.4910790000000  0.3938470000000 1.0
C      1  0.5071320000000  0.4531690000000  0.4271640000000 1.0
C      1  0.5473640000000  0.5778910000000  0.5092410000000 1.0
C      1  0.5351350000000  0.4388800000000  0.4193530000000 1.0
C      1  0.5482940000000  0.4997220000000  0.4881930000000 1.0
C      1  0.4731080000000  0.3989890000000  0.4642560000000 1.0
C      1  0.5957060000000  0.4805360000000  0.4941370000000 1.0
C      1  0.5068010000000  0.3978230000000  0.4582950000000 1.0
C      1  0.5096970000000  0.5680090000000  0.4100950000000 1.0
C      1  0.5525410000000  0.5358120000000  0.5339570000000 1.0
C      1  0.4492680000000  0.4651670000000  0.4878450000000 1.0
C      1  0.4958210000000  0.4599030000000  0.4849170000000 1.0
C      1  0.5185650000000  0.5980560000000  0.5279840000000 1.0
C      1  0.4957450000000  0.5414050000000  0.4656360000000 1.0
C      1  0.5307750000000  0.4514630000000  0.5009590000000 1.0
C      1  0.4689920000000  0.4417830000000  0.4869080000000 1.0
C      1  0.4523330000000  0.3965460000000  0.5039890000000 1.0
C      1  0.5636450000000  0.4126140000000  0.4719380000000 1.0
C      1  0.5526440000000  0.4501310000000  0.5240740000000 1.0
C      1  0.5209930000000  0.4165040000000  0.5423550000000 1.0
C      1  0.4356610000000  0.4930570000000  0.3977400000000 1.0
C      1  0.5402450000000  0.4724420000000  0.4166930000000 1.0
C      1  0.5193360000000  0.4254380000000  0.4532760000000 1.0
C      1  0.5457310000000  0.5872430000000  0.4706100000000 1.0
C      1  0.4999020000000  0.5390080000000  0.4190570000000 1.0
C      1  0.4409940000000  0.3981580000000  0.4755610000000 1.0
C      1  0.4498580000000  0.4768360000000  0.6064370000000 1.0
C      1  0.5190650000000  0.4450390000000  0.5923250000000 1.0
C      1  0.5319880000000  0.5809890000000  0.5488280000000 1.0
C      1  0.5231930000000  0.5985970000000  0.4491590000000 1.0
C      1  0.5184520000000  0.5052930000000  0.5761120000000 1.0
C      1  0.5906950000000  0.5067980000000  0.5550150000000 1.0
C      1  0.5852360000000  0.5368380000000  0.5293480000000 1.0
C      1  0.4550250000000  0.5043830000000  0.6061900000000 1.0
C      1  0.4702350000000  0.4401160000000  0.3983760000000 1.0
C      1  0.4129260000000  0.5096440000000  0.4359700000000 1.0
C      1  0.5818480000000  0.5595270000000  0.4440830000000 1.0
C      1  0.4285810000000  0.4591130000000  0.5489160000000 1.0
C      1  0.5176580000000  0.4761750000000  0.4500350000000 1.0
C      1  0.3872040000000  0.5368090000000  0.5385550000000 1.0
C      1  0.4649620000000  0.4721100000000  0.5577980000000 1.0
C      1  0.5382240000000  0.4086900000000  0.5140250000000 1.0
C      1  0.4548140000000  0.4247550000000  0.5461400000000 1.0
C      1  0.4280190000000  0.4571630000000  0.4673210000000 1.0
C      1  0.4294080000000  0.5189740000000  0.4124370000000 1.0
C      1  0.4634170000000  0.6022730000000  0.5353000000000 1.0
C      1  0.4730890000000  0.4344650000000  0.5681650000000 1.0
C      1  0.4409920000000  0.5739560000000  0.4308470000000 1.0
C      1  0.5623780000000  0.4324130000000  0.5508680000000 1.0
C      1  0.4643610000000  0.4537590000000  0.6530300000000 1.0
C      1  0.4692460000000  0.5111520000000  0.5586370000000 1.0
C      1  0.5738200000000  0.5138870000000  0.4701780000000 1.0
C      1  0.5672270000000  0.5620870000000  0.4945340000000 1.0
C      1  0.5102450000000  0.4469370000000  0.5397960000000 1.0
C      1  0.5736580000000  0.5178580000000  0.5800190000000 1.0
C      1  0.5307630000000  0.5133920000000  0.3945720000000 1.0
C      1  0.5097490000000  0.4250740000000  0.5052560000000 1.0
C      1  0.4589390000000  0.4565780000000  0.6266760000000 1.0
C      1  0.4649020000000  0.4527340000000  0.5335820000000 1.0
C      1  0.4701700000000  0.5632720000000  0.4730570000000 1.0
C      1  0.5476940000000  0.3960390000000  0.4894040000000 1.0
C      1  0.4751150000000  0.5538540000000  0.4346650000000 1.0
C      1  0.4713000000000  0.6102550000000  0.4510600000000 1.0
C      1  0.5423670000000  0.5248160000000  0.5077540000000 1.0
C      1  0.5607280000000  0.5858630000000  0.5577540000000 1.0
C      1  0.4902320000000  0.4586610000000  0.4019650000000 1.0
C      1  0.4496720000000  0.5197200000000  0.5809030000000 1.0
C      1  0.4862340000000  0.5693840000000  0.5090710000000 1.0
C      1  0.4692850000000  0.5550810000000  0.5304740000000 1.0
C      1  0.5044390000000  0.5392410000000  0.5518190000000 1.0
C      1  0.4803330000000  0.5577000000000  0.5617380000000 1.0
C      1  0.5728730000000  0.5327650000000  0.4294090000000 1.0
C      1  0.5715490000000  0.5771580000000  0.4578080000000 1.0
C      1  0.4871720000000  0.5861870000000  0.4140060000000 1.0
C      1  0.4879400000000  0.3634810000000  0.5196200000000 1.0
C      1  0.5482000000000  0.4697510000000  0.5517320000000 1.0
C      1  0.5958550000000  0.5075190000000  0.5154380000000 1.0
C      1  0.5207180000000  0.4824360000000  0.4893200000000 1.0
C      1  0.4760050000000  0.5884840000000  0.5513390000000 1.0
C      1  0.4973180000000  0.5300270000000  0.6184180000000 1.0
C      1  0.4922130000000  0.4588180000000  0.5173450000000 1.0
C      1  0.4473470000000  0.4753360000000  0.4149340000000 1.0
C      1  0.4128500000000  0.4757490000000  0.5237620000000 1.0
C      1  0.4089670000000  0.4410490000000  0.4844510000000 1.0
C      1  0.4448130000000  0.5812590000000  0.4818750000000 1.0
C      1  0.5214690000000  0.4153470000000  0.5763040000000 1.0
C      1  0.5503430000000  0.4215390000000  0.4451220000000 1.0
C      1  0.4885430000000  0.6104680000000  0.4718390000000 1.0
C      1  0.5385280000000  0.4627690000000  0.6001320000000 1.0
C      1  0.4936490000000  0.4449650000000  0.4559220000000 1.0
C      1  0.5672730000000  0.4451150000000  0.4273980000000 1.0
C      1  0.4878340000000  0.4986290000000  0.4322120000000 1.0
C      1  0.5094600000000  0.5139470000000  0.4813020000000 1.0
C      1  0.4471540000000  0.5512990000000  0.4553140000000 1.0
C      1  0.3965190000000  0.4565910000000  0.5037640000000 1.0
C      1  0.4627640000000  0.4398140000000  0.5993240000000 1.0
C      1  0.5045710000000  0.5095760000000  0.5366960000000 1.0
C      1  0.5352230000000  0.4526310000000  0.4672090000000 1.0
C      1  0.4278030000000  0.5722600000000  0.5093900000000 1.0
C      1  0.4997110000000  0.4556670000000  0.5678190000000 1.0
C      1  0.5339890000000  0.5020150000000  0.4428480000000 1.0
C      1  0.4956470000000  0.4004780000000  0.4893930000000 1.0
C      1  0.5500100000000  0.5125000000000  0.4172740000000 1.0
C      1  0.4928000000000  0.4248530000000  0.5923000000000 1.0
C      1  0.5204750000000  0.5426780000000  0.4959210000000 1.0
C      1  0.5657380000000  0.4832910000000  0.5064960000000 1.0
C      1  0.5488870000000  0.5467850000000  0.5913580000000 1.0
C      1  0.5439930000000  0.5496220000000  0.4360000000000 1.0
C      1  0.4830760000000  0.4874770000000  0.5260400000000 1.0
C      1  0.5902620000000  0.4782240000000  0.4634150000000 1.0
C      1  0.4237800000000  0.4831070000000  0.4459890000000 1.0
C      1  0.5209290000000  0.6175570000000  0.4773690000000 1.0
C      1  0.4640980000000  0.4909280000000  0.4782870000000 1.0
C      1  0.5791130000000  0.4526330000000  0.5044820000000 1.0
C      1  0.5201360000000  0.5300740000000  0.5987850000000 1.0
C      1  0.4236190000000  0.5058950000000  0.5236180000000 1.0
C      1  0.6012190000000  0.5186970000000  0.4855000000000 1.0
C      1  0.4407180000000  0.4371470000000  0.4429220000000 1.0
C      1  0.5053410000000  0.6138920000000  0.5073660000000 1.0
C      1  0.5801190000000  0.5023310000000  0.4414730000000 1.0
C      1  0.4316240000000  0.5226480000000  0.4969450000000 1.0
C      1  0.4531850000000  0.5502070000000  0.5757420000000 1.0
C      1  0.5810310000000  0.4292810000000  0.4847820000000 1.0
C      1  0.4659930000000  0.5147980000000  0.4115120000000 1.0
C      1  0.4491570000000  0.6056560000000  0.5060580000000 1.0
C      1  0.5200860000000  0.5648900000000  0.4698980000000 1.0
C      1  0.4262160000000  0.5365000000000  0.4721070000000 1.0
C      1  0.4264680000000  0.5853000000000  0.4575730000000 1.0
C      1  0.4927160000000  0.4889400000000  0.5687540000000 1.0
C      1  0.4794130000000  0.5406230000000  0.4936460000000 1.0
C      1  0.4739260000000  0.5172050000000  0.6226650000000 1.0
C      1  0.5171820000000  0.5682870000000  0.5133590000000 1.0
C      1  0.4394760000000  0.5623620000000  0.5321440000000 1.0
C      1  0.5223960000000  0.5303290000000  0.4395650000000 1.0
C      1  0.4025580000000  0.5962320000000  0.4577970000000 1.0
C      1  0.4179330000000  0.4140250000000  0.4896410000000 1.0
C      1  0.5461940000000  0.5191820000000  0.5612850000000 1.0
C      1  0.4341500000000  0.4108810000000  0.5371970000000 1.0
C      1  0.5440630000000  0.4846800000000  0.5821110000000 1.0
C      1  0.4053590000000  0.5268930000000  0.4556910000000 1.0
C      1  0.4489520000000  0.5440860000000  0.4162580000000 1.0
C      1  0.5522660000000  0.4136330000000  0.5669360000000 1.0
C      1  0.4509470000000  0.4937900000000  0.5354230000000 1.0
C      1  0.4404070000000  0.4604650000000  0.5163570000000 1.0
C      1  0.5649000000000  0.4557190000000  0.4595400000000 1.0
C      1  0.5491430000000  0.5132350000000  0.6003240000000 1.0
C      1  0.4092330000000  0.5215680000000  0.5451940000000 1.0
C      1  0.4622090000000  0.5149460000000  0.4995850000000 1.0
C      1  0.6103160000000  0.5449100000000  0.4883000000000 1.0
C      1  0.5678080000000  0.5612720000000  0.5739710000000 1.0
C      1  0.4900300000000  0.4138360000000  0.5308750000000 1.0
C      1  0.5991020000000  0.4766730000000  0.5564550000000 1.0
C      1  0.4657180000000  0.4285900000000  0.4574390000000 1.0
C      1  0.5894020000000  0.5406990000000  0.5610330000000 1.0
C      1  0.4680210000000  0.4217120000000  0.5087210000000 1.0
C      1  0.5062290000000  0.3705350000000  0.4991640000000 1.0
C      1  0.5973820000000  0.4486190000000  0.4527120000000 1.0
C      1  0.4637300000000  0.5951610000000  0.4282900000000 1.0
C      1  0.5925610000000  0.5577850000000  0.5069590000000 1.0
C      1  0.4450870000000  0.4609010000000  0.5786600000000 1.0
C      1  0.5133510000000  0.4892080000000  0.4114800000000 1.0
C      1  0.4786310000000  0.5971950000000  0.4987610000000 1.0
C      1  0.4974350000000  0.5764240000000  0.4469630000000 1.0
C      1  0.4132710000000  0.4543240000000  0.4311240000000 1.0
C      1  0.5673600000000  0.4782850000000  0.4267650000000 1.0
C      1  0.4744890000000  0.5251780000000  0.5296640000000 1.0
C      1  0.4200570000000  0.5188330000000  0.5699890000000 1.0
C      1  0.5322840000000  0.5745490000000  0.4270110000000 1.0
END
