TITL C-2778429-3646-208 0.00337563970430191 125000 -1000.13984808578 0 0 175 (C1) n - 1
REM
REM in /home/nfs/bkarasulu/CARBON/AIRSS/Generating-Clusters/REBO/Only-C1/SD-CG/HFTN-CG
REM
REM
REM
REM
REM
REM ./C.cell (11c1c37f851c82e70ff6c80c92926a4b)
REM
REM compiler GCC version 9.2.1 20190827 (Red Hat 9.2.1-1)
REM options -cpp -mtune=generic -march=x86-64 -g -O0 -fpre-include=/usr/include/finclude/math-vector-fortran.h
REM seed -1451075059 949422288 -2062854932 1909499304 -1602888810 500967316 -1579575184 1810710625 -1354407668 777482158 -161251861 -990079751 1248924899 -1873443737 1531461134 124332825 -1242215855 1376015483 1504117945 -1047882650 1296360513 730255294 1220609868 -634351854 -1914457772 2108102347 1569940892 1587466256 -897221090 406543668 1811935057 -924725771 1282099039
REM
CELL 1.54180   50.00000   50.00000   50.00000   90.00000   90.00000   90.00000
LATT -1
SFAC C  
C      1  0.4336300000000  0.5008830000000  0.5869790000000 1.0
C      1  0.4736740000000  0.4330280000000  0.4843010000000 1.0
C      1  0.4832450000000  0.5939240000000  0.5436170000000 1.0
C      1  0.4920860000000  0.4304440000000  0.5395510000000 1.0
C      1  0.4778950000000  0.5881770000000  0.4831070000000 1.0
C      1  0.4455440000000  0.5169790000000  0.4627050000000 1.0
C      1  0.5501890000000  0.4155930000000  0.5445850000000 1.0
C      1  0.5362030000000  0.5554430000000  0.4165170000000 1.0
C      1  0.4449220000000  0.4716840000000  0.4934690000000 1.0
C      1  0.4874410000000  0.5347300000000  0.4265880000000 1.0
C      1  0.5929660000000  0.5597610000000  0.4770230000000 1.0
C      1  0.4552390000000  0.5820730000000  0.5556550000000 1.0
C      1  0.4949790000000  0.4118500000000  0.5666510000000 1.0
C      1  0.5023550000000  0.4436960000000  0.5099380000000 1.0
C      1  0.5220600000000  0.5397860000000  0.4504200000000 1.0
C      1  0.4027850000000  0.4880980000000  0.5654750000000 1.0
C      1  0.5668900000000  0.5197700000000  0.5782690000000 1.0
C      1  0.5776130000000  0.5482990000000  0.5624210000000 1.0
C      1  0.5615010000000  0.5707370000000  0.5490900000000 1.0
C      1  0.5613330000000  0.4291260000000  0.4642260000000 1.0
C      1  0.5122290000000  0.5209690000000  0.5532090000000 1.0
C      1  0.4496670000000  0.4983850000000  0.4365510000000 1.0
C      1  0.5078200000000  0.5612720000000  0.4209890000000 1.0
C      1  0.5474930000000  0.5026380000000  0.5132660000000 1.0
C      1  0.5365560000000  0.3956730000000  0.5206320000000 1.0
C      1  0.4994600000000  0.5553900000000  0.5107140000000 1.0
C      1  0.5030620000000  0.4472310000000  0.5989320000000 1.0
C      1  0.4966070000000  0.4573620000000  0.3986860000000 1.0
C      1  0.4355340000000  0.4386220000000  0.5539580000000 1.0
C      1  0.4977610000000  0.4322900000000  0.4124260000000 1.0
C      1  0.5076250000000  0.4815890000000  0.6156250000000 1.0
C      1  0.4480860000000  0.4709290000000  0.4079800000000 1.0
C      1  0.6092490000000  0.5130280000000  0.5280320000000 1.0
C      1  0.4611940000000  0.4825530000000  0.5914430000000 1.0
C      1  0.5126650000000  0.5020420000000  0.5918820000000 1.0
C      1  0.4776980000000  0.3946930000000  0.4930060000000 1.0
C      1  0.4297070000000  0.5179220000000  0.4071590000000 1.0
C      1  0.5712370000000  0.4265890000000  0.5028130000000 1.0
C      1  0.6087790000000  0.4997030000000  0.4966200000000 1.0
C      1  0.4850730000000  0.5262740000000  0.6077000000000 1.0
C      1  0.5258980000000  0.4941590000000  0.4434430000000 1.0
C      1  0.4804910000000  0.5622490000000  0.5677610000000 1.0
C      1  0.5760380000000  0.5433710000000  0.4448320000000 1.0
C      1  0.5469280000000  0.5285880000000  0.4449460000000 1.0
C      1  0.5038060000000  0.5940190000000  0.4401430000000 1.0
C      1  0.4701730000000  0.4975820000000  0.4767380000000 1.0
C      1  0.5278130000000  0.4056880000000  0.4416820000000 1.0
C      1  0.5150780000000  0.4233180000000  0.5837010000000 1.0
C      1  0.4638170000000  0.5498490000000  0.5338940000000 1.0
C      1  0.5679230000000  0.4636570000000  0.4338690000000 1.0
C      1  0.4996120000000  0.4061650000000  0.4700140000000 1.0
C      1  0.5924350000000  0.5313630000000  0.5404240000000 1.0
C      1  0.5607010000000  0.5367960000000  0.5282760000000 1.0
C      1  0.5343350000000  0.4614420000000  0.4342940000000 1.0
C      1  0.5279150000000  0.6001700000000  0.4998060000000 1.0
C      1  0.4241230000000  0.5155990000000  0.5288640000000 1.0
C      1  0.5314600000000  0.5643950000000  0.5500780000000 1.0
C      1  0.4464630000000  0.4772430000000  0.4629130000000 1.0
C      1  0.4788480000000  0.4793290000000  0.5557070000000 1.0
C      1  0.5152150000000  0.6002440000000  0.4725220000000 1.0
C      1  0.4120300000000  0.5540900000000  0.5352480000000 1.0
C      1  0.5809010000000  0.4705240000000  0.5502920000000 1.0
C      1  0.5480640000000  0.4044120000000  0.4604020000000 1.0
C      1  0.4020720000000  0.4914700000000  0.4783080000000 1.0
C      1  0.4588010000000  0.5326140000000  0.4134240000000 1.0
C      1  0.4692560000000  0.5328820000000  0.5782580000000 1.0
C      1  0.6034620000000  0.4796000000000  0.5306890000000 1.0
C      1  0.4777410000000  0.4876530000000  0.4282370000000 1.0
C      1  0.4512710000000  0.5598270000000  0.4313970000000 1.0
C      1  0.4535450000000  0.4139780000000  0.5421380000000 1.0
C      1  0.5629480000000  0.5139370000000  0.4215600000000 1.0
C      1  0.4548340000000  0.5751970000000  0.5129460000000 1.0
C      1  0.5181950000000  0.5064520000000  0.3998040000000 1.0
C      1  0.5614180000000  0.4617850000000  0.5838880000000 1.0
C      1  0.4569330000000  0.5021090000000  0.3975210000000 1.0
C      1  0.4285660000000  0.4720020000000  0.5712650000000 1.0
C      1  0.5543790000000  0.5895580000000  0.4988550000000 1.0
C      1  0.5251990000000  0.4299440000000  0.4247870000000 1.0
C      1  0.5444460000000  0.5273830000000  0.5559530000000 1.0
C      1  0.5419510000000  0.4182010000000  0.4972380000000 1.0
C      1  0.5834400000000  0.5531030000000  0.5086150000000 1.0
C      1  0.4390990000000  0.5309820000000  0.5773860000000 1.0
C      1  0.4320930000000  0.4624740000000  0.4357550000000 1.0
C      1  0.4162890000000  0.5191670000000  0.4756220000000 1.0
C      1  0.4541020000000  0.4511640000000  0.5800100000000 1.0
C      1  0.4370400000000  0.4395670000000  0.4986770000000 1.0
C      1  0.5013800000000  0.5671710000000  0.5412890000000 1.0
C      1  0.4201720000000  0.5927110000000  0.5050020000000 1.0
C      1  0.5186640000000  0.4779550000000  0.4704460000000 1.0
C      1  0.5328810000000  0.4632660000000  0.6023230000000 1.0
C      1  0.5749810000000  0.4895560000000  0.5775480000000 1.0
C      1  0.5669460000000  0.5391220000000  0.4834890000000 1.0
C      1  0.4671050000000  0.4214420000000  0.5694000000000 1.0
C      1  0.4871200000000  0.5587870000000  0.4482910000000 1.0
C      1  0.5278350000000  0.5482860000000  0.5776510000000 1.0
C      1  0.4708790000000  0.4566400000000  0.4291770000000 1.0
C      1  0.5160850000000  0.5121990000000  0.5131510000000 1.0
C      1  0.5392960000000  0.5568350000000  0.4818890000000 1.0
C      1  0.3994300000000  0.5021090000000  0.5105520000000 1.0
C      1  0.5817060000000  0.4487800000000  0.4546030000000 1.0
C      1  0.5274900000000  0.5428670000000  0.5235350000000 1.0
C      1  0.4827430000000  0.4417070000000  0.4571720000000 1.0
C      1  0.5549130000000  0.4897460000000  0.5422310000000 1.0
C      1  0.4547290000000  0.5422720000000  0.4909110000000 1.0
C      1  0.4940390000000  0.4088130000000  0.4377500000000 1.0
C      1  0.5240330000000  0.4651100000000  0.5705490000000 1.0
C      1  0.5550720000000  0.4905010000000  0.4603700000000 1.0
C      1  0.5987090000000  0.5317810000000  0.4595240000000 1.0
C      1  0.4482870000000  0.4102960000000  0.4852670000000 1.0
C      1  0.5641710000000  0.5761190000000  0.4688160000000 1.0
C      1  0.5014820000000  0.4979160000000  0.4857360000000 1.0
C      1  0.5516110000000  0.4644900000000  0.5237710000000 1.0
C      1  0.4159630000000  0.4985120000000  0.4304210000000 1.0
C      1  0.4178590000000  0.5144100000000  0.5583860000000 1.0
C      1  0.4501690000000  0.4750590000000  0.5469230000000 1.0
C      1  0.4708820000000  0.5852580000000  0.4368180000000 1.0
C      1  0.3935720000000  0.5356220000000  0.5136530000000 1.0
C      1  0.4856240000000  0.6128650000000  0.4614990000000 1.0
C      1  0.4542830000000  0.5996060000000  0.4617780000000 1.0
C      1  0.6137310000000  0.4662240000000  0.5015500000000 1.0
C      1  0.3993030000000  0.5656090000000  0.4741360000000 1.0
C      1  0.4593850000000  0.5143800000000  0.5000010000000 1.0
C      1  0.5006080000000  0.5282710000000  0.4713590000000 1.0
C      1  0.4290210000000  0.5836540000000  0.5335370000000 1.0
C      1  0.5680910000000  0.5771610000000  0.5214820000000 1.0
C      1  0.5750190000000  0.4432990000000  0.5212310000000 1.0
C      1  0.5020960000000  0.5077600000000  0.4287830000000 1.0
C      1  0.5281660000000  0.4349650000000  0.5561860000000 1.0
C      1  0.4325420000000  0.5419370000000  0.5108010000000 1.0
C      1  0.4932830000000  0.4517470000000  0.5660900000000 1.0
C      1  0.5232910000000  0.5721640000000  0.4573640000000 1.0
C      1  0.4389090000000  0.5521120000000  0.5551840000000 1.0
C      1  0.5430070000000  0.3861640000000  0.4876670000000 1.0
C      1  0.5927160000000  0.4694960000000  0.4762830000000 1.0
C      1  0.4349180000000  0.4323930000000  0.4412570000000 1.0
C      1  0.4650560000000  0.4243120000000  0.4341870000000 1.0
C      1  0.5016560000000  0.4759430000000  0.5355340000000 1.0
C      1  0.4239520000000  0.4285660000000  0.4699640000000 1.0
C      1  0.5326740000000  0.4894870000000  0.5597190000000 1.0
C      1  0.5672950000000  0.4407640000000  0.5597950000000 1.0
C      1  0.5794090000000  0.4932050000000  0.5109090000000 1.0
C      1  0.5645840000000  0.4706790000000  0.4941850000000 1.0
C      1  0.4662150000000  0.5173140000000  0.5264960000000 1.0
C      1  0.5564710000000  0.5664500000000  0.4366910000000 1.0
C      1  0.5986940000000  0.5008870000000  0.4641340000000 1.0
C      1  0.4015440000000  0.5411790000000  0.4856360000000 1.0
C      1  0.5110980000000  0.3902680000000  0.4981480000000 1.0
C      1  0.5292950000000  0.5267530000000  0.4872330000000 1.0
C      1  0.4777940000000  0.5978410000000  0.5117990000000 1.0
C      1  0.4342720000000  0.5570240000000  0.4565570000000 1.0
C      1  0.4392960000000  0.5780150000000  0.4822240000000 1.0
C      1  0.4881580000000  0.4904170000000  0.3957190000000 1.0
C      1  0.5089790000000  0.6011280000000  0.5216700000000 1.0
C      1  0.5374260000000  0.5124890000000  0.5920950000000 1.0
C      1  0.4826270000000  0.5554000000000  0.4818610000000 1.0
C      1  0.4891380000000  0.5292150000000  0.5438280000000 1.0
C      1  0.5474530000000  0.4593440000000  0.4719980000000 1.0
C      1  0.4484060000000  0.4502140000000  0.5267090000000 1.0
C      1  0.5789530000000  0.4930050000000  0.4375000000000 1.0
C      1  0.5122530000000  0.4485280000000  0.4586310000000 1.0
C      1  0.5410780000000  0.5275990000000  0.4055230000000 1.0
C      1  0.5570200000000  0.5098430000000  0.4823660000000 1.0
C      1  0.4351610000000  0.4873260000000  0.5204790000000 1.0
C      1  0.4725550000000  0.4566390000000  0.5053000000000 1.0
C      1  0.4807540000000  0.4974340000000  0.6149600000000 1.0
C      1  0.5167490000000  0.4306970000000  0.4861100000000 1.0
C      1  0.4844640000000  0.5027710000000  0.5756710000000 1.0
C      1  0.5226720000000  0.4733180000000  0.4046070000000 1.0
C      1  0.5233290000000  0.4551650000000  0.5318240000000 1.0
C      1  0.5024930000000  0.5497010000000  0.5907130000000 1.0
C      1  0.4085610000000  0.4691160000000  0.5095380000000 1.0
C      1  0.4721540000000  0.4182330000000  0.5159480000000 1.0
C      1  0.4079180000000  0.4574440000000  0.4780790000000 1.0
C      1  0.4256120000000  0.5302450000000  0.4386370000000 1.0
C      1  0.4053890000000  0.4763610000000  0.4498020000000 1.0
END
