TITL C-2778422-5617-1266 0.00331785443602015 125000 -449.733159971483 0 0 78 (C1) n - 1
REM
REM in /home/nfs/bkarasulu/CARBON/AIRSS/Generating-Clusters/REBO/Only-C1/SD-CG/HFTN-CG
REM
REM
REM
REM
REM
REM ./C.cell (11c1c37f851c82e70ff6c80c92926a4b)
REM
REM compiler GCC version 9.2.1 20190827 (Red Hat 9.2.1-1)
REM options -cpp -mtune=generic -march=x86-64 -g -O0 -fpre-include=/usr/include/finclude/math-vector-fortran.h
REM seed 1214798335 -982042437 132797711 -813610246 -1842516521 1754006390 1325304279 -700882890 -1857129617 -1882779922 -855922188 -2090672201 1337861820 1337745185 714703888 1576633980 -985850156 230619282 -1937677267 2123874148 -1426980411 210975902 -1206515316 -827731937 1573968280 -870379828 -268240665 -662004307 1772174790 -224059195 1424940681 1127754135 -1348955400
REM
CELL 1.54180   50.00000   50.00000   50.00000   90.00000   90.00000   90.00000
LATT -1
SFAC C  
C      1  0.4407620000000  0.5508620000000  0.4818490000000 1.0
C      1  0.5099620000000  0.5185740000000  0.5512870000000 1.0
C      1  0.4685690000000  0.4428500000000  0.5304800000000 1.0
C      1  0.4481640000000  0.4639590000000  0.5329550000000 1.0
C      1  0.5498770000000  0.5100010000000  0.5496400000000 1.0
C      1  0.5230620000000  0.4394360000000  0.5466490000000 1.0
C      1  0.4550960000000  0.5138170000000  0.5489540000000 1.0
C      1  0.5509000000000  0.4340420000000  0.4649090000000 1.0
C      1  0.5394020000000  0.4595560000000  0.5577690000000 1.0
C      1  0.5336160000000  0.4867670000000  0.5684480000000 1.0
C      1  0.4660850000000  0.4816670000000  0.4729510000000 1.0
C      1  0.5216290000000  0.4258570000000  0.4686530000000 1.0
C      1  0.5617920000000  0.5082520000000  0.4655520000000 1.0
C      1  0.4320960000000  0.4750000000000  0.5128670000000 1.0
C      1  0.5222100000000  0.5048390000000  0.4270900000000 1.0
C      1  0.4603590000000  0.4848240000000  0.5536920000000 1.0
C      1  0.5562040000000  0.4789510000000  0.5365700000000 1.0
C      1  0.4474420000000  0.5471450000000  0.5479570000000 1.0
C      1  0.4686940000000  0.4549920000000  0.4572710000000 1.0
C      1  0.4218810000000  0.5281480000000  0.5087740000000 1.0
C      1  0.5698360000000  0.5027290000000  0.4937220000000 1.0
C      1  0.4817110000000  0.4569110000000  0.4305720000000 1.0
C      1  0.4880280000000  0.4770910000000  0.5354270000000 1.0
C      1  0.5506900000000  0.4479210000000  0.4367390000000 1.0
C      1  0.4831880000000  0.5306860000000  0.5524490000000 1.0
C      1  0.5743720000000  0.4698770000000  0.4971950000000 1.0
C      1  0.5200330000000  0.4872360000000  0.4751980000000 1.0
C      1  0.5477330000000  0.4724230000000  0.4756210000000 1.0
C      1  0.4257950000000  0.5036450000000  0.4591260000000 1.0
C      1  0.4893050000000  0.5445460000000  0.4728700000000 1.0
C      1  0.5108630000000  0.4315380000000  0.5002920000000 1.0
C      1  0.4745350000000  0.5350500000000  0.5212290000000 1.0
C      1  0.5419100000000  0.5487340000000  0.5085090000000 1.0
C      1  0.4692490000000  0.4294920000000  0.4694160000000 1.0
C      1  0.5142310000000  0.4719200000000  0.4473510000000 1.0
C      1  0.5351280000000  0.4307990000000  0.5185520000000 1.0
C      1  0.4703580000000  0.5653510000000  0.5196250000000 1.0
C      1  0.4326500000000  0.5529670000000  0.5237380000000 1.0
C      1  0.5623640000000  0.4495910000000  0.5270980000000 1.0
C      1  0.5239720000000  0.5686560000000  0.5620850000000 1.0
C      1  0.4965360000000  0.5224410000000  0.4410930000000 1.0
C      1  0.4739060000000  0.5650240000000  0.4645490000000 1.0
C      1  0.4946970000000  0.4414040000000  0.5513430000000 1.0
C      1  0.4392190000000  0.5056960000000  0.4381330000000 1.0
C      1  0.4734390000000  0.5013280000000  0.4997640000000 1.0
C      1  0.4864630000000  0.4697320000000  0.5682920000000 1.0
C      1  0.5227330000000  0.5223780000000  0.5019420000000 1.0
C      1  0.4712960000000  0.5110270000000  0.4612220000000 1.0
C      1  0.5592410000000  0.4388730000000  0.4958780000000 1.0
C      1  0.5372430000000  0.4946040000000  0.5151450000000 1.0
C      1  0.4494250000000  0.5141830000000  0.5167130000000 1.0
C      1  0.4935720000000  0.5824880000000  0.5281040000000 1.0
C      1  0.5049760000000  0.4413760000000  0.4475800000000 1.0
C      1  0.4692610000000  0.5087300000000  0.4249250000000 1.0
C      1  0.4975050000000  0.5776430000000  0.5562700000000 1.0
C      1  0.4516210000000  0.5314680000000  0.4715860000000 1.0
C      1  0.5175390000000  0.5429240000000  0.4597360000000 1.0
C      1  0.4937940000000  0.4538520000000  0.5112670000000 1.0
C      1  0.5672160000000  0.4827000000000  0.4475030000000 1.0
C      1  0.5021110000000  0.4845110000000  0.4990750000000 1.0
C      1  0.4933110000000  0.4866160000000  0.4242650000000 1.0
C      1  0.4205080000000  0.5005490000000  0.4927020000000 1.0
C      1  0.5214650000000  0.5630030000000  0.4871000000000 1.0
C      1  0.4453070000000  0.5760540000000  0.5028230000000 1.0
C      1  0.5421140000000  0.5606240000000  0.5367460000000 1.0
C      1  0.4935880000000  0.5268350000000  0.4970300000000 1.0
C      1  0.4997970000000  0.5816870000000  0.4981130000000 1.0
C      1  0.5767440000000  0.4569160000000  0.4653860000000 1.0
C      1  0.5586000000000  0.5206600000000  0.5181950000000 1.0
C      1  0.4724820000000  0.5849070000000  0.4849160000000 1.0
C      1  0.5315440000000  0.5146730000000  0.4584180000000 1.0
C      1  0.5346030000000  0.5368040000000  0.5585900000000 1.0
C      1  0.5092060000000  0.4870240000000  0.5812500000000 1.0
C      1  0.4751030000000  0.5598120000000  0.5631600000000 1.0
C      1  0.5096780000000  0.4977890000000  0.5302660000000 1.0
C      1  0.5417100000000  0.4770030000000  0.4290310000000 1.0
C      1  0.4376620000000  0.4737990000000  0.4820550000000 1.0
C      1  0.4910320000000  0.4161570000000  0.4787090000000 1.0
END
