TITL C-2778422-5617-504 -0.00576594414385098 125000 -877.375722259687 0 0 152 (C1) n - 1
REM
REM in /home/nfs/bkarasulu/CARBON/AIRSS/Generating-Clusters/REBO/Only-C1/SD-CG/HFTN-CG
REM
REM
REM
REM
REM
REM ./C.cell (11c1c37f851c82e70ff6c80c92926a4b)
REM
REM compiler GCC version 9.2.1 20190827 (Red Hat 9.2.1-1)
REM options -cpp -mtune=generic -march=x86-64 -g -O0 -fpre-include=/usr/include/finclude/math-vector-fortran.h
REM seed -679449 1730973863 -1948966993 1499581984 -294081014 990544775 1205784652 -530809131 -1037365772 -1308099412 1324582734 -1722138553 -958093075 -92083168 -175106435 1256525926 -1597909209 2142717880 907711876 -282337266 -742425759 707665633 -37799977 -1174631515 -1674899321 410109432 813685776 -44415301 -600213694 -943211882 -1325089828 1155763242 -1993963177
REM
CELL 1.54180   50.00000   50.00000   50.00000   90.00000   90.00000   90.00000
LATT -1
SFAC C  
C      1  0.4279000000000  0.4907450000000  0.4566990000000 1.0
C      1  0.5384550000000  0.5930020000000  0.4943400000000 1.0
C      1  0.4258410000000  0.4325300000000  0.5296400000000 1.0
C      1  0.5285700000000  0.4419280000000  0.4893260000000 1.0
C      1  0.5531440000000  0.5845740000000  0.5173360000000 1.0
C      1  0.5194800000000  0.4229180000000  0.4199650000000 1.0
C      1  0.5849530000000  0.5117410000000  0.5514500000000 1.0
C      1  0.5106000000000  0.5972310000000  0.4977770000000 1.0
C      1  0.5339600000000  0.5411600000000  0.5844580000000 1.0
C      1  0.4144200000000  0.5085560000000  0.5136150000000 1.0
C      1  0.4214870000000  0.5615040000000  0.4783690000000 1.0
C      1  0.5526060000000  0.4425000000000  0.5631800000000 1.0
C      1  0.5215560000000  0.4844770000000  0.5710200000000 1.0
C      1  0.6011590000000  0.4633460000000  0.5062510000000 1.0
C      1  0.5749780000000  0.5623570000000  0.4626830000000 1.0
C      1  0.5926950000000  0.5720800000000  0.4435280000000 1.0
C      1  0.5403660000000  0.4929690000000  0.5980230000000 1.0
C      1  0.4962880000000  0.6005610000000  0.5216280000000 1.0
C      1  0.4355760000000  0.4805950000000  0.5776910000000 1.0
C      1  0.5600650000000  0.4252210000000  0.4487950000000 1.0
C      1  0.4968590000000  0.4503820000000  0.5472380000000 1.0
C      1  0.4652570000000  0.4578050000000  0.4845850000000 1.0
C      1  0.5298440000000  0.5677600000000  0.4182130000000 1.0
C      1  0.4615560000000  0.5320960000000  0.5900370000000 1.0
C      1  0.5542010000000  0.5177510000000  0.5244350000000 1.0
C      1  0.5630500000000  0.5298660000000  0.5708170000000 1.0
C      1  0.4817410000000  0.4546890000000  0.6157470000000 1.0
C      1  0.4713770000000  0.5005310000000  0.4005000000000 1.0
C      1  0.4807760000000  0.5310780000000  0.4863100000000 1.0
C      1  0.4269760000000  0.5843790000000  0.5363210000000 1.0
C      1  0.4866720000000  0.4322500000000  0.5731350000000 1.0
C      1  0.5029170000000  0.4892210000000  0.4221520000000 1.0
C      1  0.4842820000000  0.5423760000000  0.4196370000000 1.0
C      1  0.5195740000000  0.5534840000000  0.5351500000000 1.0
C      1  0.4620520000000  0.4895210000000  0.4791260000000 1.0
C      1  0.5142850000000  0.5791030000000  0.5501510000000 1.0
C      1  0.4796820000000  0.5533930000000  0.5325130000000 1.0
C      1  0.4359170000000  0.5148280000000  0.5738260000000 1.0
C      1  0.5933380000000  0.5135500000000  0.5184540000000 1.0
C      1  0.4488160000000  0.4470540000000  0.4387850000000 1.0
C      1  0.4856830000000  0.4870770000000  0.6121660000000 1.0
C      1  0.5845880000000  0.4504460000000  0.5282710000000 1.0
C      1  0.5063860000000  0.5585490000000  0.5927640000000 1.0
C      1  0.5226880000000  0.5293390000000  0.4477400000000 1.0
C      1  0.5613210000000  0.5606480000000  0.5593200000000 1.0
C      1  0.5030030000000  0.4421170000000  0.4104270000000 1.0
C      1  0.4548730000000  0.4968070000000  0.6012760000000 1.0
C      1  0.5029860000000  0.4172850000000  0.5488540000000 1.0
C      1  0.5815880000000  0.5373870000000  0.4763260000000 1.0
C      1  0.4743530000000  0.5086410000000  0.5019030000000 1.0
C      1  0.4565320000000  0.4636340000000  0.5986420000000 1.0
C      1  0.4951900000000  0.5007960000000  0.3846900000000 1.0
C      1  0.4945110000000  0.4335240000000  0.6027930000000 1.0
C      1  0.4746660000000  0.4044090000000  0.5055450000000 1.0
C      1  0.4180320000000  0.5576370000000  0.5313110000000 1.0
C      1  0.4035800000000  0.5402540000000  0.4668150000000 1.0
C      1  0.6053050000000  0.4931000000000  0.4651340000000 1.0
C      1  0.4615610000000  0.4799210000000  0.5473170000000 1.0
C      1  0.4254050000000  0.5397000000000  0.5521680000000 1.0
C      1  0.5372280000000  0.4745220000000  0.4830080000000 1.0
C      1  0.4732170000000  0.5081560000000  0.5596220000000 1.0
C      1  0.4529020000000  0.5901790000000  0.5466980000000 1.0
C      1  0.5470430000000  0.5796150000000  0.4665710000000 1.0
C      1  0.4677910000000  0.5710250000000  0.5666230000000 1.0
C      1  0.4322560000000  0.4541650000000  0.5552180000000 1.0
C      1  0.5557510000000  0.4660480000000  0.5310310000000 1.0
C      1  0.4288080000000  0.4811620000000  0.5386780000000 1.0
C      1  0.6132200000000  0.5102600000000  0.5646580000000 1.0
C      1  0.5010590000000  0.5334390000000  0.5210030000000 1.0
C      1  0.4077620000000  0.5305690000000  0.4413280000000 1.0
C      1  0.6034270000000  0.4931520000000  0.4991680000000 1.0
C      1  0.4904960000000  0.5050280000000  0.5853370000000 1.0
C      1  0.4909560000000  0.5024200000000  0.5311880000000 1.0
C      1  0.4941610000000  0.5259040000000  0.4633110000000 1.0
C      1  0.4475840000000  0.4586440000000  0.3818770000000 1.0
C      1  0.5787540000000  0.5102700000000  0.4680520000000 1.0
C      1  0.4986080000000  0.4939470000000  0.4555480000000 1.0
C      1  0.4402540000000  0.4128660000000  0.4819200000000 1.0
C      1  0.4448990000000  0.5632690000000  0.4327790000000 1.0
C      1  0.4110770000000  0.5481060000000  0.5051380000000 1.0
C      1  0.5167960000000  0.4982290000000  0.4809260000000 1.0
C      1  0.4671250000000  0.4307100000000  0.4873740000000 1.0
C      1  0.4961360000000  0.5760950000000  0.5721540000000 1.0
C      1  0.4260460000000  0.5062730000000  0.4268000000000 1.0
C      1  0.4840980000000  0.5427620000000  0.6038340000000 1.0
C      1  0.4629180000000  0.4532210000000  0.5683370000000 1.0
C      1  0.5038160000000  0.4611090000000  0.4501660000000 1.0
C      1  0.5692670000000  0.5620730000000  0.5113390000000 1.0
C      1  0.5130440000000  0.5198740000000  0.5866020000000 1.0
C      1  0.4629520000000  0.4729150000000  0.5154640000000 1.0
C      1  0.5089970000000  0.4340520000000  0.4664820000000 1.0
C      1  0.4392470000000  0.4903800000000  0.5013020000000 1.0
C      1  0.5788080000000  0.4485910000000  0.4321490000000 1.0
C      1  0.5446110000000  0.5829660000000  0.5453070000000 1.0
C      1  0.4582030000000  0.4721090000000  0.4038190000000 1.0
C      1  0.4124840000000  0.4758650000000  0.5126180000000 1.0
C      1  0.5481830000000  0.5385800000000  0.4982180000000 1.0
C      1  0.5873150000000  0.5385110000000  0.5053640000000 1.0
C      1  0.3978750000000  0.5200390000000  0.4899600000000 1.0
C      1  0.5487420000000  0.4661700000000  0.5797310000000 1.0
C      1  0.5327040000000  0.4115920000000  0.4411620000000 1.0
C      1  0.4047980000000  0.4896620000000  0.4762550000000 1.0
C      1  0.4706430000000  0.5162650000000  0.4250350000000 1.0
C      1  0.4948680000000  0.5845040000000  0.4780930000000 1.0
C      1  0.5406580000000  0.4886790000000  0.4069070000000 1.0
C      1  0.5325530000000  0.5888230000000  0.4402570000000 1.0
C      1  0.4327730000000  0.5396500000000  0.4246190000000 1.0
C      1  0.5062070000000  0.4781050000000  0.5500860000000 1.0
C      1  0.5325490000000  0.4715020000000  0.4416920000000 1.0
C      1  0.4508550000000  0.4187390000000  0.4531700000000 1.0
C      1  0.5104460000000  0.5642670000000  0.4624890000000 1.0
C      1  0.5309710000000  0.5042260000000  0.4346990000000 1.0
C      1  0.3963540000000  0.4603130000000  0.4912320000000 1.0
C      1  0.5018630000000  0.3890820000000  0.4917860000000 1.0
C      1  0.5000700000000  0.4676110000000  0.4996820000000 1.0
C      1  0.4185010000000  0.5096770000000  0.5456510000000 1.0
C      1  0.5853010000000  0.4626850000000  0.4807110000000 1.0
C      1  0.4632190000000  0.5390560000000  0.5573030000000 1.0
C      1  0.4685130000000  0.5887550000000  0.4677860000000 1.0
C      1  0.5117570000000  0.5467550000000  0.4250440000000 1.0
C      1  0.5626310000000  0.4967360000000  0.5724710000000 1.0
C      1  0.5384770000000  0.5476540000000  0.4694600000000 1.0
C      1  0.4715010000000  0.5601130000000  0.4031130000000 1.0
C      1  0.4853890000000  0.4483870000000  0.5181090000000 1.0
C      1  0.4440030000000  0.4155460000000  0.5156010000000 1.0
C      1  0.5783850000000  0.4303430000000  0.5031800000000 1.0
C      1  0.5352920000000  0.4442100000000  0.5384020000000 1.0
C      1  0.4896160000000  0.4666520000000  0.4109020000000 1.0
C      1  0.5665620000000  0.4856720000000  0.4810180000000 1.0
C      1  0.5171500000000  0.4355210000000  0.5162810000000 1.0
C      1  0.4768790000000  0.5815650000000  0.5293650000000 1.0
C      1  0.5167030000000  0.4960170000000  0.6184920000000 1.0
C      1  0.5040600000000  0.4058840000000  0.5202360000000 1.0
C      1  0.5517690000000  0.4553330000000  0.4601850000000 1.0
C      1  0.5449570000000  0.4912870000000  0.5248050000000 1.0
C      1  0.4991210000000  0.5828830000000  0.4384140000000 1.0
C      1  0.4838570000000  0.4140490000000  0.4530110000000 1.0
C      1  0.4020330000000  0.4375830000000  0.5128490000000 1.0
C      1  0.5111950000000  0.4004240000000  0.4648310000000 1.0
C      1  0.5216290000000  0.4932550000000  0.3863660000000 1.0
C      1  0.5456850000000  0.5437360000000  0.5378030000000 1.0
C      1  0.5173520000000  0.4902470000000  0.5136680000000 1.0
C      1  0.5969610000000  0.4629870000000  0.4514250000000 1.0
C      1  0.4590760000000  0.5031030000000  0.4489650000000 1.0
C      1  0.5788350000000  0.4374320000000  0.5560950000000 1.0
C      1  0.4789820000000  0.4442810000000  0.4423320000000 1.0
C      1  0.5189660000000  0.5260970000000  0.4966040000000 1.0
C      1  0.5598620000000  0.4309400000000  0.4823480000000 1.0
C      1  0.5580710000000  0.4652990000000  0.4193970000000 1.0
C      1  0.4415560000000  0.5734260000000  0.4628580000000 1.0
C      1  0.4392280000000  0.4748670000000  0.4287690000000 1.0
C      1  0.4691800000000  0.5828750000000  0.4359120000000 1.0
END
