TITL C-2778432-5617-69 0.00245273301686926 125000 -1156.08836782492 0 0 200 (C1) n - 1
REM
REM in /home/nfs/bkarasulu/CARBON/AIRSS/Generating-Clusters/REBO/Only-C1/SD-CG/HFTN-CG
REM
REM
REM
REM
REM
REM ./C.cell (11c1c37f851c82e70ff6c80c92926a4b)
REM
REM compiler GCC version 9.2.1 20190827 (Red Hat 9.2.1-1)
REM options -cpp -mtune=generic -march=x86-64 -g -O0 -fpre-include=/usr/include/finclude/math-vector-fortran.h
REM seed -250039854 -2075650353 -1696810034 -1684909186 846717824 -384520218 -1066784635 -712347723 1809669308 1734560586 -743269237 1217323278 -1287618394 1888167196 931136597 1197202228 335355305 1152770754 -1025015913 79346673 -1591427323 -1014940181 2085995720 76466989 -1442413063 -135871784 -1511961168 -1450547655 1749552146 -778650366 -1068256360 -426639374 -1234486797
REM
CELL 1.54180   50.00000   50.00000   50.00000   90.00000   90.00000   90.00000
LATT -1
SFAC C  
C      1  0.4155080000000  0.5728710000000  0.4760870000000 1.0
C      1  0.4533740000000  0.4327700000000  0.4735220000000 1.0
C      1  0.6013030000000  0.5481730000000  0.5294740000000 1.0
C      1  0.4587260000000  0.5293290000000  0.4957790000000 1.0
C      1  0.4330070000000  0.4854220000000  0.4621130000000 1.0
C      1  0.4551490000000  0.4636410000000  0.4692070000000 1.0
C      1  0.4368790000000  0.5073420000000  0.4003800000000 1.0
C      1  0.4921930000000  0.5386260000000  0.4234760000000 1.0
C      1  0.4407520000000  0.4481310000000  0.5342090000000 1.0
C      1  0.4013790000000  0.4253800000000  0.4946590000000 1.0
C      1  0.4441820000000  0.5193940000000  0.5789270000000 1.0
C      1  0.6125060000000  0.4991170000000  0.5449190000000 1.0
C      1  0.5411740000000  0.5534150000000  0.4525370000000 1.0
C      1  0.4306650000000  0.5468800000000  0.5700880000000 1.0
C      1  0.4537100000000  0.4507760000000  0.3963230000000 1.0
C      1  0.5694160000000  0.4855910000000  0.4398570000000 1.0
C      1  0.3797350000000  0.4512690000000  0.4927620000000 1.0
C      1  0.5082500000000  0.4392530000000  0.4947120000000 1.0
C      1  0.5009570000000  0.4584440000000  0.4490730000000 1.0
C      1  0.4576490000000  0.4923360000000  0.5929500000000 1.0
C      1  0.5567990000000  0.5811410000000  0.5214780000000 1.0
C      1  0.5825660000000  0.5257760000000  0.5428350000000 1.0
C      1  0.5292170000000  0.4874910000000  0.4836600000000 1.0
C      1  0.4603550000000  0.4676820000000  0.4390880000000 1.0
C      1  0.5079800000000  0.5036890000000  0.5532620000000 1.0
C      1  0.5046350000000  0.5341400000000  0.5415630000000 1.0
C      1  0.5676680000000  0.4794810000000  0.5242700000000 1.0
C      1  0.5594300000000  0.4208290000000  0.4623740000000 1.0
C      1  0.5474750000000  0.5208360000000  0.5609740000000 1.0
C      1  0.5774000000000  0.4533210000000  0.5386660000000 1.0
C      1  0.4119980000000  0.5189630000000  0.4641360000000 1.0
C      1  0.5384620000000  0.4730790000000  0.5659650000000 1.0
C      1  0.6160370000000  0.5176130000000  0.4751410000000 1.0
C      1  0.5508820000000  0.5075840000000  0.5013660000000 1.0
C      1  0.5444510000000  0.5195360000000  0.4320510000000 1.0
C      1  0.5141040000000  0.5095780000000  0.5804300000000 1.0
C      1  0.5841450000000  0.5057340000000  0.4709730000000 1.0
C      1  0.4970250000000  0.3793160000000  0.5369620000000 1.0
C      1  0.4878890000000  0.4320990000000  0.5527790000000 1.0
C      1  0.5290040000000  0.5382690000000  0.4080300000000 1.0
C      1  0.4329460000000  0.4991880000000  0.4308440000000 1.0
C      1  0.5422530000000  0.4002850000000  0.4919320000000 1.0
C      1  0.5562500000000  0.4476030000000  0.5619060000000 1.0
C      1  0.4368330000000  0.3965460000000  0.4735360000000 1.0
C      1  0.5340500000000  0.5952240000000  0.5644800000000 1.0
C      1  0.5527080000000  0.4517360000000  0.5962510000000 1.0
C      1  0.5435280000000  0.4173620000000  0.5545360000000 1.0
C      1  0.5834260000000  0.5167860000000  0.4393460000000 1.0
C      1  0.4747230000000  0.5110800000000  0.4750810000000 1.0
C      1  0.5539210000000  0.4556070000000  0.4809410000000 1.0
C      1  0.5576120000000  0.4956990000000  0.5715200000000 1.0
C      1  0.5044750000000  0.4707120000000  0.5004460000000 1.0
C      1  0.4757980000000  0.4639000000000  0.5479400000000 1.0
C      1  0.5267260000000  0.5939510000000  0.5317590000000 1.0
C      1  0.4631980000000  0.5588970000000  0.4887380000000 1.0
C      1  0.5693720000000  0.5236210000000  0.5994740000000 1.0
C      1  0.5560970000000  0.5026780000000  0.6111280000000 1.0
C      1  0.5186320000000  0.6148460000000  0.4962470000000 1.0
C      1  0.5149680000000  0.5307620000000  0.6013940000000 1.0
C      1  0.4053620000000  0.4818140000000  0.4336350000000 1.0
C      1  0.4236380000000  0.5326590000000  0.4110480000000 1.0
C      1  0.4201290000000  0.5587550000000  0.5419400000000 1.0
C      1  0.4859910000000  0.3994300000000  0.4356520000000 1.0
C      1  0.5213620000000  0.3969370000000  0.5112480000000 1.0
C      1  0.5589820000000  0.5287720000000  0.4685340000000 1.0
C      1  0.5002110000000  0.4180680000000  0.5276520000000 1.0
C      1  0.4156890000000  0.4146210000000  0.4683650000000 1.0
C      1  0.4841450000000  0.5836610000000  0.4937330000000 1.0
C      1  0.5675750000000  0.5448050000000  0.4331680000000 1.0
C      1  0.4572770000000  0.5904710000000  0.5514250000000 1.0
C      1  0.6189670000000  0.5233740000000  0.5264520000000 1.0
C      1  0.4929200000000  0.5437750000000  0.5105670000000 1.0
C      1  0.5109760000000  0.3858990000000  0.4519130000000 1.0
C      1  0.5837170000000  0.5677490000000  0.5113320000000 1.0
C      1  0.4182950000000  0.4242270000000  0.5241970000000 1.0
C      1  0.5241160000000  0.6061300000000  0.4634830000000 1.0
C      1  0.4714840000000  0.5629100000000  0.5984020000000 1.0
C      1  0.4567710000000  0.4833900000000  0.4967920000000 1.0
C      1  0.5137820000000  0.5757870000000  0.4908250000000 1.0
C      1  0.4407500000000  0.5851440000000  0.4568620000000 1.0
C      1  0.4610300000000  0.3918310000000  0.4969590000000 1.0
C      1  0.5862290000000  0.4422830000000  0.4815100000000 1.0
C      1  0.4664100000000  0.4655920000000  0.5807930000000 1.0
C      1  0.5829960000000  0.5153980000000  0.5097250000000 1.0
C      1  0.4178520000000  0.4302460000000  0.4456870000000 1.0
C      1  0.5028210000000  0.4320830000000  0.5801880000000 1.0
C      1  0.5161540000000  0.4697440000000  0.5810930000000 1.0
C      1  0.5886640000000  0.5403950000000  0.4924710000000 1.0
C      1  0.5544370000000  0.5893040000000  0.4635710000000 1.0
C      1  0.4269760000000  0.5062480000000  0.5304240000000 1.0
C      1  0.5497390000000  0.5693200000000  0.5527410000000 1.0
C      1  0.4936140000000  0.5789460000000  0.4535610000000 1.0
C      1  0.5011000000000  0.5716380000000  0.5282840000000 1.0
C      1  0.4283670000000  0.4456690000000  0.4924880000000 1.0
C      1  0.6274540000000  0.5180220000000  0.4996530000000 1.0
C      1  0.4064330000000  0.4921510000000  0.5134530000000 1.0
C      1  0.5376170000000  0.4498860000000  0.5079800000000 1.0
C      1  0.5082990000000  0.4857340000000  0.6093420000000 1.0
C      1  0.5507240000000  0.5204630000000  0.5315740000000 1.0
C      1  0.4167380000000  0.4636320000000  0.5629660000000 1.0
C      1  0.5429090000000  0.5917020000000  0.4952520000000 1.0
C      1  0.4881380000000  0.5209410000000  0.3965020000000 1.0
C      1  0.4971900000000  0.5495930000000  0.5709910000000 1.0
C      1  0.5019650000000  0.5718370000000  0.5935700000000 1.0
C      1  0.5220790000000  0.4732140000000  0.4289290000000 1.0
C      1  0.5197190000000  0.5922930000000  0.5871150000000 1.0
C      1  0.5839720000000  0.5251390000000  0.5766360000000 1.0
C      1  0.4813050000000  0.5796180000000  0.4237940000000 1.0
C      1  0.4063310000000  0.5311340000000  0.4329960000000 1.0
C      1  0.4447500000000  0.4487470000000  0.5680040000000 1.0
C      1  0.6052830000000  0.4687820000000  0.4912740000000 1.0
C      1  0.4768630000000  0.5238630000000  0.5782480000000 1.0
C      1  0.4646960000000  0.4062430000000  0.4600940000000 1.0
C      1  0.4615450000000  0.5014870000000  0.3878110000000 1.0
C      1  0.5135990000000  0.5053880000000  0.5155330000000 1.0
C      1  0.4914610000000  0.3816770000000  0.5060800000000 1.0
C      1  0.5936990000000  0.4964300000000  0.5675850000000 1.0
C      1  0.5789290000000  0.4706960000000  0.5852020000000 1.0
C      1  0.4639550000000  0.5432800000000  0.4363700000000 1.0
C      1  0.5371780000000  0.5482370000000  0.5981160000000 1.0
C      1  0.5120320000000  0.5651210000000  0.4201940000000 1.0
C      1  0.5018520000000  0.6123870000000  0.5218590000000 1.0
C      1  0.5450500000000  0.4859770000000  0.4082700000000 1.0
C      1  0.4793400000000  0.6102740000000  0.5368080000000 1.0
C      1  0.4765620000000  0.4688590000000  0.3945810000000 1.0
C      1  0.4330940000000  0.5931140000000  0.4970160000000 1.0
C      1  0.5970660000000  0.5415140000000  0.4595630000000 1.0
C      1  0.5297430000000  0.5542520000000  0.5335120000000 1.0
C      1  0.5723850000000  0.4772250000000  0.4930730000000 1.0
C      1  0.5329000000000  0.5539280000000  0.5034330000000 1.0
C      1  0.4520010000000  0.5796890000000  0.4250070000000 1.0
C      1  0.4055250000000  0.4604820000000  0.5128910000000 1.0
C      1  0.4912740000000  0.6069790000000  0.4696680000000 1.0
C      1  0.5420320000000  0.4729710000000  0.4558380000000 1.0
C      1  0.3999330000000  0.5499060000000  0.4595000000000 1.0
C      1  0.4381950000000  0.4890250000000  0.5647150000000 1.0
C      1  0.5577510000000  0.4301790000000  0.5262820000000 1.0
C      1  0.5027350000000  0.4745330000000  0.5349880000000 1.0
C      1  0.4389660000000  0.4462140000000  0.4239000000000 1.0
C      1  0.4347590000000  0.5860610000000  0.5304950000000 1.0
C      1  0.5776230000000  0.5691450000000  0.4548320000000 1.0
C      1  0.4557900000000  0.4890330000000  0.5362690000000 1.0
C      1  0.4912140000000  0.4914250000000  0.4113870000000 1.0
C      1  0.4019250000000  0.4484890000000  0.5421160000000 1.0
C      1  0.4824060000000  0.4927690000000  0.4406430000000 1.0
C      1  0.4571150000000  0.5147210000000  0.4468510000000 1.0
C      1  0.5555920000000  0.5174310000000  0.4000940000000 1.0
C      1  0.5183290000000  0.5061920000000  0.4030700000000 1.0
C      1  0.5165600000000  0.4351210000000  0.4636420000000 1.0
C      1  0.4575160000000  0.4238410000000  0.5504460000000 1.0
C      1  0.4382670000000  0.5617840000000  0.5069330000000 1.0
C      1  0.4422920000000  0.5533230000000  0.4147640000000 1.0
C      1  0.4363240000000  0.5085620000000  0.4855530000000 1.0
C      1  0.5595540000000  0.5548170000000  0.4906380000000 1.0
C      1  0.4794910000000  0.5680370000000  0.5497060000000 1.0
C      1  0.5307400000000  0.4052240000000  0.4643100000000 1.0
C      1  0.4662810000000  0.5638760000000  0.4585370000000 1.0
C      1  0.4591270000000  0.6022590000000  0.4798480000000 1.0
C      1  0.5226150000000  0.3986730000000  0.5444670000000 1.0
C      1  0.5950120000000  0.4568310000000  0.5628450000000 1.0
C      1  0.3894790000000  0.5162770000000  0.4975360000000 1.0
C      1  0.5311160000000  0.4279950000000  0.5843770000000 1.0
C      1  0.5175920000000  0.4091800000000  0.4271060000000 1.0
C      1  0.4517060000000  0.5698780000000  0.5781730000000 1.0
C      1  0.5659440000000  0.4206730000000  0.4962610000000 1.0
C      1  0.4994080000000  0.5334580000000  0.4784950000000 1.0
C      1  0.4909390000000  0.4553820000000  0.5943820000000 1.0
C      1  0.5395400000000  0.4334200000000  0.4376520000000 1.0
C      1  0.4862060000000  0.3855590000000  0.4735120000000 1.0
C      1  0.3987060000000  0.4899510000000  0.4630590000000 1.0
C      1  0.5312720000000  0.5834130000000  0.4391690000000 1.0
C      1  0.5497920000000  0.5462560000000  0.5729440000000 1.0
C      1  0.4683520000000  0.5268200000000  0.5253020000000 1.0
C      1  0.4781110000000  0.4291720000000  0.5068170000000 1.0
C      1  0.4502020000000  0.4127590000000  0.5190260000000 1.0
C      1  0.4079950000000  0.4546550000000  0.4278980000000 1.0
C      1  0.5315710000000  0.5111760000000  0.4592970000000 1.0
C      1  0.5581100000000  0.4579170000000  0.4227760000000 1.0
C      1  0.4874670000000  0.5394140000000  0.6130410000000 1.0
C      1  0.4648490000000  0.5390260000000  0.5510900000000 1.0
C      1  0.4218870000000  0.5366490000000  0.5180510000000 1.0
C      1  0.6003500000000  0.4890510000000  0.5178870000000 1.0
C      1  0.4562730000000  0.4530670000000  0.5077010000000 1.0
C      1  0.5041910000000  0.4539700000000  0.4094580000000 1.0
C      1  0.4138020000000  0.5216900000000  0.5540310000000 1.0
C      1  0.4787570000000  0.4457970000000  0.4270850000000 1.0
C      1  0.5346120000000  0.4796070000000  0.5245640000000 1.0
C      1  0.5405480000000  0.4799770000000  0.6108520000000 1.0
C      1  0.5251540000000  0.5253130000000  0.4958750000000 1.0
C      1  0.5135680000000  0.5587410000000  0.4648370000000 1.0
C      1  0.5179020000000  0.4290390000000  0.4043300000000 1.0
C      1  0.4840530000000  0.5060140000000  0.6064220000000 1.0
C      1  0.5762520000000  0.4473040000000  0.4490080000000 1.0
C      1  0.4909000000000  0.4812510000000  0.4722840000000 1.0
C      1  0.4691440000000  0.4200050000000  0.4228880000000 1.0
C      1  0.4031330000000  0.5453290000000  0.4925440000000 1.0
C      1  0.3841970000000  0.4836560000000  0.4886630000000 1.0
C      1  0.5939220000000  0.4744510000000  0.4597160000000 1.0
C      1  0.4799960000000  0.4992830000000  0.5142050000000 1.0
C      1  0.5031330000000  0.5191160000000  0.4467930000000 1.0
END
