TITL C-2778424-3986-1374 0.00080402222454575 125000 -679.018589518839 0 0 119 (C1) n - 1
REM
REM in /home/nfs/bkarasulu/CARBON/AIRSS/Generating-Clusters/REBO/Only-C1/SD-CG/HFTN-CG
REM
REM
REM
REM
REM
REM ./C.cell (11c1c37f851c82e70ff6c80c92926a4b)
REM
REM compiler GCC version 9.2.1 20190827 (Red Hat 9.2.1-1)
REM options -cpp -mtune=generic -march=x86-64 -g -O0 -fpre-include=/usr/include/finclude/math-vector-fortran.h
REM seed -1644551097 -1669218119 -1680727779 -1616046936 1384089187 1518118814 75715468 -30138454 -1744176432 -2053814495 1074933889 -172854065 -383635732 198028154 33769136 1276953804 447902341 -1303101910 -474217385 2074802877 765640003 315357478 -1482695418 -2062212613 1979205732 -1395535431 -1291187025 1031146650 1809867413 176639634 -1284831884 -368520663 -81434030
REM
CELL 1.54180   50.00000   50.00000   50.00000   90.00000   90.00000   90.00000
LATT -1
SFAC C  
C      1  0.5826470000000  0.5239990000000  0.4523230000000 1.0
C      1  0.4565620000000  0.5075590000000  0.4657510000000 1.0
C      1  0.4854090000000  0.5061340000000  0.5586160000000 1.0
C      1  0.4393290000000  0.4957830000000  0.4317720000000 1.0
C      1  0.5705540000000  0.5554580000000  0.4518060000000 1.0
C      1  0.5377190000000  0.5062200000000  0.4173020000000 1.0
C      1  0.5217360000000  0.4572500000000  0.5470450000000 1.0
C      1  0.5626250000000  0.4973870000000  0.4918570000000 1.0
C      1  0.5088770000000  0.5511180000000  0.5648800000000 1.0
C      1  0.5104590000000  0.4300900000000  0.4575730000000 1.0
C      1  0.4880260000000  0.5006000000000  0.5279050000000 1.0
C      1  0.4080990000000  0.4905730000000  0.4730540000000 1.0
C      1  0.4953180000000  0.5332080000000  0.5215530000000 1.0
C      1  0.4395100000000  0.5643250000000  0.5469760000000 1.0
C      1  0.5332460000000  0.4997150000000  0.4564040000000 1.0
C      1  0.5633470000000  0.4876440000000  0.5302270000000 1.0
C      1  0.4621290000000  0.4762410000000  0.4702610000000 1.0
C      1  0.6376720000000  0.4814970000000  0.4987860000000 1.0
C      1  0.4953550000000  0.4804670000000  0.4110620000000 1.0
C      1  0.4184720000000  0.5590950000000  0.5235560000000 1.0
C      1  0.5532490000000  0.4497810000000  0.5372300000000 1.0
C      1  0.4023680000000  0.5032480000000  0.5036180000000 1.0
C      1  0.4882190000000  0.4523960000000  0.4217260000000 1.0
C      1  0.5609480000000  0.5053920000000  0.4373290000000 1.0
C      1  0.5274500000000  0.4807970000000  0.4099660000000 1.0
C      1  0.4356290000000  0.5609230000000  0.4941580000000 1.0
C      1  0.5578200000000  0.4516280000000  0.4375590000000 1.0
C      1  0.5461440000000  0.5674450000000  0.5064530000000 1.0
C      1  0.5052970000000  0.4778110000000  0.5173240000000 1.0
C      1  0.4737510000000  0.5435330000000  0.4677490000000 1.0
C      1  0.4528860000000  0.4211110000000  0.4602240000000 1.0
C      1  0.5052010000000  0.4963600000000  0.4391850000000 1.0
C      1  0.4360620000000  0.5081010000000  0.5751360000000 1.0
C      1  0.4909210000000  0.4288480000000  0.4939650000000 1.0
C      1  0.5891490000000  0.4855100000000  0.5193110000000 1.0
C      1  0.4851360000000  0.5640320000000  0.5198700000000 1.0
C      1  0.4680370000000  0.5092830000000  0.3783400000000 1.0
C      1  0.4701630000000  0.5771880000000  0.4465370000000 1.0
C      1  0.5194210000000  0.5194530000000  0.5428560000000 1.0
C      1  0.4872440000000  0.4567550000000  0.4762370000000 1.0
C      1  0.4665360000000  0.4317480000000  0.5257320000000 1.0
C      1  0.4924670000000  0.6071410000000  0.4892450000000 1.0
C      1  0.4819100000000  0.5063370000000  0.4004680000000 1.0
C      1  0.5992630000000  0.5630550000000  0.5007160000000 1.0
C      1  0.4725860000000  0.4985150000000  0.4384620000000 1.0
C      1  0.5467240000000  0.5667170000000  0.4332800000000 1.0
C      1  0.4690470000000  0.4335590000000  0.5864020000000 1.0
C      1  0.5316350000000  0.5189040000000  0.5136270000000 1.0
C      1  0.4633590000000  0.4189750000000  0.5571240000000 1.0
C      1  0.5723460000000  0.4605840000000  0.4599160000000 1.0
C      1  0.5058350000000  0.4781790000000  0.4854480000000 1.0
C      1  0.5136640000000  0.3914820000000  0.5538000000000 1.0
C      1  0.4778570000000  0.4626480000000  0.6017390000000 1.0
C      1  0.4607070000000  0.5142500000000  0.5886420000000 1.0
C      1  0.4305270000000  0.5160380000000  0.4704840000000 1.0
C      1  0.4454420000000  0.4793100000000  0.5284690000000 1.0
C      1  0.4106180000000  0.4599200000000  0.5261420000000 1.0
C      1  0.5623070000000  0.4954160000000  0.5590120000000 1.0
C      1  0.5138920000000  0.4887360000000  0.5574940000000 1.0
C      1  0.4715100000000  0.4693610000000  0.5699240000000 1.0
C      1  0.5320870000000  0.4427810000000  0.4706680000000 1.0
C      1  0.5325920000000  0.5631380000000  0.5542940000000 1.0
C      1  0.4413090000000  0.5059860000000  0.5111920000000 1.0
C      1  0.4815270000000  0.4965010000000  0.6032180000000 1.0
C      1  0.4362530000000  0.4816170000000  0.4898100000000 1.0
C      1  0.4397390000000  0.5162990000000  0.5423830000000 1.0
C      1  0.5294440000000  0.5333000000000  0.4620400000000 1.0
C      1  0.5740970000000  0.5554870000000  0.5160220000000 1.0
C      1  0.4858570000000  0.4438810000000  0.5582730000000 1.0
C      1  0.5048960000000  0.5877510000000  0.5256890000000 1.0
C      1  0.5383240000000  0.4306870000000  0.4960470000000 1.0
C      1  0.5165680000000  0.5235440000000  0.5766590000000 1.0
C      1  0.4549690000000  0.4809160000000  0.5531490000000 1.0
C      1  0.4504400000000  0.5412880000000  0.5581770000000 1.0
C      1  0.5151660000000  0.4200290000000  0.5082280000000 1.0
C      1  0.5178870000000  0.5273760000000  0.4321650000000 1.0
C      1  0.4803880000000  0.5844490000000  0.4943050000000 1.0
C      1  0.5704650000000  0.4642710000000  0.4910400000000 1.0
C      1  0.5079830000000  0.5089580000000  0.4926050000000 1.0
C      1  0.5057320000000  0.4772350000000  0.5886940000000 1.0
C      1  0.5564440000000  0.4662390000000  0.5640530000000 1.0
C      1  0.4129580000000  0.5007450000000  0.5519560000000 1.0
C      1  0.5207340000000  0.5727030000000  0.4304140000000 1.0
C      1  0.5308040000000  0.5782600000000  0.5303760000000 1.0
C      1  0.5461540000000  0.5611780000000  0.4728160000000 1.0
C      1  0.4958810000000  0.6136290000000  0.5285490000000 1.0
C      1  0.4239870000000  0.4772370000000  0.4465610000000 1.0
C      1  0.4541610000000  0.5708710000000  0.5204980000000 1.0
C      1  0.4879030000000  0.5276450000000  0.4220260000000 1.0
C      1  0.5558880000000  0.5483780000000  0.5613160000000 1.0
C      1  0.5362670000000  0.4543080000000  0.4190030000000 1.0
C      1  0.5584620000000  0.4457240000000  0.5097480000000 1.0
C      1  0.4407990000000  0.4505590000000  0.5169230000000 1.0
C      1  0.5307510000000  0.4605150000000  0.5798650000000 1.0
C      1  0.4960070000000  0.4486780000000  0.5285150000000 1.0
C      1  0.4712100000000  0.4537220000000  0.4463510000000 1.0
C      1  0.5352940000000  0.4739760000000  0.4747290000000 1.0
C      1  0.5084510000000  0.5149820000000  0.6008270000000 1.0
C      1  0.4830380000000  0.4193660000000  0.4628780000000 1.0
C      1  0.5280420000000  0.5432040000000  0.4936450000000 1.0
C      1  0.4943240000000  0.5764240000000  0.4344430000000 1.0
C      1  0.4791750000000  0.5357570000000  0.5697840000000 1.0
C      1  0.4582050000000  0.4230570000000  0.4939480000000 1.0
C      1  0.5757720000000  0.4924450000000  0.4633150000000 1.0
C      1  0.4205930000000  0.5317900000000  0.5038490000000 1.0
C      1  0.5382130000000  0.4801490000000  0.5084970000000 1.0
C      1  0.5121400000000  0.4375460000000  0.4187360000000 1.0
C      1  0.6136050000000  0.4834880000000  0.5089660000000 1.0
C      1  0.4025870000000  0.4874550000000  0.5282680000000 1.0
C      1  0.4414160000000  0.5259820000000  0.4333710000000 1.0
C      1  0.5632070000000  0.5225120000000  0.5653020000000 1.0
C      1  0.4378940000000  0.4481230000000  0.4848470000000 1.0
C      1  0.5832750000000  0.5418190000000  0.4800050000000 1.0
C      1  0.4665310000000  0.5378040000000  0.4406030000000 1.0
C      1  0.4598210000000  0.5699460000000  0.4767710000000 1.0
C      1  0.5630620000000  0.5262720000000  0.5025680000000 1.0
C      1  0.5143960000000  0.4053890000000  0.5315990000000 1.0
C      1  0.4378280000000  0.4503590000000  0.4521330000000 1.0
C      1  0.4885790000000  0.5314310000000  0.4876790000000 1.0
END
