TITL C-2778431-5191-790 -0.0034577869659205 125000 -425.971219391553 0 0 70 (C1) n - 1
REM
REM in /home/nfs/bkarasulu/CARBON/AIRSS/Generating-Clusters/REBO/Only-C1/SD-CG/HFTN-CG
REM
REM
REM
REM
REM
REM ./C.cell (11c1c37f851c82e70ff6c80c92926a4b)
REM
REM compiler GCC version 9.2.1 20190827 (Red Hat 9.2.1-1)
REM options -cpp -mtune=generic -march=x86-64 -g -O0 -fpre-include=/usr/include/finclude/math-vector-fortran.h
REM seed 296046964 638955363 -239949249 2123424599 1351585152 -1160472054 26704595 2116176243 419011495 374648877 1457904573 766305017 -60574259 -790732810 2059952352 -323252346 -160371000 133955346 386865060 92284219 754281920 -1114624481 -674642483 2014860589 956464232 913049358 1310069185 1925896787 -737187513 250550978 2080752954 -330586582 808434185
REM
CELL 1.54180   50.00000   50.00000   50.00000   90.00000   90.00000   90.00000
LATT -1
SFAC C  
C      1  0.5668380000000  0.4997160000000  0.4645920000000 1.0
C      1  0.4792430000000  0.4174940000000  0.5132530000000 1.0
C      1  0.4981900000000  0.4376450000000  0.5141400000000 1.0
C      1  0.5461490000000  0.5276420000000  0.4983800000000 1.0
C      1  0.4942950000000  0.5550500000000  0.4220940000000 1.0
C      1  0.5183540000000  0.4364950000000  0.4796180000000 1.0
C      1  0.4404240000000  0.4482540000000  0.5094330000000 1.0
C      1  0.5026550000000  0.5757250000000  0.4372650000000 1.0
C      1  0.5343870000000  0.5196970000000  0.5577670000000 1.0
C      1  0.4527980000000  0.4606310000000  0.4809090000000 1.0
C      1  0.5347530000000  0.4885540000000  0.5201740000000 1.0
C      1  0.4387340000000  0.4893410000000  0.5362010000000 1.0
C      1  0.5134150000000  0.5442750000000  0.5531870000000 1.0
C      1  0.4589460000000  0.5037580000000  0.5811160000000 1.0
C      1  0.4396510000000  0.4608850000000  0.5346920000000 1.0
C      1  0.4757010000000  0.5689030000000  0.5340620000000 1.0
C      1  0.5494420000000  0.5026720000000  0.5410040000000 1.0
C      1  0.5422810000000  0.5535480000000  0.5077550000000 1.0
C      1  0.5635920000000  0.4637030000000  0.4323940000000 1.0
C      1  0.4780230000000  0.4778080000000  0.4875720000000 1.0
C      1  0.4784250000000  0.4570870000000  0.5632930000000 1.0
C      1  0.5703160000000  0.5139520000000  0.4894460000000 1.0
C      1  0.5214330000000  0.5082380000000  0.4994680000000 1.0
C      1  0.4534360000000  0.5331210000000  0.4748850000000 1.0
C      1  0.5668700000000  0.4411110000000  0.4884970000000 1.0
C      1  0.4524760000000  0.4487630000000  0.5572020000000 1.0
C      1  0.4582090000000  0.5578660000000  0.5541860000000 1.0
C      1  0.5101130000000  0.4575320000000  0.5601720000000 1.0
C      1  0.5356890000000  0.4600610000000  0.5204300000000 1.0
C      1  0.5042320000000  0.5641490000000  0.5357990000000 1.0
C      1  0.5775110000000  0.4746260000000  0.4548450000000 1.0
C      1  0.5326600000000  0.4476060000000  0.5465270000000 1.0
C      1  0.4969180000000  0.4830550000000  0.4637890000000 1.0
C      1  0.4963260000000  0.4796520000000  0.4348650000000 1.0
C      1  0.4472350000000  0.5499520000000  0.5000080000000 1.0
C      1  0.5404720000000  0.5042490000000  0.4535630000000 1.0
C      1  0.5119100000000  0.4574260000000  0.4252640000000 1.0
C      1  0.4679510000000  0.5753460000000  0.4571360000000 1.0
C      1  0.5045050000000  0.5047000000000  0.4211060000000 1.0
C      1  0.4363670000000  0.5330990000000  0.5196860000000 1.0
C      1  0.5391670000000  0.4553060000000  0.4239440000000 1.0
C      1  0.4914790000000  0.5079080000000  0.5378650000000 1.0
C      1  0.5107120000000  0.5864550000000  0.4925700000000 1.0
C      1  0.4924600000000  0.4645790000000  0.5128670000000 1.0
C      1  0.5325960000000  0.5083910000000  0.4266700000000 1.0
C      1  0.5775610000000  0.5045010000000  0.5362990000000 1.0
C      1  0.4909030000000  0.5288540000000  0.4159580000000 1.0
C      1  0.5192750000000  0.4977490000000  0.4715190000000 1.0
C      1  0.4561970000000  0.4245930000000  0.4976200000000 1.0
C      1  0.4789210000000  0.5848720000000  0.4855910000000 1.0
C      1  0.4643420000000  0.5711270000000  0.5076130000000 1.0
C      1  0.4664150000000  0.4328190000000  0.4697310000000 1.0
C      1  0.4847640000000  0.5103260000000  0.5864530000000 1.0
C      1  0.4409350000000  0.5358590000000  0.5482570000000 1.0
C      1  0.4934480000000  0.5158410000000  0.5108460000000 1.0
C      1  0.4611010000000  0.5515270000000  0.4526170000000 1.0
C      1  0.4421030000000  0.5057040000000  0.5124600000000 1.0
C      1  0.4946650000000  0.4321380000000  0.4670160000000 1.0
C      1  0.5486870000000  0.4276180000000  0.5554160000000 1.0
C      1  0.5071560000000  0.5216160000000  0.5752650000000 1.0
C      1  0.4383350000000  0.5070490000000  0.4677580000000 1.0
C      1  0.4681520000000  0.5065030000000  0.4949980000000 1.0
C      1  0.4419970000000  0.5082410000000  0.5590240000000 1.0
C      1  0.4920610000000  0.4777390000000  0.5409280000000 1.0
C      1  0.4355220000000  0.4825270000000  0.4678230000000 1.0
C      1  0.5212270000000  0.5713720000000  0.5136530000000 1.0
C      1  0.5853490000000  0.4554450000000  0.4743120000000 1.0
C      1  0.5881500000000  0.5081530000000  0.5109120000000 1.0
C      1  0.5055210000000  0.5878480000000  0.4617470000000 1.0
C      1  0.5398740000000  0.4439530000000  0.4964930000000 1.0
END
