TITL C-2778423-5760-598 -0.0101992349815551 125000 -170.719399674802 0 0 30 (C1) n - 1
REM
REM in /home/nfs/bkarasulu/CARBON/AIRSS/Generating-Clusters/REBO/Only-C1/SD-CG/HFTN-CG
REM
REM
REM
REM
REM
REM ./C.cell (11c1c37f851c82e70ff6c80c92926a4b)
REM
REM compiler GCC version 9.2.1 20190827 (Red Hat 9.2.1-1)
REM options -cpp -mtune=generic -march=x86-64 -g -O0 -fpre-include=/usr/include/finclude/math-vector-fortran.h
REM seed -1590142606 648521039 -44068885 1822852479 -791894275 737767149 -1994236418 -255014780 606852286 -628821231 -481845870 -170495001 123876256 -1901277647 602022407 -1269963521 1422412873 -1354486436 1474568452 1485161710 -1593880674 -91227107 -1082353836 1537408053 1423382480 -1481469484 -822120628 -608145987 1800890459 -1309664631 -897369041 928742046 963296829
REM
CELL 1.54180   50.00000   50.00000   50.00000   90.00000   90.00000   90.00000
LATT -1
SFAC C  
C      1  0.6054910000000  0.4980130000000  0.5001710000000 1.0
C      1  0.5039120000000  0.4607590000000  0.5032340000000 1.0
C      1  0.5261310000000  0.4473850000000  0.4601680000000 1.0
C      1  0.5393990000000  0.5320410000000  0.4901610000000 1.0
C      1  0.5335050000000  0.5007790000000  0.5369340000000 1.0
C      1  0.4967520000000  0.4391580000000  0.5195300000000 1.0
C      1  0.4926370000000  0.4914650000000  0.5074640000000 1.0
C      1  0.4817680000000  0.5355920000000  0.5282330000000 1.0
C      1  0.5129260000000  0.5376960000000  0.4846340000000 1.0
C      1  0.3895730000000  0.5353280000000  0.5690550000000 1.0
C      1  0.4503940000000  0.4980830000000  0.4809280000000 1.0
C      1  0.4611970000000  0.4972190000000  0.5092150000000 1.0
C      1  0.4567060000000  0.5192030000000  0.5275450000000 1.0
C      1  0.5252880000000  0.4344200000000  0.4362330000000 1.0
C      1  0.5687710000000  0.4725730000000  0.4816660000000 1.0
C      1  0.5027600000000  0.5391280000000  0.5465020000000 1.0
C      1  0.4663090000000  0.5234210000000  0.4783410000000 1.0
C      1  0.5796530000000  0.4963730000000  0.4918300000000 1.0
C      1  0.5622480000000  0.5183770000000  0.4928650000000 1.0
C      1  0.4557390000000  0.4758160000000  0.4642140000000 1.0
C      1  0.5012120000000  0.5495090000000  0.4610310000000 1.0
C      1  0.5025510000000  0.4545270000000  0.4737010000000 1.0
C      1  0.4745680000000  0.5412580000000  0.4573930000000 1.0
C      1  0.4775210000000  0.4595120000000  0.4618510000000 1.0
C      1  0.4899800000000  0.5232590000000  0.4999220000000 1.0
C      1  0.5221310000000  0.4841710000000  0.5195130000000 1.0
C      1  0.4114130000000  0.5300820000000  0.5555510000000 1.0
C      1  0.4336050000000  0.5247520000000  0.5418290000000 1.0
C      1  0.5504210000000  0.4562350000000  0.4710540000000 1.0
C      1  0.5254380000000  0.5238650000000  0.5492310000000 1.0
END
