TITL C-2778429-3646-1361 0.000615673346552187 125000 -869.779730034673 0 0 149 (C1) n - 1
REM
REM in /home/nfs/bkarasulu/CARBON/AIRSS/Generating-Clusters/REBO/Only-C1/SD-CG/HFTN-CG
REM
REM
REM
REM
REM
REM ./C.cell (11c1c37f851c82e70ff6c80c92926a4b)
REM
REM compiler GCC version 9.2.1 20190827 (Red Hat 9.2.1-1)
REM options -cpp -mtune=generic -march=x86-64 -g -O0 -fpre-include=/usr/include/finclude/math-vector-fortran.h
REM seed 642829203 -127948612 -1056982388 1662364854 -784359666 1300451463 -56675736 -1565904149 -1783169663 1176386931 -334600347 -1718097566 560483182 -1189148639 -313804082 1495817485 -420975992 -977374406 506152781 -720759904 -544986968 779378992 721635960 -1630600921 -1231884865 1249856075 -987743674 -81372847 -1160407396 1076033024 -1946433430 1095528445 1097947471
REM
CELL 1.54180   50.00000   50.00000   50.00000   90.00000   90.00000   90.00000
LATT -1
SFAC C  
C      1  0.4409000000000  0.4837720000000  0.4373360000000 1.0
C      1  0.5234510000000  0.5418570000000  0.5761490000000 1.0
C      1  0.5561620000000  0.4341800000000  0.5592610000000 1.0
C      1  0.4104740000000  0.5265460000000  0.5422000000000 1.0
C      1  0.4863560000000  0.4940450000000  0.4939820000000 1.0
C      1  0.4255750000000  0.5495270000000  0.5484430000000 1.0
C      1  0.4856260000000  0.5482550000000  0.5582790000000 1.0
C      1  0.5718480000000  0.4860680000000  0.5646250000000 1.0
C      1  0.5677940000000  0.4285630000000  0.5272820000000 1.0
C      1  0.4064180000000  0.4616820000000  0.4940640000000 1.0
C      1  0.4207940000000  0.5114080000000  0.4378370000000 1.0
C      1  0.5258320000000  0.4302180000000  0.5673260000000 1.0
C      1  0.5675100000000  0.5401130000000  0.4488850000000 1.0
C      1  0.4232950000000  0.4682160000000  0.5644250000000 1.0
C      1  0.5025070000000  0.5448170000000  0.5118400000000 1.0
C      1  0.5357890000000  0.5040270000000  0.4767010000000 1.0
C      1  0.4318460000000  0.4984140000000  0.5769630000000 1.0
C      1  0.4701530000000  0.5911750000000  0.4465990000000 1.0
C      1  0.5876390000000  0.5159450000000  0.4433380000000 1.0
C      1  0.5523110000000  0.4826190000000  0.5922960000000 1.0
C      1  0.5906040000000  0.4516600000000  0.5038280000000 1.0
C      1  0.4810790000000  0.4501600000000  0.5941440000000 1.0
C      1  0.5504190000000  0.5353530000000  0.5699350000000 1.0
C      1  0.4864210000000  0.5533550000000  0.4125820000000 1.0
C      1  0.4464900000000  0.5870110000000  0.4891160000000 1.0
C      1  0.4914170000000  0.5253170000000  0.4673070000000 1.0
C      1  0.4605160000000  0.4401800000000  0.4695040000000 1.0
C      1  0.4949510000000  0.5966000000000  0.5076020000000 1.0
C      1  0.4791800000000  0.5345990000000  0.4947660000000 1.0
C      1  0.5442540000000  0.4575380000000  0.5387960000000 1.0
C      1  0.4427000000000  0.5763370000000  0.5542830000000 1.0
C      1  0.5132690000000  0.5145530000000  0.5003570000000 1.0
C      1  0.4392140000000  0.5295870000000  0.5055340000000 1.0
C      1  0.4942770000000  0.5204860000000  0.5424210000000 1.0
C      1  0.5326000000000  0.5265860000000  0.4087020000000 1.0
C      1  0.5568320000000  0.4268940000000  0.4648430000000 1.0
C      1  0.5060200000000  0.4399740000000  0.5424410000000 1.0
C      1  0.4896490000000  0.4727750000000  0.5583940000000 1.0
C      1  0.4632420000000  0.5659980000000  0.5303290000000 1.0
C      1  0.5253430000000  0.5525260000000  0.4921240000000 1.0
C      1  0.5662870000000  0.4909440000000  0.4087320000000 1.0
C      1  0.5149370000000  0.4434420000000  0.5967440000000 1.0
C      1  0.5087850000000  0.5238980000000  0.5927800000000 1.0
C      1  0.5150780000000  0.5623750000000  0.5508250000000 1.0
C      1  0.5286870000000  0.4963010000000  0.5719790000000 1.0
C      1  0.4184820000000  0.4646560000000  0.5250250000000 1.0
C      1  0.4489970000000  0.4866470000000  0.4817900000000 1.0
C      1  0.4461240000000  0.4826450000000  0.5250320000000 1.0
C      1  0.4493500000000  0.5600410000000  0.5023000000000 1.0
C      1  0.4583920000000  0.5343180000000  0.5315530000000 1.0
C      1  0.5584070000000  0.5092270000000  0.5495640000000 1.0
C      1  0.4533950000000  0.5394540000000  0.5649010000000 1.0
C      1  0.5783800000000  0.4609770000000  0.5342160000000 1.0
C      1  0.4749010000000  0.5972230000000  0.4800230000000 1.0
C      1  0.5107820000000  0.4715050000000  0.5782680000000 1.0
C      1  0.5209750000000  0.6022210000000  0.4998690000000 1.0
C      1  0.4732640000000  0.4362890000000  0.4267540000000 1.0
C      1  0.5449240000000  0.5596160000000  0.5386180000000 1.0
C      1  0.4688000000000  0.5757160000000  0.5686030000000 1.0
C      1  0.5440860000000  0.4829290000000  0.5235180000000 1.0
C      1  0.5624760000000  0.4816760000000  0.5025950000000 1.0
C      1  0.4794750000000  0.4761310000000  0.4435910000000 1.0
C      1  0.5071430000000  0.5428090000000  0.3974340000000 1.0
C      1  0.5407900000000  0.4984500000000  0.4020850000000 1.0
C      1  0.5243660000000  0.4967810000000  0.6058930000000 1.0
C      1  0.4124760000000  0.5498180000000  0.4670550000000 1.0
C      1  0.4447760000000  0.5826750000000  0.4410080000000 1.0
C      1  0.5247360000000  0.5155520000000  0.5461330000000 1.0
C      1  0.5307940000000  0.5710060000000  0.4333660000000 1.0
C      1  0.5482430000000  0.5295470000000  0.5252190000000 1.0
C      1  0.5907410000000  0.5043470000000  0.4857640000000 1.0
C      1  0.4822210000000  0.4227320000000  0.4856590000000 1.0
C      1  0.4818260000000  0.5151860000000  0.5877820000000 1.0
C      1  0.4230630000000  0.4872680000000  0.4926960000000 1.0
C      1  0.4698210000000  0.4403230000000  0.5260070000000 1.0
C      1  0.4712690000000  0.5060410000000  0.5213010000000 1.0
C      1  0.6012810000000  0.4831610000000  0.5102840000000 1.0
C      1  0.4570210000000  0.5439790000000  0.4509620000000 1.0
C      1  0.5687510000000  0.5332240000000  0.5019330000000 1.0
C      1  0.4163650000000  0.5093180000000  0.5135650000000 1.0
C      1  0.5088240000000  0.4414640000000  0.4963790000000 1.0
C      1  0.5455950000000  0.5653010000000  0.5068190000000 1.0
C      1  0.4916980000000  0.4276470000000  0.5709080000000 1.0
C      1  0.5113880000000  0.4058890000000  0.4787260000000 1.0
C      1  0.4967170000000  0.5733010000000  0.4343950000000 1.0
C      1  0.4697660000000  0.5580730000000  0.4745690000000 1.0
C      1  0.4350240000000  0.4537870000000  0.4524170000000 1.0
C      1  0.4031480000000  0.4887870000000  0.4493580000000 1.0
C      1  0.5312900000000  0.4150200000000  0.4598640000000 1.0
C      1  0.5619760000000  0.4485300000000  0.4466330000000 1.0
C      1  0.5679630000000  0.4308650000000  0.4934230000000 1.0
C      1  0.4676540000000  0.4700720000000  0.4679910000000 1.0
C      1  0.5176080000000  0.4886730000000  0.5178420000000 1.0
C      1  0.4114450000000  0.4925500000000  0.5431510000000 1.0
C      1  0.4048710000000  0.5322080000000  0.4852530000000 1.0
C      1  0.4645200000000  0.4109660000000  0.5113760000000 1.0
C      1  0.4714330000000  0.4679380000000  0.5099220000000 1.0
C      1  0.5676660000000  0.5674760000000  0.4641240000000 1.0
C      1  0.5203060000000  0.5419230000000  0.4663420000000 1.0
C      1  0.4872010000000  0.5150590000000  0.4356690000000 1.0
C      1  0.5710340000000  0.5641820000000  0.4920230000000 1.0
C      1  0.5816250000000  0.4681500000000  0.4506280000000 1.0
C      1  0.4986180000000  0.4749740000000  0.6104920000000 1.0
C      1  0.4395370000000  0.5226370000000  0.5873190000000 1.0
C      1  0.5098740000000  0.4529580000000  0.4690320000000 1.0
C      1  0.4984090000000  0.4682040000000  0.5281570000000 1.0
C      1  0.5622760000000  0.5180230000000  0.4741980000000 1.0
C      1  0.4692930000000  0.4473150000000  0.5561480000000 1.0
C      1  0.4776180000000  0.4999060000000  0.5601700000000 1.0
C      1  0.4364740000000  0.5340870000000  0.4283650000000 1.0
C      1  0.4094230000000  0.4639710000000  0.4632600000000 1.0
C      1  0.5359730000000  0.4544560000000  0.4288990000000 1.0
C      1  0.4704110000000  0.4527170000000  0.4056070000000 1.0
C      1  0.5197930000000  0.4295470000000  0.4381870000000 1.0
C      1  0.4984960000000  0.5753780000000  0.4683870000000 1.0
C      1  0.4555310000000  0.5164980000000  0.4822480000000 1.0
C      1  0.5576040000000  0.4618750000000  0.4840770000000 1.0
C      1  0.4225710000000  0.4156130000000  0.5385730000000 1.0
C      1  0.4927250000000  0.5718460000000  0.5268470000000 1.0
C      1  0.5927200000000  0.4916330000000  0.5397460000000 1.0
C      1  0.5353170000000  0.4332900000000  0.5163740000000 1.0
C      1  0.4906170000000  0.4784790000000  0.3992460000000 1.0
C      1  0.5173550000000  0.4804090000000  0.4410190000000 1.0
C      1  0.5965220000000  0.5227470000000  0.5130020000000 1.0
C      1  0.5194760000000  0.4771370000000  0.4091450000000 1.0
C      1  0.5188210000000  0.4050930000000  0.5076510000000 1.0
C      1  0.4705820000000  0.4880510000000  0.5976740000000 1.0
C      1  0.5681640000000  0.4560360000000  0.5781040000000 1.0
C      1  0.4383060000000  0.4003190000000  0.5223730000000 1.0
C      1  0.4755670000000  0.5069330000000  0.4068180000000 1.0
C      1  0.4246300000000  0.5674180000000  0.4507470000000 1.0
C      1  0.4534480000000  0.4649210000000  0.5800560000000 1.0
C      1  0.4566660000000  0.4811310000000  0.4109900000000 1.0
C      1  0.4631010000000  0.5363930000000  0.4122500000000 1.0
C      1  0.5482230000000  0.5484540000000  0.4253300000000 1.0
C      1  0.4497380000000  0.4955570000000  0.5530490000000 1.0
C      1  0.5953200000000  0.4729220000000  0.4775970000000 1.0
C      1  0.5358850000000  0.4712670000000  0.4666800000000 1.0
C      1  0.5050640000000  0.4963340000000  0.4661540000000 1.0
C      1  0.4182050000000  0.4407810000000  0.5460100000000 1.0
C      1  0.5816540000000  0.4903560000000  0.4326620000000 1.0
C      1  0.4929140000000  0.4385830000000  0.4462820000000 1.0
C      1  0.5443070000000  0.5825090000000  0.4561580000000 1.0
C      1  0.5739290000000  0.5457550000000  0.5511410000000 1.0
C      1  0.4950250000000  0.4163740000000  0.5240520000000 1.0
C      1  0.5939450000000  0.5257030000000  0.5426750000000 1.0
C      1  0.5255460000000  0.5889120000000  0.4755700000000 1.0
C      1  0.5155920000000  0.5295960000000  0.4366820000000 1.0
C      1  0.4585600000000  0.5096530000000  0.4507230000000 1.0
END
