TITL C-2778430-5657-966 0.0755932117819855 125000 -336.477589340103 0 0 58 (C1) n - 1
REM
REM in /home/nfs/bkarasulu/CARBON/AIRSS/Generating-Clusters/REBO/Only-C1/SD-CG/HFTN-CG
REM
REM
REM
REM
REM
REM ./C.cell (11c1c37f851c82e70ff6c80c92926a4b)
REM
REM compiler GCC version 9.2.1 20190827 (Red Hat 9.2.1-1)
REM options -cpp -mtune=generic -march=x86-64 -g -O0 -fpre-include=/usr/include/finclude/math-vector-fortran.h
REM seed -531445179 -116499821 651988375 -252925922 -1739853061 -1128311956 1864949061 -1382088290 847261066 -783171657 173086324 -555520945 -1928224617 136861160 -1689640620 359011640 1108344453 -505976852 -1926981511 427054544 69912309 452574041 -868707162 -1900431947 96066624 -319670091 1042103331 1482648775 -786340633 -874143441 -284352433 109358565 1119737535
REM
CELL 1.54180   50.00000   50.00000   50.00000   90.00000   90.00000   90.00000
LATT -1
SFAC C  
C      1  0.5121820000000  0.5346480000000  0.4255350000000 1.0
C      1  0.4958420000000  0.5389230000000  0.4788560000000 1.0
C      1  0.4498440000000  0.4953420000000  0.4561680000000 1.0
C      1  0.4451250000000  0.5421910000000  0.5141400000000 1.0
C      1  0.5128970000000  0.4677590000000  0.5495830000000 1.0
C      1  0.5041470000000  0.5581520000000  0.5303240000000 1.0
C      1  0.4973140000000  0.5467000000000  0.4456940000000 1.0
C      1  0.5319480000000  0.5146610000000  0.4314170000000 1.0
C      1  0.4972120000000  0.4849500000000  0.4672170000000 1.0
C      1  0.4812600000000  0.4602800000000  0.5096310000000 1.0
C      1  0.5216600000000  0.4827440000000  0.6037440000000 1.0
C      1  0.4692410000000  0.5791020000000  0.5047850000000 1.0
C      1  0.5581520000000  0.5239720000000  0.5045300000000 1.0
C      1  0.5201580000000  0.5159860000000  0.4774630000000 1.0
C      1  0.5133770000000  0.4161880000000  0.5072720000000 1.0
C      1  0.5012750000000  0.4720700000000  0.4364350000000 1.0
C      1  0.5235580000000  0.3889200000000  0.4608550000000 1.0
C      1  0.5105050000000  0.4078590000000  0.4760220000000 1.0
C      1  0.5552920000000  0.4925410000000  0.5091020000000 1.0
C      1  0.5149680000000  0.5776780000000  0.4854790000000 1.0
C      1  0.5095800000000  0.5070690000000  0.5212530000000 1.0
C      1  0.4724010000000  0.5479910000000  0.5517520000000 1.0
C      1  0.5342640000000  0.4503930000000  0.5373850000000 1.0
C      1  0.5254190000000  0.4873610000000  0.4237840000000 1.0
C      1  0.4958730000000  0.5338510000000  0.5127740000000 1.0
C      1  0.5815630000000  0.4710110000000  0.5102210000000 1.0
C      1  0.5552720000000  0.4634070000000  0.5258400000000 1.0
C      1  0.4544810000000  0.5290040000000  0.5376000000000 1.0
C      1  0.4422390000000  0.4927180000000  0.5060660000000 1.0
C      1  0.4617010000000  0.4836080000000  0.5780440000000 1.0
C      1  0.4766240000000  0.4936860000000  0.4444270000000 1.0
C      1  0.5195030000000  0.4833050000000  0.5782520000000 1.0
C      1  0.5050720000000  0.5461660000000  0.5604100000000 1.0
C      1  0.4893300000000  0.4865840000000  0.4933250000000 1.0
C      1  0.4865420000000  0.5809710000000  0.4790490000000 1.0
C      1  0.5212370000000  0.4999880000000  0.5497000000000 1.0
C      1  0.5418880000000  0.5194090000000  0.4585160000000 1.0
C      1  0.4501330000000  0.5450500000000  0.4640170000000 1.0
C      1  0.4644630000000  0.4817630000000  0.5510110000000 1.0
C      1  0.4508330000000  0.5004420000000  0.5334410000000 1.0
C      1  0.4844130000000  0.4653340000000  0.5390870000000 1.0
C      1  0.4897550000000  0.4314580000000  0.4678770000000 1.0
C      1  0.4539530000000  0.4681460000000  0.4955270000000 1.0
C      1  0.4921760000000  0.4353560000000  0.4980230000000 1.0
C      1  0.5282670000000  0.5309840000000  0.5469870000000 1.0
C      1  0.4562260000000  0.4673010000000  0.4664220000000 1.0
C      1  0.4784550000000  0.4527890000000  0.4531790000000 1.0
C      1  0.4658940000000  0.5493900000000  0.4918420000000 1.0
C      1  0.5257830000000  0.5634380000000  0.5076420000000 1.0
C      1  0.4772300000000  0.5753370000000  0.5320110000000 1.0
C      1  0.5359740000000  0.3709050000000  0.4464280000000 1.0
C      1  0.4751640000000  0.5644790000000  0.4562480000000 1.0
C      1  0.4762990000000  0.5116110000000  0.4996440000000 1.0
C      1  0.5262440000000  0.5004610000000  0.4997990000000 1.0
C      1  0.5281810000000  0.4239500000000  0.5296530000000 1.0
C      1  0.4480480000000  0.5154950000000  0.4810210000000 1.0
C      1  0.5405520000000  0.5401410000000  0.5212860000000 1.0
C      1  0.5630110000000  0.5289770000000  0.4762080000000 1.0
END
