TITL C-2778423-5760-952 0.00358376789850891 125000 -1081.69617376344 0 0 190 (C1) n - 1
REM
REM in /home/nfs/bkarasulu/CARBON/AIRSS/Generating-Clusters/REBO/Only-C1/SD-CG/HFTN-CG
REM
REM
REM
REM
REM
REM ./C.cell (11c1c37f851c82e70ff6c80c92926a4b)
REM
REM compiler GCC version 9.2.1 20190827 (Red Hat 9.2.1-1)
REM options -cpp -mtune=generic -march=x86-64 -g -O0 -fpre-include=/usr/include/finclude/math-vector-fortran.h
REM seed 661928018 -2084861288 -509703253 1452765411 -722239470 -953328429 -1046661950 123342987 -2009236785 1042783857 48253428 -2130342133 178979054 -1429403126 414057773 1591491199 513156625 -788220253 554921799 1224565857 -996445232 1637917816 303312395 1031299034 1439751374 846817622 1418832614 -2039986718 -433978704 -1665030604 1870316810 -1961470179 -1590053059
REM
CELL 1.54180   50.00000   50.00000   50.00000   90.00000   90.00000   90.00000
LATT -1
SFAC C  
C      1  0.5826610000000  0.4731470000000  0.4228780000000 1.0
C      1  0.4554130000000  0.5490690000000  0.5453510000000 1.0
C      1  0.5378120000000  0.5669230000000  0.4806980000000 1.0
C      1  0.5620140000000  0.4556420000000  0.5490000000000 1.0
C      1  0.5709890000000  0.4058660000000  0.5013960000000 1.0
C      1  0.5143240000000  0.4957410000000  0.4234640000000 1.0
C      1  0.5508710000000  0.5900490000000  0.4362430000000 1.0
C      1  0.4191910000000  0.5830840000000  0.5014260000000 1.0
C      1  0.6152750000000  0.5603740000000  0.4974830000000 1.0
C      1  0.5372240000000  0.4069840000000  0.5461510000000 1.0
C      1  0.6041550000000  0.4927400000000  0.4249070000000 1.0
C      1  0.6363680000000  0.5553280000000  0.4827710000000 1.0
C      1  0.4345040000000  0.4377620000000  0.4376700000000 1.0
C      1  0.4242870000000  0.4699780000000  0.4330720000000 1.0
C      1  0.5913220000000  0.4913150000000  0.5487000000000 1.0
C      1  0.5040480000000  0.4939640000000  0.5615990000000 1.0
C      1  0.4078040000000  0.5254140000000  0.5531930000000 1.0
C      1  0.5651390000000  0.5663760000000  0.5013440000000 1.0
C      1  0.4622950000000  0.5023750000000  0.4987250000000 1.0
C      1  0.4647210000000  0.4608190000000  0.4609160000000 1.0
C      1  0.4122250000000  0.5180430000000  0.4483530000000 1.0
C      1  0.3882870000000  0.5034480000000  0.5237450000000 1.0
C      1  0.4959100000000  0.6075300000000  0.4749100000000 1.0
C      1  0.5437070000000  0.5416170000000  0.5109660000000 1.0
C      1  0.4350020000000  0.5136050000000  0.4159630000000 1.0
C      1  0.4673020000000  0.5300540000000  0.4328600000000 1.0
C      1  0.4112600000000  0.4708410000000  0.5219440000000 1.0
C      1  0.4497680000000  0.4113180000000  0.4477570000000 1.0
C      1  0.4469460000000  0.4062090000000  0.4814060000000 1.0
C      1  0.5591960000000  0.4890840000000  0.4132760000000 1.0
C      1  0.4663130000000  0.6024360000000  0.5210700000000 1.0
C      1  0.5854010000000  0.4535520000000  0.4442980000000 1.0
C      1  0.4610410000000  0.4756380000000  0.5409650000000 1.0
C      1  0.4941120000000  0.5024910000000  0.5125110000000 1.0
C      1  0.5008090000000  0.5354560000000  0.3859530000000 1.0
C      1  0.5485380000000  0.5391920000000  0.4380190000000 1.0
C      1  0.6197600000000  0.4878600000000  0.4779790000000 1.0
C      1  0.4629730000000  0.5231150000000  0.5265750000000 1.0
C      1  0.5460040000000  0.5960150000000  0.4649330000000 1.0
C      1  0.5551830000000  0.5094910000000  0.5770850000000 1.0
C      1  0.4292930000000  0.4302540000000  0.5802270000000 1.0
C      1  0.4769470000000  0.5821850000000  0.5741020000000 1.0
C      1  0.5229310000000  0.5757370000000  0.5101940000000 1.0
C      1  0.6004650000000  0.4656910000000  0.5514360000000 1.0
C      1  0.4772090000000  0.4351970000000  0.4051000000000 1.0
C      1  0.3965760000000  0.5346830000000  0.4729590000000 1.0
C      1  0.4103710000000  0.5515230000000  0.4465660000000 1.0
C      1  0.4774740000000  0.4813730000000  0.4293320000000 1.0
C      1  0.5241810000000  0.4430650000000  0.4074840000000 1.0
C      1  0.4435540000000  0.4782670000000  0.5142420000000 1.0
C      1  0.6029350000000  0.4423970000000  0.5051490000000 1.0
C      1  0.5068250000000  0.5583280000000  0.4104800000000 1.0
C      1  0.5241090000000  0.5170490000000  0.5721270000000 1.0
C      1  0.4927470000000  0.5735180000000  0.5130540000000 1.0
C      1  0.4305580000000  0.5421970000000  0.4222720000000 1.0
C      1  0.4943790000000  0.4619060000000  0.5832710000000 1.0
C      1  0.5762670000000  0.5134600000000  0.4867360000000 1.0
C      1  0.5650140000000  0.5832930000000  0.5502770000000 1.0
C      1  0.4901810000000  0.4911200000000  0.4563040000000 1.0
C      1  0.4933720000000  0.4636470000000  0.4761830000000 1.0
C      1  0.4781210000000  0.5106740000000  0.3848050000000 1.0
C      1  0.4379730000000  0.5000920000000  0.5472840000000 1.0
C      1  0.4587750000000  0.5349900000000  0.5997570000000 1.0
C      1  0.5573020000000  0.5543730000000  0.5385470000000 1.0
C      1  0.5930390000000  0.5656940000000  0.5129910000000 1.0
C      1  0.4075490000000  0.5523330000000  0.5555250000000 1.0
C      1  0.5493380000000  0.5090720000000  0.5194580000000 1.0
C      1  0.4363210000000  0.5697370000000  0.4555910000000 1.0
C      1  0.5655770000000  0.4513010000000  0.5822670000000 1.0
C      1  0.5628600000000  0.5487360000000  0.5775510000000 1.0
C      1  0.5500670000000  0.5663420000000  0.4284290000000 1.0
C      1  0.4707180000000  0.4008280000000  0.5355310000000 1.0
C      1  0.4623200000000  0.4523940000000  0.4280590000000 1.0
C      1  0.4111560000000  0.4897280000000  0.4939490000000 1.0
C      1  0.5082140000000  0.5610220000000  0.4760560000000 1.0
C      1  0.4966370000000  0.5674510000000  0.4346120000000 1.0
C      1  0.4776670000000  0.5729080000000  0.4824820000000 1.0
C      1  0.5257020000000  0.4640940000000  0.5926190000000 1.0
C      1  0.4134900000000  0.4311660000000  0.5107410000000 1.0
C      1  0.6036320000000  0.5099910000000  0.4708880000000 1.0
C      1  0.4806930000000  0.4356280000000  0.5677820000000 1.0
C      1  0.4792190000000  0.5172170000000  0.6189060000000 1.0
C      1  0.5468290000000  0.5149770000000  0.4106060000000 1.0
C      1  0.4807710000000  0.4626950000000  0.3941500000000 1.0
C      1  0.5111640000000  0.5031950000000  0.3901320000000 1.0
C      1  0.4306460000000  0.5176690000000  0.4961200000000 1.0
C      1  0.3860500000000  0.4797370000000  0.5419540000000 1.0
C      1  0.4779490000000  0.4891050000000  0.5810010000000 1.0
C      1  0.4108100000000  0.5625970000000  0.4852930000000 1.0
C      1  0.6168470000000  0.4610310000000  0.4851080000000 1.0
C      1  0.4557580000000  0.5584030000000  0.4213250000000 1.0
C      1  0.4607180000000  0.4368490000000  0.5027880000000 1.0
C      1  0.5499630000000  0.5289310000000  0.4710220000000 1.0
C      1  0.5112600000000  0.4714320000000  0.3993690000000 1.0
C      1  0.4720130000000  0.6106690000000  0.4936750000000 1.0
C      1  0.5142010000000  0.5908850000000  0.5642440000000 1.0
C      1  0.4416850000000  0.4050730000000  0.5352030000000 1.0
C      1  0.4189400000000  0.5143210000000  0.5244680000000 1.0
C      1  0.4773400000000  0.4137470000000  0.4674370000000 1.0
C      1  0.5516480000000  0.3917580000000  0.4859470000000 1.0
C      1  0.3996790000000  0.4782370000000  0.5699120000000 1.0
C      1  0.4184140000000  0.4477110000000  0.4656000000000 1.0
C      1  0.5185560000000  0.5501330000000  0.5324950000000 1.0
C      1  0.5362500000000  0.5454640000000  0.5614470000000 1.0
C      1  0.4177420000000  0.5028150000000  0.5733310000000 1.0
C      1  0.3752870000000  0.4888580000000  0.4292940000000 1.0
C      1  0.4550010000000  0.4476830000000  0.5550820000000 1.0
C      1  0.4832010000000  0.5096440000000  0.4176130000000 1.0
C      1  0.4871280000000  0.5427320000000  0.4553700000000 1.0
C      1  0.4979180000000  0.5361170000000  0.5655440000000 1.0
C      1  0.5578720000000  0.4901690000000  0.4751520000000 1.0
C      1  0.4398110000000  0.4863020000000  0.4089680000000 1.0
C      1  0.4320650000000  0.4075790000000  0.5083540000000 1.0
C      1  0.5550360000000  0.5978040000000  0.4977430000000 1.0
C      1  0.4705280000000  0.4912950000000  0.6201350000000 1.0
C      1  0.4568580000000  0.5921810000000  0.4696470000000 1.0
C      1  0.5386510000000  0.4570750000000  0.6139950000000 1.0
C      1  0.5248070000000  0.4920280000000  0.5040760000000 1.0
C      1  0.4920110000000  0.5380440000000  0.4947620000000 1.0
C      1  0.5954200000000  0.5120260000000  0.4438350000000 1.0
C      1  0.4835510000000  0.3842740000000  0.5526860000000 1.0
C      1  0.5291380000000  0.4064220000000  0.4805550000000 1.0
C      1  0.4439230000000  0.5133490000000  0.4484860000000 1.0
C      1  0.5353910000000  0.4384790000000  0.5245950000000 1.0
C      1  0.5224500000000  0.6026240000000  0.4887580000000 1.0
C      1  0.4287500000000  0.5653560000000  0.5457140000000 1.0
C      1  0.4001280000000  0.4385180000000  0.4882190000000 1.0
C      1  0.5653390000000  0.5126800000000  0.4449580000000 1.0
C      1  0.5068420000000  0.4572200000000  0.5248260000000 1.0
C      1  0.4481080000000  0.4399130000000  0.4751040000000 1.0
C      1  0.5919080000000  0.4196320000000  0.4881530000000 1.0
C      1  0.5118400000000  0.4229940000000  0.5622070000000 1.0
C      1  0.5127380000000  0.4553630000000  0.5558500000000 1.0
C      1  0.4354470000000  0.4621950000000  0.5790030000000 1.0
C      1  0.6033470000000  0.4394320000000  0.4654530000000 1.0
C      1  0.4862780000000  0.6029440000000  0.5486560000000 1.0
C      1  0.4254070000000  0.4210420000000  0.5528240000000 1.0
C      1  0.5432760000000  0.4642730000000  0.5059370000000 1.0
C      1  0.4951380000000  0.5294080000000  0.5334350000000 1.0
C      1  0.5624760000000  0.4207360000000  0.5279220000000 1.0
C      1  0.4903250000000  0.4474660000000  0.5018690000000 1.0
C      1  0.6200030000000  0.5068120000000  0.5131060000000 1.0
C      1  0.5527340000000  0.4850610000000  0.5404580000000 1.0
C      1  0.4002870000000  0.4928400000000  0.4363590000000 1.0
C      1  0.4607870000000  0.5848890000000  0.4371590000000 1.0
C      1  0.3895560000000  0.5147430000000  0.4939230000000 1.0
C      1  0.5563120000000  0.3667470000000  0.4764540000000 1.0
C      1  0.4366680000000  0.5130700000000  0.5963340000000 1.0
C      1  0.5025870000000  0.4219100000000  0.4737840000000 1.0
C      1  0.4643620000000  0.5302500000000  0.4780990000000 1.0
C      1  0.5802590000000  0.5110780000000  0.5662310000000 1.0
C      1  0.5219500000000  0.5247330000000  0.4845530000000 1.0
C      1  0.5292940000000  0.5362300000000  0.4031610000000 1.0
C      1  0.4438630000000  0.5783820000000  0.5207610000000 1.0
C      1  0.5333180000000  0.4789550000000  0.5642080000000 1.0
C      1  0.5294500000000  0.4494480000000  0.4370060000000 1.0
C      1  0.5357870000000  0.4951620000000  0.4494250000000 1.0
C      1  0.4495170000000  0.4824900000000  0.5950270000000 1.0
C      1  0.5041350000000  0.5646200000000  0.5834430000000 1.0
C      1  0.5218250000000  0.4770800000000  0.4751650000000 1.0
C      1  0.4688940000000  0.5489970000000  0.5737710000000 1.0
C      1  0.5773860000000  0.4576500000000  0.6040620000000 1.0
C      1  0.5894400000000  0.5421460000000  0.5586350000000 1.0
C      1  0.4905350000000  0.4824200000000  0.5365920000000 1.0
C      1  0.5704570000000  0.4605680000000  0.4728370000000 1.0
C      1  0.4916840000000  0.5442250000000  0.6059590000000 1.0
C      1  0.5755850000000  0.5282630000000  0.5305660000000 1.0
C      1  0.5934110000000  0.5701910000000  0.5414170000000 1.0
C      1  0.5875930000000  0.4429640000000  0.5317460000000 1.0
C      1  0.5749700000000  0.4711940000000  0.5049000000000 1.0
C      1  0.4146040000000  0.4537440000000  0.5516050000000 1.0
C      1  0.4828130000000  0.4167910000000  0.5153090000000 1.0
C      1  0.4624370000000  0.4836630000000  0.3923820000000 1.0
C      1  0.4216140000000  0.4788530000000  0.4666530000000 1.0
C      1  0.4911410000000  0.5944470000000  0.4494160000000 1.0
C      1  0.4649240000000  0.5563730000000  0.5075180000000 1.0
C      1  0.4414880000000  0.4453620000000  0.5239320000000 1.0
C      1  0.5008650000000  0.4586450000000  0.4357880000000 1.0
C      1  0.5020420000000  0.5149350000000  0.4633970000000 1.0
C      1  0.4679860000000  0.5107340000000  0.5580990000000 1.0
C      1  0.4355850000000  0.5425350000000  0.4761340000000 1.0
C      1  0.5442870000000  0.4330790000000  0.5655090000000 1.0
C      1  0.6449340000000  0.5117530000000  0.5107940000000 1.0
C      1  0.5882140000000  0.5005430000000  0.5161130000000 1.0
C      1  0.4521780000000  0.4900400000000  0.4680840000000 1.0
C      1  0.5415020000000  0.4571890000000  0.4604980000000 1.0
C      1  0.5407390000000  0.5952370000000  0.5591940000000 1.0
C      1  0.5032190000000  0.4228880000000  0.4044690000000 1.0
C      1  0.4788140000000  0.5708140000000  0.5418760000000 1.0
C      1  0.5274250000000  0.4373590000000  0.4917960000000 1.0
END
