TITL C-2778429-3646-122 -0.0284191303868314 125000 -418.099164230293 0 0 74 (C1) n - 1
REM
REM in /home/nfs/bkarasulu/CARBON/AIRSS/Generating-Clusters/REBO/Only-C1/SD-CG/HFTN-CG
REM
REM
REM
REM
REM
REM ./C.cell (11c1c37f851c82e70ff6c80c92926a4b)
REM
REM compiler GCC version 9.2.1 20190827 (Red Hat 9.2.1-1)
REM options -cpp -mtune=generic -march=x86-64 -g -O0 -fpre-include=/usr/include/finclude/math-vector-fortran.h
REM seed 1598817685 -64119109 1336906213 -502160202 38141455 -1512032172 233950982 -1117588505 1408922725 849245975 -316582261 -1677374400 1200627233 -511542564 -1254884164 735110309 -1559600813 -713703998 -46856128 -684035059 1069664327 263512855 1176490082 1386863220 -1185732487 1224135170 -644619866 66337143 -534788823 1697016885 -1630963859 -796093751 1450826087
REM
CELL 1.54180   50.00000   50.00000   50.00000   90.00000   90.00000   90.00000
LATT -1
SFAC C  
C      1  0.4868850000000  0.5224620000000  0.5189610000000 1.0
C      1  0.5443980000000  0.4793440000000  0.5166480000000 1.0
C      1  0.5229340000000  0.4387090000000  0.4474470000000 1.0
C      1  0.5139300000000  0.5146900000000  0.5267990000000 1.0
C      1  0.5030300000000  0.4520120000000  0.4913140000000 1.0
C      1  0.5108720000000  0.4784830000000  0.5101180000000 1.0
C      1  0.5156650000000  0.4972490000000  0.4819800000000 1.0
C      1  0.4843460000000  0.4994490000000  0.5595500000000 1.0
C      1  0.5495720000000  0.5146830000000  0.4388290000000 1.0
C      1  0.5157960000000  0.5387900000000  0.5614990000000 1.0
C      1  0.4679370000000  0.4934710000000  0.4774750000000 1.0
C      1  0.4500670000000  0.5468610000000  0.4907380000000 1.0
C      1  0.5273900000000  0.5549940000000  0.5372950000000 1.0
C      1  0.4430180000000  0.5229900000000  0.5005030000000 1.0
C      1  0.4710230000000  0.4966630000000  0.4233070000000 1.0
C      1  0.5738260000000  0.5701650000000  0.5534360000000 1.0
C      1  0.4572970000000  0.5228550000000  0.4402790000000 1.0
C      1  0.5036350000000  0.4956380000000  0.4531430000000 1.0
C      1  0.4548570000000  0.5106810000000  0.5658820000000 1.0
C      1  0.4262840000000  0.4786840000000  0.4544540000000 1.0
C      1  0.4844360000000  0.4311820000000  0.4740800000000 1.0
C      1  0.4999610000000  0.5088020000000  0.4158860000000 1.0
C      1  0.4832790000000  0.4378260000000  0.5368400000000 1.0
C      1  0.5124570000000  0.4622900000000  0.5705460000000 1.0
C      1  0.5579460000000  0.5044010000000  0.4704200000000 1.0
C      1  0.4601400000000  0.4766190000000  0.5229760000000 1.0
C      1  0.5348250000000  0.5339180000000  0.5121990000000 1.0
C      1  0.5311280000000  0.4381130000000  0.5315550000000 1.0
C      1  0.5708710000000  0.5496230000000  0.5053750000000 1.0
C      1  0.4882510000000  0.5311270000000  0.5578710000000 1.0
C      1  0.5664100000000  0.5215530000000  0.5333560000000 1.0
C      1  0.5267400000000  0.5127040000000  0.5744130000000 1.0
C      1  0.4916700000000  0.4437890000000  0.5637150000000 1.0
C      1  0.5504000000000  0.4814020000000  0.4461900000000 1.0
C      1  0.5263440000000  0.4984120000000  0.5467210000000 1.0
C      1  0.5419200000000  0.4782060000000  0.4849270000000 1.0
C      1  0.4144610000000  0.5078410000000  0.4588620000000 1.0
C      1  0.4730620000000  0.4629880000000  0.4277550000000 1.0
C      1  0.5561140000000  0.5309970000000  0.4870850000000 1.0
C      1  0.5368300000000  0.4655140000000  0.5482680000000 1.0
C      1  0.5621970000000  0.4631950000000  0.5626480000000 1.0
C      1  0.4807700000000  0.5144540000000  0.4904750000000 1.0
C      1  0.4322670000000  0.5271580000000  0.4487160000000 1.0
C      1  0.5057770000000  0.4378190000000  0.5192350000000 1.0
C      1  0.4577080000000  0.4362810000000  0.4748180000000 1.0
C      1  0.4384380000000  0.4929950000000  0.5043820000000 1.0
C      1  0.4792200000000  0.5693970000000  0.5207960000000 1.0
C      1  0.4695030000000  0.5671710000000  0.4933130000000 1.0
C      1  0.5074090000000  0.5755630000000  0.5222810000000 1.0
C      1  0.3911790000000  0.4748280000000  0.4960520000000 1.0
C      1  0.5053460000000  0.4886050000000  0.5791240000000 1.0
C      1  0.5394260000000  0.5373740000000  0.4577460000000 1.0
C      1  0.4988600000000  0.4664800000000  0.4629830000000 1.0
C      1  0.4911290000000  0.5716550000000  0.4737550000000 1.0
C      1  0.4137690000000  0.4859050000000  0.4848470000000 1.0
C      1  0.4428920000000  0.4373200000000  0.5026780000000 1.0
C      1  0.4897510000000  0.5250690000000  0.4440640000000 1.0
C      1  0.4706600000000  0.5451460000000  0.5354580000000 1.0
C      1  0.4484310000000  0.5323920000000  0.5543850000000 1.0
C      1  0.5935280000000  0.4836990000000  0.5232340000000 1.0
C      1  0.5125860000000  0.5273730000000  0.4889120000000 1.0
C      1  0.4487040000000  0.4666540000000  0.4859880000000 1.0
C      1  0.4559290000000  0.4815320000000  0.4496870000000 1.0
C      1  0.4949420000000  0.4476940000000  0.4391960000000 1.0
C      1  0.5406690000000  0.4548450000000  0.4605100000000 1.0
C      1  0.5509840000000  0.4190870000000  0.5294450000000 1.0
C      1  0.4866670000000  0.4850640000000  0.5317960000000 1.0
C      1  0.4582810000000  0.4482230000000  0.5255260000000 1.0
C      1  0.5270870000000  0.5572530000000  0.4807930000000 1.0
C      1  0.5599070000000  0.5535330000000  0.5361270000000 1.0
C      1  0.5147690000000  0.5814560000000  0.4949700000000 1.0
C      1  0.5065640000000  0.5475030000000  0.4550390000000 1.0
C      1  0.5687490000000  0.4960980000000  0.5249020000000 1.0
C      1  0.5258980000000  0.4950010000000  0.4274210000000 1.0
END
