TITL C-2778436-5916-992 0.00199780692493251 125000 -622.903148594838 0 0 108 (C1) n - 1
REM
REM in /home/nfs/bkarasulu/CARBON/AIRSS/Generating-Clusters/REBO/Only-C1/SD-CG/HFTN-CG
REM
REM
REM
REM
REM
REM ./C.cell (11c1c37f851c82e70ff6c80c92926a4b)
REM
REM compiler GCC version 9.2.1 20190827 (Red Hat 9.2.1-1)
REM options -cpp -mtune=generic -march=x86-64 -g -O0 -fpre-include=/usr/include/finclude/math-vector-fortran.h
REM seed -328070101 1000038798 -320322375 -1136707138 -131719680 -1760831820 -1471807058 587399710 1341512141 -712613870 -431122471 2010571737 -1604191495 -384463122 1114814747 -1585762233 -2143608775 1026133171 -227973376 1463186743 1440037310 -340788929 2143170030 -2062637609 -1099470770 1177320833 -904020868 -1465781738 -1155083047 871624620 -1687337417 1619185590 1002222074
REM
CELL 1.54180   50.00000   50.00000   50.00000   90.00000   90.00000   90.00000
LATT -1
SFAC C  
C      1  0.4858720000000  0.5513940000000  0.5426260000000 1.0
C      1  0.4952510000000  0.4758350000000  0.5415120000000 1.0
C      1  0.5800980000000  0.5178130000000  0.4518170000000 1.0
C      1  0.4599330000000  0.4621030000000  0.5585700000000 1.0
C      1  0.5706220000000  0.4636250000000  0.5062860000000 1.0
C      1  0.5771740000000  0.4739530000000  0.5693670000000 1.0
C      1  0.4335710000000  0.4549850000000  0.4861460000000 1.0
C      1  0.4835990000000  0.4432760000000  0.5615330000000 1.0
C      1  0.4869230000000  0.4845090000000  0.4628790000000 1.0
C      1  0.4322010000000  0.5567720000000  0.5129930000000 1.0
C      1  0.4873990000000  0.5137230000000  0.5116720000000 1.0
C      1  0.5766600000000  0.4908730000000  0.4946060000000 1.0
C      1  0.5407560000000  0.4869510000000  0.4266440000000 1.0
C      1  0.5136270000000  0.5480380000000  0.4329020000000 1.0
C      1  0.5294840000000  0.4265890000000  0.5544470000000 1.0
C      1  0.4629030000000  0.5674750000000  0.5062690000000 1.0
C      1  0.4267500000000  0.5158630000000  0.4433110000000 1.0
C      1  0.5732490000000  0.4587910000000  0.4537890000000 1.0
C      1  0.4975700000000  0.4451980000000  0.5173540000000 1.0
C      1  0.5407130000000  0.4566950000000  0.5003590000000 1.0
C      1  0.4641170000000  0.4936360000000  0.5239320000000 1.0
C      1  0.5264420000000  0.5718510000000  0.4820280000000 1.0
C      1  0.5731280000000  0.5060450000000  0.5314370000000 1.0
C      1  0.4497310000000  0.4420250000000  0.4519280000000 1.0
C      1  0.5629990000000  0.5393160000000  0.4604740000000 1.0
C      1  0.5754780000000  0.4896600000000  0.4633180000000 1.0
C      1  0.5267020000000  0.4312680000000  0.4604130000000 1.0
C      1  0.4933210000000  0.4538340000000  0.4680690000000 1.0
C      1  0.4902040000000  0.4879350000000  0.5620970000000 1.0
C      1  0.4383890000000  0.4829250000000  0.4813090000000 1.0
C      1  0.4800250000000  0.4251510000000  0.5352400000000 1.0
C      1  0.5198830000000  0.5885480000000  0.5109390000000 1.0
C      1  0.6005230000000  0.5216730000000  0.4335280000000 1.0
C      1  0.5573980000000  0.4399460000000  0.4554730000000 1.0
C      1  0.5347490000000  0.5779430000000  0.5464640000000 1.0
C      1  0.4721100000000  0.5057310000000  0.5804990000000 1.0
C      1  0.5339470000000  0.5124170000000  0.5296250000000 1.0
C      1  0.5047270000000  0.5982980000000  0.4822710000000 1.0
C      1  0.4521220000000  0.5384730000000  0.4445520000000 1.0
C      1  0.5072030000000  0.5732000000000  0.5385900000000 1.0
C      1  0.5652960000000  0.4327960000000  0.5197280000000 1.0
C      1  0.4711780000000  0.5926930000000  0.5165860000000 1.0
C      1  0.4589780000000  0.5842040000000  0.4702070000000 1.0
C      1  0.4747960000000  0.5378930000000  0.5717190000000 1.0
C      1  0.4949580000000  0.4710410000000  0.4326180000000 1.0
C      1  0.4365400000000  0.4870350000000  0.4367000000000 1.0
C      1  0.5159280000000  0.4061470000000  0.5404290000000 1.0
C      1  0.5510750000000  0.5105050000000  0.5024980000000 1.0
C      1  0.4494700000000  0.4858410000000  0.5720730000000 1.0
C      1  0.5058510000000  0.5263140000000  0.5333020000000 1.0
C      1  0.4671460000000  0.5163030000000  0.5459810000000 1.0
C      1  0.5082200000000  0.5098350000000  0.6037670000000 1.0
C      1  0.5269870000000  0.4736470000000  0.5684980000000 1.0
C      1  0.5389640000000  0.5369390000000  0.4265190000000 1.0
C      1  0.5025590000000  0.5311190000000  0.5851560000000 1.0
C      1  0.5163590000000  0.4112160000000  0.4859120000000 1.0
C      1  0.4257370000000  0.5502860000000  0.4625010000000 1.0
C      1  0.4107690000000  0.4536560000000  0.5042890000000 1.0
C      1  0.4347540000000  0.5693880000000  0.4825580000000 1.0
C      1  0.5727760000000  0.4474940000000  0.5657370000000 1.0
C      1  0.4907440000000  0.4411490000000  0.4913050000000 1.0
C      1  0.4943600000000  0.5665710000000  0.4277840000000 1.0
C      1  0.5340260000000  0.4842490000000  0.5422330000000 1.0
C      1  0.4524900000000  0.5457940000000  0.5381500000000 1.0
C      1  0.5425980000000  0.5120670000000  0.4395570000000 1.0
C      1  0.4580750000000  0.4408930000000  0.5143690000000 1.0
C      1  0.5831980000000  0.5231830000000  0.5039780000000 1.0
C      1  0.5215620000000  0.5287330000000  0.5636280000000 1.0
C      1  0.4981550000000  0.4053640000000  0.5142360000000 1.0
C      1  0.4783830000000  0.6014830000000  0.4782360000000 1.0
C      1  0.4571990000000  0.4970390000000  0.4610550000000 1.0
C      1  0.5434610000000  0.4824610000000  0.4659040000000 1.0
C      1  0.5560550000000  0.5673730000000  0.5341470000000 1.0
C      1  0.4990110000000  0.4332970000000  0.4439760000000 1.0
C      1  0.5672210000000  0.5529650000000  0.5054060000000 1.0
C      1  0.5023190000000  0.5019580000000  0.4857030000000 1.0
C      1  0.4327330000000  0.5232130000000  0.5118340000000 1.0
C      1  0.5033500000000  0.5265850000000  0.4545480000000 1.0
C      1  0.5126680000000  0.4474620000000  0.5665790000000 1.0
C      1  0.5574550000000  0.4318770000000  0.5479140000000 1.0
C      1  0.5672580000000  0.4981020000000  0.5594740000000 1.0
C      1  0.4984830000000  0.5620820000000  0.4671210000000 1.0
C      1  0.4536070000000  0.4876240000000  0.4108480000000 1.0
C      1  0.4927140000000  0.6051210000000  0.5197210000000 1.0
C      1  0.5166810000000  0.4802130000000  0.4119240000000 1.0
C      1  0.5583750000000  0.5353390000000  0.5326710000000 1.0
C      1  0.4754860000000  0.5210450000000  0.4743590000000 1.0
C      1  0.4538170000000  0.4294970000000  0.4825140000000 1.0
C      1  0.5440200000000  0.5100070000000  0.5710070000000 1.0
C      1  0.4764770000000  0.5190590000000  0.4364780000000 1.0
C      1  0.4279380000000  0.5227000000000  0.5443680000000 1.0
C      1  0.4039290000000  0.4801560000000  0.5120490000000 1.0
C      1  0.4043360000000  0.5298380000000  0.4573470000000 1.0
C      1  0.5421090000000  0.4259490000000  0.4969050000000 1.0
C      1  0.4570430000000  0.4666620000000  0.5291000000000 1.0
C      1  0.5205170000000  0.4653210000000  0.5207950000000 1.0
C      1  0.5257670000000  0.4626750000000  0.4466170000000 1.0
C      1  0.5289190000000  0.4926960000000  0.5925480000000 1.0
C      1  0.5293370000000  0.5109190000000  0.4712980000000 1.0
C      1  0.4698790000000  0.5644530000000  0.4486530000000 1.0
C      1  0.5523140000000  0.5561130000000  0.4794930000000 1.0
C      1  0.4628720000000  0.5342700000000  0.5012110000000 1.0
C      1  0.4286750000000  0.4585970000000  0.4458930000000 1.0
C      1  0.4817890000000  0.4102920000000  0.4855570000000 1.0
C      1  0.4225150000000  0.4985870000000  0.4993240000000 1.0
C      1  0.4738810000000  0.5034910000000  0.4123340000000 1.0
C      1  0.4723000000000  0.4457380000000  0.4351340000000 1.0
C      1  0.4280090000000  0.5010530000000  0.5606700000000 1.0
END
