TITL C-2778427-5640-369 -0.0177007055091624 125000 -80.9724163478591 0 0 15 (C1) n - 1
REM
REM in /home/nfs/bkarasulu/CARBON/AIRSS/Generating-Clusters/REBO/Only-C1/SD-CG/HFTN-CG
REM
REM
REM
REM
REM
REM ./C.cell (11c1c37f851c82e70ff6c80c92926a4b)
REM
REM compiler GCC version 9.2.1 20190827 (Red Hat 9.2.1-1)
REM options -cpp -mtune=generic -march=x86-64 -g -O0 -fpre-include=/usr/include/finclude/math-vector-fortran.h
REM seed 1691335657 -1077311172 1007719868 -1943536351 -1541631939 2051725302 -491972549 -360619397 107936312 -1203724004 -810304937 -1757580016 524769821 1779884495 -939192603 -268647414 -1614683301 -1408499180 -1458371966 -434215677 718193036 1585837057 -1250272535 635906861 -1947878048 -585494326 290716122 685612291 1223770081 -1154963926 -1608954945 1725032723 816865612
REM
CELL 1.54180   50.00000   50.00000   50.00000   90.00000   90.00000   90.00000
LATT -1
SFAC C  
C      1  0.5075440000000  0.4992730000000  0.4545590000000 1.0
C      1  0.5102000000000  0.5258080000000  0.4627590000000 1.0
C      1  0.4995770000000  0.4806580000000  0.4740480000000 1.0
C      1  0.4921630000000  0.5450350000000  0.4810460000000 1.0
C      1  0.4850410000000  0.4633060000000  0.5233930000000 1.0
C      1  0.4721610000000  0.4135300000000  0.5402190000000 1.0
C      1  0.5261160000000  0.5443400000000  0.4865040000000 1.0
C      1  0.4921280000000  0.4685090000000  0.4967000000000 1.0
C      1  0.4953850000000  0.5354700000000  0.5346600000000 1.0
C      1  0.4849780000000  0.4852990000000  0.5409480000000 1.0
C      1  0.4886930000000  0.5116030000000  0.5453320000000 1.0
C      1  0.4784010000000  0.4376430000000  0.5320680000000 1.0
C      1  0.5124990000000  0.4916420000000  0.4289030000000 1.0
C      1  0.5522910000000  0.5505710000000  0.4877260000000 1.0
C      1  0.5028220000000  0.5473120000000  0.5111340000000 1.0
END
