TITL C-2778427-5640-1467 -0.000461614485599356 125000 -633.141325483154 0 0 112 (C1) n - 1
REM
REM in /home/nfs/bkarasulu/CARBON/AIRSS/Generating-Clusters/REBO/Only-C1/SD-CG/HFTN-CG
REM
REM
REM
REM
REM
REM ./C.cell (11c1c37f851c82e70ff6c80c92926a4b)
REM
REM compiler GCC version 9.2.1 20190827 (Red Hat 9.2.1-1)
REM options -cpp -mtune=generic -march=x86-64 -g -O0 -fpre-include=/usr/include/finclude/math-vector-fortran.h
REM seed 1859273485 -1495177573 819151157 -2011336098 -1465373327 -497899767 -904258792 1058988968 1122339052 -845492521 1760562626 -1770228806 -1374406977 1643137820 -1476884729 128343823 -2062133269 -2145725279 1696865966 -347303008 -1837380257 -1180952435 139060835 -1828130331 891928390 2106872911 455349846 801647736 -1480027938 -1820670077 -1932683987 -1969022935 2038566396
REM
CELL 1.54180   50.00000   50.00000   50.00000   90.00000   90.00000   90.00000
LATT -1
SFAC C  
C      1  0.4959580000000  0.4885770000000  0.5769700000000 1.0
C      1  0.4547200000000  0.4388140000000  0.4753780000000 1.0
C      1  0.5519600000000  0.5383340000000  0.4212090000000 1.0
C      1  0.5067770000000  0.5366910000000  0.5420090000000 1.0
C      1  0.5582980000000  0.5280730000000  0.5407910000000 1.0
C      1  0.4186010000000  0.4979890000000  0.5479810000000 1.0
C      1  0.5418810000000  0.5281390000000  0.5770600000000 1.0
C      1  0.4711080000000  0.5026360000000  0.4571680000000 1.0
C      1  0.5644460000000  0.5442110000000  0.4921930000000 1.0
C      1  0.4576460000000  0.5536580000000  0.4573060000000 1.0
C      1  0.5544370000000  0.5072980000000  0.4195300000000 1.0
C      1  0.4413280000000  0.4625470000000  0.4337880000000 1.0
C      1  0.4736000000000  0.4883690000000  0.5316170000000 1.0
C      1  0.4735560000000  0.5582630000000  0.5366100000000 1.0
C      1  0.4866420000000  0.4382020000000  0.5778280000000 1.0
C      1  0.4846500000000  0.4398940000000  0.4918820000000 1.0
C      1  0.4386570000000  0.5404970000000  0.5301990000000 1.0
C      1  0.5691650000000  0.4658200000000  0.5312780000000 1.0
C      1  0.4261550000000  0.4588110000000  0.5483110000000 1.0
C      1  0.5526000000000  0.4388450000000  0.5219860000000 1.0
C      1  0.5044130000000  0.5382530000000  0.4806500000000 1.0
C      1  0.5176170000000  0.4074430000000  0.5213940000000 1.0
C      1  0.4238080000000  0.5154480000000  0.5682760000000 1.0
C      1  0.4410790000000  0.5373290000000  0.5604600000000 1.0
C      1  0.4951230000000  0.4965740000000  0.5092620000000 1.0
C      1  0.5163190000000  0.5088450000000  0.6195310000000 1.0
C      1  0.5260190000000  0.4648330000000  0.5594730000000 1.0
C      1  0.4457900000000  0.5282710000000  0.4399650000000 1.0
C      1  0.5818940000000  0.4670990000000  0.4676240000000 1.0
C      1  0.4982050000000  0.4246960000000  0.5273150000000 1.0
C      1  0.5490420000000  0.5692710000000  0.4651100000000 1.0
C      1  0.4971630000000  0.4569440000000  0.5185590000000 1.0
C      1  0.4614910000000  0.4365700000000  0.5172980000000 1.0
C      1  0.4491380000000  0.4890810000000  0.4385680000000 1.0
C      1  0.4685840000000  0.5354520000000  0.5688380000000 1.0
C      1  0.5236000000000  0.4771330000000  0.4288950000000 1.0
C      1  0.4046550000000  0.4347160000000  0.4780930000000 1.0
C      1  0.5424820000000  0.5513610000000  0.5517640000000 1.0
C      1  0.5102580000000  0.5393780000000  0.5731230000000 1.0
C      1  0.5634420000000  0.4919980000000  0.4424550000000 1.0
C      1  0.5230670000000  0.5551750000000  0.4275440000000 1.0
C      1  0.5179450000000  0.4734660000000  0.4991780000000 1.0
C      1  0.5214380000000  0.5771770000000  0.4515060000000 1.0
C      1  0.5053400000000  0.4590770000000  0.6176090000000 1.0
C      1  0.4320830000000  0.5060000000000  0.4619150000000 1.0
C      1  0.5107640000000  0.4769290000000  0.5402590000000 1.0
C      1  0.5096470000000  0.3970300000000  0.4837650000000 1.0
C      1  0.5688520000000  0.4823190000000  0.4865020000000 1.0
C      1  0.4309310000000  0.5097500000000  0.5199960000000 1.0
C      1  0.4044230000000  0.5216110000000  0.5018700000000 1.0
C      1  0.5191520000000  0.5162440000000  0.4355330000000 1.0
C      1  0.4880570000000  0.5625720000000  0.5660420000000 1.0
C      1  0.5457650000000  0.4158120000000  0.4811910000000 1.0
C      1  0.5272540000000  0.4980690000000  0.4057690000000 1.0
C      1  0.5363740000000  0.4376540000000  0.4640890000000 1.0
C      1  0.5892180000000  0.4868230000000  0.5319320000000 1.0
C      1  0.4912990000000  0.5897330000000  0.4488120000000 1.0
C      1  0.4666540000000  0.5200520000000  0.4206670000000 1.0
C      1  0.4507180000000  0.5287530000000  0.4793890000000 1.0
C      1  0.4457990000000  0.4622770000000  0.5670530000000 1.0
C      1  0.4837570000000  0.4442490000000  0.4362730000000 1.0
C      1  0.5158720000000  0.5080380000000  0.5311130000000 1.0
C      1  0.5341820000000  0.5844220000000  0.5074310000000 1.0
C      1  0.5772990000000  0.5336820000000  0.4390100000000 1.0
C      1  0.5543170000000  0.5390910000000  0.4610050000000 1.0
C      1  0.4932730000000  0.4721770000000  0.4400380000000 1.0
C      1  0.4572630000000  0.4421230000000  0.4451740000000 1.0
C      1  0.4285050000000  0.4533910000000  0.4848030000000 1.0
C      1  0.4827940000000  0.5317580000000  0.4550750000000 1.0
C      1  0.5240280000000  0.5607010000000  0.5279790000000 1.0
C      1  0.5488900000000  0.4514480000000  0.5533690000000 1.0
C      1  0.4025740000000  0.4913310000000  0.4989690000000 1.0
C      1  0.4784460000000  0.5277980000000  0.5277860000000 1.0
C      1  0.5110380000000  0.5847940000000  0.4830570000000 1.0
C      1  0.4590460000000  0.5561220000000  0.5073330000000 1.0
C      1  0.5883830000000  0.4991690000000  0.5069870000000 1.0
C      1  0.5168070000000  0.5304310000000  0.4043460000000 1.0
C      1  0.4864260000000  0.5651300000000  0.4932070000000 1.0
C      1  0.5466070000000  0.4677530000000  0.5050250000000 1.0
C      1  0.5579150000000  0.5771690000000  0.4929020000000 1.0
C      1  0.5437490000000  0.5130320000000  0.5207200000000 1.0
C      1  0.5710010000000  0.5151560000000  0.5651350000000 1.0
C      1  0.4953360000000  0.4761220000000  0.4738380000000 1.0
C      1  0.5836940000000  0.5194210000000  0.4861410000000 1.0
C      1  0.4345270000000  0.4528550000000  0.5164650000000 1.0
C      1  0.5467770000000  0.5059380000000  0.4931410000000 1.0
C      1  0.5921040000000  0.4986560000000  0.5574370000000 1.0
C      1  0.4760220000000  0.4383220000000  0.5468380000000 1.0
C      1  0.4290200000000  0.5428910000000  0.4980810000000 1.0
C      1  0.4681610000000  0.5813470000000  0.4523630000000 1.0
C      1  0.4961910000000  0.5916400000000  0.5131360000000 1.0
C      1  0.4540380000000  0.4932140000000  0.5083220000000 1.0
C      1  0.5152510000000  0.5104980000000  0.5891270000000 1.0
C      1  0.5313880000000  0.5455730000000  0.5001470000000 1.0
C      1  0.4662480000000  0.4868530000000  0.4835120000000 1.0
C      1  0.4813760000000  0.5093870000000  0.5564220000000 1.0
C      1  0.4897010000000  0.5855900000000  0.5407730000000 1.0
C      1  0.5232790000000  0.4865280000000  0.4618630000000 1.0
C      1  0.5070560000000  0.4240180000000  0.4755970000000 1.0
C      1  0.5813740000000  0.5098030000000  0.4589310000000 1.0
C      1  0.4959150000000  0.4600920000000  0.5915890000000 1.0
C      1  0.4102550000000  0.4758780000000  0.5241600000000 1.0
C      1  0.5016730000000  0.4256160000000  0.4443110000000 1.0
C      1  0.4919190000000  0.5010060000000  0.4239020000000 1.0
C      1  0.5418480000000  0.4153240000000  0.5092430000000 1.0
C      1  0.5454600000000  0.4643550000000  0.4514840000000 1.0
C      1  0.4751630000000  0.4701680000000  0.5570630000000 1.0
C      1  0.4790160000000  0.5221570000000  0.4966470000000 1.0
C      1  0.4573570000000  0.4116920000000  0.4961330000000 1.0
C      1  0.4917510000000  0.5420510000000  0.4238460000000 1.0
C      1  0.5292390000000  0.5185940000000  0.4666870000000 1.0
C      1  0.4196030000000  0.4825620000000  0.4776990000000 1.0
END
