TITL C-2778436-5916-141 -0.0181849756032105 125000 -826.119603601226 0 0 141 (C1) n - 1
REM
REM in /home/nfs/bkarasulu/CARBON/AIRSS/Generating-Clusters/REBO/Only-C1/SD-CG/HFTN-CG
REM
REM
REM
REM
REM
REM ./C.cell (11c1c37f851c82e70ff6c80c92926a4b)
REM
REM compiler GCC version 9.2.1 20190827 (Red Hat 9.2.1-1)
REM options -cpp -mtune=generic -march=x86-64 -g -O0 -fpre-include=/usr/include/finclude/math-vector-fortran.h
REM seed 664214544 2145978915 202575303 750901680 -440974651 1437020296 824053278 -1185605 703239606 1998319713 -294018437 -1051702834 -1862920488 -1173818835 -885857410 1093181080 -688499370 -1507770958 -495212398 88042409 -1353354193 821619061 -476754866 12471888 -2020853075 1246303929 1362550983 848029585 1607788472 -570805493 -636197386 -233250742 -612148188
REM
CELL 1.54180   50.00000   50.00000   50.00000   90.00000   90.00000   90.00000
LATT -1
SFAC C  
C      1  0.4388840000000  0.5145230000000  0.5046770000000 1.0
C      1  0.4610290000000  0.5292360000000  0.4874660000000 1.0
C      1  0.4699960000000  0.6015770000000  0.4890920000000 1.0
C      1  0.5441270000000  0.4910930000000  0.5277780000000 1.0
C      1  0.5135800000000  0.6012140000000  0.5190210000000 1.0
C      1  0.4331620000000  0.5165770000000  0.4372230000000 1.0
C      1  0.5410010000000  0.4824200000000  0.4049090000000 1.0
C      1  0.4228610000000  0.4990670000000  0.4714730000000 1.0
C      1  0.5074920000000  0.5092520000000  0.5036920000000 1.0
C      1  0.5294600000000  0.5818990000000  0.4275800000000 1.0
C      1  0.5245690000000  0.5620760000000  0.4821670000000 1.0
C      1  0.4335870000000  0.5514370000000  0.5380330000000 1.0
C      1  0.4356250000000  0.5693410000000  0.5091580000000 1.0
C      1  0.5194680000000  0.4741040000000  0.5778910000000 1.0
C      1  0.4089070000000  0.5296860000000  0.5291710000000 1.0
C      1  0.4861470000000  0.4630370000000  0.4114340000000 1.0
C      1  0.5158040000000  0.3968260000000  0.4808830000000 1.0
C      1  0.5106730000000  0.5427490000000  0.4987720000000 1.0
C      1  0.5555290000000  0.4628940000000  0.5393510000000 1.0
C      1  0.5196310000000  0.4148990000000  0.4548540000000 1.0
C      1  0.5553670000000  0.5418500000000  0.5296400000000 1.0
C      1  0.4490600000000  0.4865540000000  0.4780030000000 1.0
C      1  0.4086400000000  0.4920090000000  0.5621840000000 1.0
C      1  0.4701040000000  0.4132640000000  0.5030450000000 1.0
C      1  0.4366720000000  0.5446530000000  0.4536200000000 1.0
C      1  0.4689920000000  0.4816890000000  0.4438640000000 1.0
C      1  0.5816590000000  0.4627100000000  0.4532910000000 1.0
C      1  0.5916650000000  0.5364000000000  0.4638980000000 1.0
C      1  0.5676440000000  0.4769820000000  0.4254170000000 1.0
C      1  0.4081690000000  0.5021590000000  0.5344970000000 1.0
C      1  0.4492780000000  0.5312100000000  0.5832800000000 1.0
C      1  0.5767520000000  0.4864840000000  0.5699800000000 1.0
C      1  0.5512330000000  0.5764190000000  0.4956850000000 1.0
C      1  0.4903040000000  0.4470220000000  0.5763840000000 1.0
C      1  0.4352310000000  0.4728960000000  0.5840540000000 1.0
C      1  0.4980060000000  0.5828750000000  0.4371920000000 1.0
C      1  0.5156010000000  0.5213940000000  0.5971000000000 1.0
C      1  0.4369370000000  0.4628340000000  0.4230290000000 1.0
C      1  0.5076170000000  0.5338600000000  0.5442240000000 1.0
C      1  0.5023870000000  0.4224430000000  0.4323660000000 1.0
C      1  0.5571540000000  0.4948020000000  0.5890460000000 1.0
C      1  0.4725940000000  0.5269210000000  0.5986100000000 1.0
C      1  0.4920790000000  0.5514720000000  0.4250510000000 1.0
C      1  0.5044180000000  0.5281390000000  0.4047900000000 1.0
C      1  0.4555320000000  0.5024900000000  0.4306480000000 1.0
C      1  0.4800880000000  0.5015900000000  0.6053020000000 1.0
C      1  0.5461250000000  0.5020080000000  0.4970780000000 1.0
C      1  0.5451420000000  0.5531400000000  0.4252960000000 1.0
C      1  0.5550430000000  0.5284260000000  0.4919960000000 1.0
C      1  0.5901330000000  0.4612000000000  0.5196070000000 1.0
C      1  0.4499700000000  0.5586710000000  0.4801780000000 1.0
C      1  0.5501640000000  0.5698180000000  0.5266100000000 1.0
C      1  0.4962030000000  0.4830370000000  0.4491540000000 1.0
C      1  0.5463500000000  0.4305840000000  0.5180320000000 1.0
C      1  0.4223510000000  0.4386760000000  0.5195140000000 1.0
C      1  0.4489770000000  0.4600210000000  0.4607790000000 1.0
C      1  0.4589330000000  0.4509530000000  0.5850950000000 1.0
C      1  0.5848690000000  0.4632810000000  0.5498480000000 1.0
C      1  0.5429560000000  0.4625510000000  0.4925410000000 1.0
C      1  0.4824300000000  0.5980730000000  0.5201130000000 1.0
C      1  0.5414960000000  0.5582420000000  0.5710080000000 1.0
C      1  0.4762640000000  0.4925180000000  0.4832150000000 1.0
C      1  0.4906500000000  0.4907450000000  0.4051750000000 1.0
C      1  0.4978110000000  0.4823260000000  0.5453420000000 1.0
C      1  0.4799050000000  0.5628140000000  0.5642450000000 1.0
C      1  0.5566240000000  0.4467200000000  0.4366300000000 1.0
C      1  0.4748040000000  0.5764400000000  0.4690550000000 1.0
C      1  0.5226020000000  0.4425610000000  0.5659710000000 1.0
C      1  0.4994020000000  0.4324650000000  0.4842750000000 1.0
C      1  0.5983710000000  0.5199570000000  0.5127630000000 1.0
C      1  0.4245990000000  0.4789330000000  0.4473030000000 1.0
C      1  0.5245120000000  0.4946120000000  0.5512420000000 1.0
C      1  0.5715170000000  0.5557200000000  0.4838280000000 1.0
C      1  0.5074640000000  0.5884290000000  0.4687900000000 1.0
C      1  0.5098940000000  0.4453600000000  0.4154600000000 1.0
C      1  0.5132380000000  0.5119880000000  0.4506500000000 1.0
C      1  0.4966660000000  0.3927730000000  0.5567960000000 1.0
C      1  0.4451770000000  0.4314020000000  0.4655330000000 1.0
C      1  0.4336920000000  0.4856450000000  0.5148630000000 1.0
C      1  0.4624540000000  0.4483800000000  0.4228670000000 1.0
C      1  0.5917120000000  0.5113790000000  0.4520190000000 1.0
C      1  0.4668570000000  0.5711680000000  0.5141440000000 1.0
C      1  0.4113390000000  0.4599770000000  0.5632700000000 1.0
C      1  0.4939510000000  0.5494550000000  0.4587550000000 1.0
C      1  0.5363690000000  0.4548710000000  0.4139420000000 1.0
C      1  0.4141120000000  0.5457490000000  0.5037800000000 1.0
C      1  0.4952910000000  0.5468620000000  0.5901280000000 1.0
C      1  0.5180570000000  0.4625390000000  0.5024120000000 1.0
C      1  0.4730700000000  0.5193120000000  0.4113850000000 1.0
C      1  0.5264510000000  0.5819520000000  0.5386270000000 1.0
C      1  0.4871500000000  0.4791270000000  0.5862810000000 1.0
C      1  0.5353500000000  0.5128430000000  0.5746310000000 1.0
C      1  0.4740930000000  0.4253970000000  0.4387310000000 1.0
C      1  0.4220960000000  0.5291210000000  0.4783390000000 1.0
C      1  0.5357490000000  0.4404430000000  0.4600570000000 1.0
C      1  0.4648270000000  0.5781720000000  0.4363900000000 1.0
C      1  0.5585810000000  0.5245720000000  0.4204880000000 1.0
C      1  0.4365380000000  0.4394610000000  0.5637990000000 1.0
C      1  0.5692610000000  0.4810840000000  0.4911310000000 1.0
C      1  0.4479040000000  0.5016700000000  0.5563890000000 1.0
C      1  0.4732020000000  0.4180910000000  0.4704840000000 1.0
C      1  0.5165900000000  0.5472390000000  0.5666890000000 1.0
C      1  0.5292260000000  0.5278230000000  0.5225270000000 1.0
C      1  0.5195520000000  0.4983380000000  0.3989900000000 1.0
C      1  0.4582860000000  0.4518840000000  0.5451780000000 1.0
C      1  0.4805200000000  0.5274790000000  0.5314960000000 1.0
C      1  0.4987250000000  0.4010110000000  0.5087620000000 1.0
C      1  0.6002130000000  0.5403810000000  0.4937910000000 1.0
C      1  0.4133200000000  0.4657950000000  0.5303270000000 1.0
C      1  0.5168970000000  0.4646230000000  0.4625880000000 1.0
C      1  0.4397010000000  0.4217960000000  0.5135790000000 1.0
C      1  0.5252300000000  0.5573990000000  0.4512170000000 1.0
C      1  0.5258630000000  0.5249920000000  0.4280260000000 1.0
C      1  0.5004010000000  0.4399950000000  0.5174330000000 1.0
C      1  0.5783560000000  0.5245270000000  0.5326460000000 1.0
C      1  0.4681650000000  0.4798590000000  0.5590600000000 1.0
C      1  0.5769300000000  0.5059850000000  0.4289490000000 1.0
C      1  0.4944530000000  0.5790450000000  0.5460660000000 1.0
C      1  0.4495830000000  0.5226940000000  0.5348030000000 1.0
C      1  0.5702820000000  0.4998540000000  0.5435880000000 1.0
C      1  0.5987650000000  0.4897490000000  0.5031920000000 1.0
C      1  0.5088870000000  0.4055880000000  0.5359370000000 1.0
C      1  0.4295920000000  0.5064560000000  0.5828750000000 1.0
C      1  0.4871750000000  0.5199870000000  0.4704540000000 1.0
C      1  0.5266630000000  0.5998450000000  0.4930920000000 1.0
C      1  0.5205450000000  0.4944570000000  0.4785830000000 1.0
C      1  0.4695290000000  0.4471520000000  0.5059280000000 1.0
C      1  0.5289910000000  0.4268370000000  0.5423040000000 1.0
C      1  0.5726970000000  0.4415970000000  0.5076940000000 1.0
C      1  0.4532420000000  0.5511820000000  0.5631650000000 1.0
C      1  0.4902560000000  0.4703000000000  0.4934820000000 1.0
C      1  0.5279840000000  0.4910130000000  0.6062060000000 1.0
C      1  0.5659560000000  0.4446120000000  0.4752440000000 1.0
C      1  0.4837210000000  0.4971260000000  0.5221830000000 1.0
C      1  0.4907270000000  0.4506880000000  0.5436800000000 1.0
C      1  0.4586050000000  0.5458570000000  0.4275680000000 1.0
C      1  0.4461140000000  0.5992040000000  0.4259670000000 1.0
C      1  0.5942510000000  0.4867960000000  0.4695270000000 1.0
C      1  0.4607680000000  0.4749110000000  0.5200850000000 1.0
C      1  0.4805930000000  0.5459450000000  0.5068560000000 1.0
C      1  0.5291790000000  0.4232390000000  0.4954040000000 1.0
END
