TITL C-2778429-3646-353 0.0208487921804306 125000 -120.479624766939 0 0 22 (C1) n - 1
REM
REM in /home/nfs/bkarasulu/CARBON/AIRSS/Generating-Clusters/REBO/Only-C1/SD-CG/HFTN-CG
REM
REM
REM
REM
REM
REM ./C.cell (11c1c37f851c82e70ff6c80c92926a4b)
REM
REM compiler GCC version 9.2.1 20190827 (Red Hat 9.2.1-1)
REM options -cpp -mtune=generic -march=x86-64 -g -O0 -fpre-include=/usr/include/finclude/math-vector-fortran.h
REM seed 1421678738 -148265318 -974756097 172037768 -1895830913 1076673998 -477700256 825691467 827606642 835569315 -350253709 -1297715155 -1695447210 1456117948 1750170808 909768255 101623044 1519444323 -2130358215 -959207067 -1632857778 817069741 -2019172263 -2117378881 500098022 -1898885912 759437972 674938799 1355376743 -332191805 986820438 1818838183 -94214301
REM
CELL 1.54180   50.00000   50.00000   50.00000   90.00000   90.00000   90.00000
LATT -1
SFAC C  
C      1  0.4853060000000  0.4967660000000  0.4517100000000 1.0
C      1  0.4926880000000  0.5187230000000  0.5184200000000 1.0
C      1  0.4531080000000  0.4646090000000  0.4366730000000 1.0
C      1  0.5718030000000  0.4610670000000  0.5128200000000 1.0
C      1  0.4856710000000  0.5484370000000  0.4709180000000 1.0
C      1  0.4650520000000  0.4782400000000  0.5710120000000 1.0
C      1  0.5295210000000  0.4605640000000  0.5360260000000 1.0
C      1  0.4778570000000  0.5588670000000  0.4950740000000 1.0
C      1  0.5629710000000  0.5433500000000  0.4946610000000 1.0
C      1  0.5448650000000  0.5236550000000  0.4969920000000 1.0
C      1  0.4826510000000  0.4802710000000  0.5503740000000 1.0
C      1  0.4815950000000  0.5449410000000  0.5186560000000 1.0
C      1  0.5468700000000  0.4712390000000  0.5166250000000 1.0
C      1  0.4536790000000  0.4801730000000  0.4822740000000 1.0
C      1  0.4766210000000  0.4964120000000  0.5270410000000 1.0
C      1  0.5378670000000  0.4939360000000  0.5039940000000 1.0
C      1  0.5003410000000  0.5212240000000  0.4693340000000 1.0
C      1  0.5065640000000  0.4656030000000  0.5491590000000 1.0
C      1  0.5101310000000  0.5108800000000  0.4384070000000 1.0
C      1  0.4637640000000  0.4805050000000  0.4560030000000 1.0
C      1  0.4584080000000  0.4862370000000  0.5080760000000 1.0
C      1  0.5126690000000  0.5143010000000  0.4957530000000 1.0
END
