TITL C-2778431-5191-903 -0.00435585555273889 125000 -832.86245035326 0 0 143 (C1) n - 1
REM
REM in /home/nfs/bkarasulu/CARBON/AIRSS/Generating-Clusters/REBO/Only-C1/SD-CG/HFTN-CG
REM
REM
REM
REM
REM
REM ./C.cell (11c1c37f851c82e70ff6c80c92926a4b)
REM
REM compiler GCC version 9.2.1 20190827 (Red Hat 9.2.1-1)
REM options -cpp -mtune=generic -march=x86-64 -g -O0 -fpre-include=/usr/include/finclude/math-vector-fortran.h
REM seed -831337307 -1110126857 -309939290 -1659792915 622287139 58143396 219332592 -940988642 1195401273 -506259597 1786734946 1900735741 1905273152 1626409086 1131001889 2014796052 1513615072 -1819058323 -29918834 -327229917 582458541 1384955931 1898562467 -1541603450 1994339913 -827666808 420594598 -1471009853 -2057490603 -734400872 -10494051 -438114046 -1225882845
REM
CELL 1.54180   50.00000   50.00000   50.00000   90.00000   90.00000   90.00000
LATT -1
SFAC C  
C      1  0.4485360000000  0.5300210000000  0.4866020000000 1.0
C      1  0.5843860000000  0.4690210000000  0.5153610000000 1.0
C      1  0.4928910000000  0.4684930000000  0.4396370000000 1.0
C      1  0.4113310000000  0.5410740000000  0.4959350000000 1.0
C      1  0.4030320000000  0.5214150000000  0.5219990000000 1.0
C      1  0.5918780000000  0.4959430000000  0.5330460000000 1.0
C      1  0.5169030000000  0.5388650000000  0.4076750000000 1.0
C      1  0.5035620000000  0.6016230000000  0.5204220000000 1.0
C      1  0.4254790000000  0.4610750000000  0.4322820000000 1.0
C      1  0.4566300000000  0.4324140000000  0.4626060000000 1.0
C      1  0.5045410000000  0.5586520000000  0.4227490000000 1.0
C      1  0.4572270000000  0.4831930000000  0.5744360000000 1.0
C      1  0.4680850000000  0.4297600000000  0.5333290000000 1.0
C      1  0.4538390000000  0.4488820000000  0.5087090000000 1.0
C      1  0.4694170000000  0.4942920000000  0.4031780000000 1.0
C      1  0.5710980000000  0.5251360000000  0.5697700000000 1.0
C      1  0.5745460000000  0.5750780000000  0.5218010000000 1.0
C      1  0.4286990000000  0.5537610000000  0.4743930000000 1.0
C      1  0.5292310000000  0.4380010000000  0.5169550000000 1.0
C      1  0.4838480000000  0.4560590000000  0.4995030000000 1.0
C      1  0.5912190000000  0.5142840000000  0.4925260000000 1.0
C      1  0.5612840000000  0.4365610000000  0.5144900000000 1.0
C      1  0.4778150000000  0.5669800000000  0.4167040000000 1.0
C      1  0.4559750000000  0.4532670000000  0.4414070000000 1.0
C      1  0.5554830000000  0.5388950000000  0.4571880000000 1.0
C      1  0.4110540000000  0.4555230000000  0.5090590000000 1.0
C      1  0.5337300000000  0.4819900000000  0.5770750000000 1.0
C      1  0.4840610000000  0.4997680000000  0.5670860000000 1.0
C      1  0.4252840000000  0.4883080000000  0.4761850000000 1.0
C      1  0.5536850000000  0.5906700000000  0.5103980000000 1.0
C      1  0.5897980000000  0.5433750000000  0.4748790000000 1.0
C      1  0.4665750000000  0.5571230000000  0.5098120000000 1.0
C      1  0.5464910000000  0.4897960000000  0.4673730000000 1.0
C      1  0.5114120000000  0.5134570000000  0.5304660000000 1.0
C      1  0.5037320000000  0.4891700000000  0.5079480000000 1.0
C      1  0.4568660000000  0.5477190000000  0.4024840000000 1.0
C      1  0.5262090000000  0.4657790000000  0.5309090000000 1.0
C      1  0.6029730000000  0.4863080000000  0.4771540000000 1.0
C      1  0.4404500000000  0.4119790000000  0.5022560000000 1.0
C      1  0.5106990000000  0.5578640000000  0.4537070000000 1.0
C      1  0.5319560000000  0.5975840000000  0.5279680000000 1.0
C      1  0.5042390000000  0.5037890000000  0.6124050000000 1.0
C      1  0.5098300000000  0.5275390000000  0.4992040000000 1.0
C      1  0.4921300000000  0.5726200000000  0.5143040000000 1.0
C      1  0.4587730000000  0.4207680000000  0.5630600000000 1.0
C      1  0.5418980000000  0.5125190000000  0.5758880000000 1.0
C      1  0.5096770000000  0.4475420000000  0.4206790000000 1.0
C      1  0.4408400000000  0.5180400000000  0.5113780000000 1.0
C      1  0.5065190000000  0.4969120000000  0.5866080000000 1.0
C      1  0.5400150000000  0.5115060000000  0.4472550000000 1.0
C      1  0.4226000000000  0.4700620000000  0.5377280000000 1.0
C      1  0.4460560000000  0.4865300000000  0.5218730000000 1.0
C      1  0.4651080000000  0.4369250000000  0.3930560000000 1.0
C      1  0.4919450000000  0.4447440000000  0.5614690000000 1.0
C      1  0.4914620000000  0.4726610000000  0.4707760000000 1.0
C      1  0.5196900000000  0.5819100000000  0.4744590000000 1.0
C      1  0.4323630000000  0.4267690000000  0.4773360000000 1.0
C      1  0.4910020000000  0.4971810000000  0.4267640000000 1.0
C      1  0.5929450000000  0.5258510000000  0.5246010000000 1.0
C      1  0.5354690000000  0.4422540000000  0.4226570000000 1.0
C      1  0.5377440000000  0.4201720000000  0.4642900000000 1.0
C      1  0.4423560000000  0.5634180000000  0.4268560000000 1.0
C      1  0.5015970000000  0.5761970000000  0.5660990000000 1.0
C      1  0.4704040000000  0.5281450000000  0.4677390000000 1.0
C      1  0.5679110000000  0.5685540000000  0.4682930000000 1.0
C      1  0.4132190000000  0.4487300000000  0.4808990000000 1.0
C      1  0.5329580000000  0.5496230000000  0.5645290000000 1.0
C      1  0.5292190000000  0.4167520000000  0.5609330000000 1.0
C      1  0.4693640000000  0.4081090000000  0.5000060000000 1.0
C      1  0.5645000000000  0.5348450000000  0.4262270000000 1.0
C      1  0.5512030000000  0.4325390000000  0.5604230000000 1.0
C      1  0.5677240000000  0.4911280000000  0.4943790000000 1.0
C      1  0.5593800000000  0.4641880000000  0.5671480000000 1.0
C      1  0.4752810000000  0.4982620000000  0.4973560000000 1.0
C      1  0.4932330000000  0.5971900000000  0.4791480000000 1.0
C      1  0.4275380000000  0.5007970000000  0.4344480000000 1.0
C      1  0.5094500000000  0.5657080000000  0.5367480000000 1.0
C      1  0.4766240000000  0.5002240000000  0.4573750000000 1.0
C      1  0.5738830000000  0.4484160000000  0.5403260000000 1.0
C      1  0.5865380000000  0.4754900000000  0.4356470000000 1.0
C      1  0.4703880000000  0.5526740000000  0.5908540000000 1.0
C      1  0.4917770000000  0.5339670000000  0.5893390000000 1.0
C      1  0.5536040000000  0.5395060000000  0.4912840000000 1.0
C      1  0.5681450000000  0.4107640000000  0.5042350000000 1.0
C      1  0.4792730000000  0.5528300000000  0.4543840000000 1.0
C      1  0.4644440000000  0.5813310000000  0.4422200000000 1.0
C      1  0.4756930000000  0.3985750000000  0.5744690000000 1.0
C      1  0.4793030000000  0.5283060000000  0.5120470000000 1.0
C      1  0.4739700000000  0.5740690000000  0.5721900000000 1.0
C      1  0.4589180000000  0.5831330000000  0.5488440000000 1.0
C      1  0.5226990000000  0.5332160000000  0.5925790000000 1.0
C      1  0.4291300000000  0.4328460000000  0.5250410000000 1.0
C      1  0.5144660000000  0.3986830000000  0.4772710000000 1.0
C      1  0.5657770000000  0.4870520000000  0.5456720000000 1.0
C      1  0.5336410000000  0.5809770000000  0.5557210000000 1.0
C      1  0.5404070000000  0.5239610000000  0.5441900000000 1.0
C      1  0.4689450000000  0.4839160000000  0.5410350000000 1.0
C      1  0.5240140000000  0.5494360000000  0.4829220000000 1.0
C      1  0.4427670000000  0.4819710000000  0.4140310000000 1.0
C      1  0.5040580000000  0.5327430000000  0.5576170000000 1.0
C      1  0.5179530000000  0.4617080000000  0.4913750000000 1.0
C      1  0.4326790000000  0.4956290000000  0.5580190000000 1.0
C      1  0.4211670000000  0.5491870000000  0.5276450000000 1.0
C      1  0.4501300000000  0.4844180000000  0.4530530000000 1.0
C      1  0.5497930000000  0.4393170000000  0.4455910000000 1.0
C      1  0.5649270000000  0.4635520000000  0.4560730000000 1.0
C      1  0.4240240000000  0.5501150000000  0.4448050000000 1.0
C      1  0.5452180000000  0.5251220000000  0.4096700000000 1.0
C      1  0.4975770000000  0.4145320000000  0.5556480000000 1.0
C      1  0.4456120000000  0.5624540000000  0.5321710000000 1.0
C      1  0.4157100000000  0.5252830000000  0.4372710000000 1.0
C      1  0.5176810000000  0.5098820000000  0.4232480000000 1.0
C      1  0.4800010000000  0.4790500000000  0.3816710000000 1.0
C      1  0.5159040000000  0.4644740000000  0.5570590000000 1.0
C      1  0.4509210000000  0.4775670000000  0.4922420000000 1.0
C      1  0.6069550000000  0.4880680000000  0.4496160000000 1.0
C      1  0.4752070000000  0.5232130000000  0.5438650000000 1.0
C      1  0.5452850000000  0.4004500000000  0.4911850000000 1.0
C      1  0.5853540000000  0.5400120000000  0.5521170000000 1.0
C      1  0.5850890000000  0.4578240000000  0.4830770000000 1.0
C      1  0.4344240000000  0.4427890000000  0.5544650000000 1.0
C      1  0.4611290000000  0.5229730000000  0.3942250000000 1.0
C      1  0.5020100000000  0.5105130000000  0.6376370000000 1.0
C      1  0.4764420000000  0.4474770000000  0.4185570000000 1.0
C      1  0.4786800000000  0.4226060000000  0.4768670000000 1.0
C      1  0.5463900000000  0.5184750000000  0.5124710000000 1.0
C      1  0.5086730000000  0.4324750000000  0.4758880000000 1.0
C      1  0.4610140000000  0.4529070000000  0.5730080000000 1.0
C      1  0.5290370000000  0.5000370000000  0.4919000000000 1.0
C      1  0.4080460000000  0.5074730000000  0.4915100000000 1.0
C      1  0.4110260000000  0.4664220000000  0.4564710000000 1.0
C      1  0.5442470000000  0.4881860000000  0.5269340000000 1.0
C      1  0.4430050000000  0.5197730000000  0.5433730000000 1.0
C      1  0.5817300000000  0.5682530000000  0.5485620000000 1.0
C      1  0.4687180000000  0.5876670000000  0.4714330000000 1.0
C      1  0.5801630000000  0.5501840000000  0.5058060000000 1.0
C      1  0.4911140000000  0.4076110000000  0.5237820000000 1.0
C      1  0.4749870000000  0.6029360000000  0.5337700000000 1.0
C      1  0.5172450000000  0.4102040000000  0.5092040000000 1.0
C      1  0.5496780000000  0.5854520000000  0.4824600000000 1.0
C      1  0.4837460000000  0.4596700000000  0.5327830000000 1.0
C      1  0.4532450000000  0.5695970000000  0.4860380000000 1.0
C      1  0.5520490000000  0.4607350000000  0.4936760000000 1.0
END
