TITL C-2778431-5191-1108 0.00639169885832868 125000 -793.29116386846 0 0 136 (C1) n - 1
REM
REM in /home/nfs/bkarasulu/CARBON/AIRSS/Generating-Clusters/REBO/Only-C1/SD-CG/HFTN-CG
REM
REM
REM
REM
REM
REM ./C.cell (11c1c37f851c82e70ff6c80c92926a4b)
REM
REM compiler GCC version 9.2.1 20190827 (Red Hat 9.2.1-1)
REM options -cpp -mtune=generic -march=x86-64 -g -O0 -fpre-include=/usr/include/finclude/math-vector-fortran.h
REM seed -49436408 1004123407 -1370126066 -413134676 -1579972109 1883621926 333141530 1199491956 -938871275 -411894599 -162698894 -1303704477 -886194628 -492491276 -188572726 682811355 1830996871 -390076424 -1167429632 -1503580262 1670052764 26461068 116022699 -207148953 1065652685 -977296880 435248828 232597592 552291462 51643334 1397100649 205668995 1909985828
REM
CELL 1.54180   50.00000   50.00000   50.00000   90.00000   90.00000   90.00000
LATT -1
SFAC C  
C      1  0.5614790000000  0.4710180000000  0.4352980000000 1.0
C      1  0.5180570000000  0.4394270000000  0.5180190000000 1.0
C      1  0.4103180000000  0.5021850000000  0.5307490000000 1.0
C      1  0.4828540000000  0.4643180000000  0.4190700000000 1.0
C      1  0.4638210000000  0.4433780000000  0.4242080000000 1.0
C      1  0.4442200000000  0.4993350000000  0.4940880000000 1.0
C      1  0.5168920000000  0.5481550000000  0.5822640000000 1.0
C      1  0.5220810000000  0.5522170000000  0.4920980000000 1.0
C      1  0.4368460000000  0.4528830000000  0.4266720000000 1.0
C      1  0.5500550000000  0.4437050000000  0.5415100000000 1.0
C      1  0.5857410000000  0.4984940000000  0.5395260000000 1.0
C      1  0.4925840000000  0.5600020000000  0.4207720000000 1.0
C      1  0.4982960000000  0.5580130000000  0.4693890000000 1.0
C      1  0.4684400000000  0.4917890000000  0.5507740000000 1.0
C      1  0.5096360000000  0.5095350000000  0.5241610000000 1.0
C      1  0.4547970000000  0.4411380000000  0.5651460000000 1.0
C      1  0.5375780000000  0.5869750000000  0.5458100000000 1.0
C      1  0.5676250000000  0.5403480000000  0.5659400000000 1.0
C      1  0.5339840000000  0.5720290000000  0.4491140000000 1.0
C      1  0.4868470000000  0.4818690000000  0.4429530000000 1.0
C      1  0.5648250000000  0.5511200000000  0.4905430000000 1.0
C      1  0.5627860000000  0.5668520000000  0.4646800000000 1.0
C      1  0.5123990000000  0.5212800000000  0.5929160000000 1.0
C      1  0.5481190000000  0.5237390000000  0.5023200000000 1.0
C      1  0.5413580000000  0.4833350000000  0.4679480000000 1.0
C      1  0.4751770000000  0.4208110000000  0.5551530000000 1.0
C      1  0.4316030000000  0.4786290000000  0.4159370000000 1.0
C      1  0.4385990000000  0.5404690000000  0.4362200000000 1.0
C      1  0.4806710000000  0.4221660000000  0.5111440000000 1.0
C      1  0.4371810000000  0.4772740000000  0.5148360000000 1.0
C      1  0.4573650000000  0.5615050000000  0.4801600000000 1.0
C      1  0.5028630000000  0.4268570000000  0.4414020000000 1.0
C      1  0.4736670000000  0.4234400000000  0.4443250000000 1.0
C      1  0.5965480000000  0.5432340000000  0.4993330000000 1.0
C      1  0.4335660000000  0.4445860000000  0.5457680000000 1.0
C      1  0.4566010000000  0.5288090000000  0.4698190000000 1.0
C      1  0.5186720000000  0.4480250000000  0.4239590000000 1.0
C      1  0.5660170000000  0.4176280000000  0.5301480000000 1.0
C      1  0.5127650000000  0.4855980000000  0.5463740000000 1.0
C      1  0.5420690000000  0.3994550000000  0.5150400000000 1.0
C      1  0.5125680000000  0.4794960000000  0.4124270000000 1.0
C      1  0.5496220000000  0.4411120000000  0.4327930000000 1.0
C      1  0.4220750000000  0.4747130000000  0.5440650000000 1.0
C      1  0.4585570000000  0.5970940000000  0.4980410000000 1.0
C      1  0.4718590000000  0.4751380000000  0.4643780000000 1.0
C      1  0.4517690000000  0.4114550000000  0.5037330000000 1.0
C      1  0.4924250000000  0.4585450000000  0.5909070000000 1.0
C      1  0.5715330000000  0.4921030000000  0.4808860000000 1.0
C      1  0.5314970000000  0.4978500000000  0.5830460000000 1.0
C      1  0.5923970000000  0.5257210000000  0.4766500000000 1.0
C      1  0.5035680000000  0.5117810000000  0.4069630000000 1.0
C      1  0.4294910000000  0.5085290000000  0.4322030000000 1.0
C      1  0.5658880000000  0.5486210000000  0.5240850000000 1.0
C      1  0.5047360000000  0.4189200000000  0.5427020000000 1.0
C      1  0.4325120000000  0.5062950000000  0.4631600000000 1.0
C      1  0.4770400000000  0.4457260000000  0.5323220000000 1.0
C      1  0.4613600000000  0.5233240000000  0.5533640000000 1.0
C      1  0.5779340000000  0.4431760000000  0.4708220000000 1.0
C      1  0.5440900000000  0.4794200000000  0.5581300000000 1.0
C      1  0.5859770000000  0.5263430000000  0.5502810000000 1.0
C      1  0.5144260000000  0.5381710000000  0.5180790000000 1.0
C      1  0.4654360000000  0.5903530000000  0.4683280000000 1.0
C      1  0.4557580000000  0.4912020000000  0.5833440000000 1.0
C      1  0.5403850000000  0.4891080000000  0.4273090000000 1.0
C      1  0.5020650000000  0.5082900000000  0.4398820000000 1.0
C      1  0.5253830000000  0.4409030000000  0.5571470000000 1.0
C      1  0.4955890000000  0.5211050000000  0.5524790000000 1.0
C      1  0.5139880000000  0.4237370000000  0.4674890000000 1.0
C      1  0.4814150000000  0.4475360000000  0.4914170000000 1.0
C      1  0.3976930000000  0.4996570000000  0.4998490000000 1.0
C      1  0.5079260000000  0.4014340000000  0.5134750000000 1.0
C      1  0.5483160000000  0.5867210000000  0.5187960000000 1.0
C      1  0.5654780000000  0.5171900000000  0.4600180000000 1.0
C      1  0.5209940000000  0.4653680000000  0.5798370000000 1.0
C      1  0.4300070000000  0.4523710000000  0.4998870000000 1.0
C      1  0.5092210000000  0.6004490000000  0.4911390000000 1.0
C      1  0.4831340000000  0.6059850000000  0.5103710000000 1.0
C      1  0.5731620000000  0.4852930000000  0.5103420000000 1.0
C      1  0.4561160000000  0.5341700000000  0.5093200000000 1.0
C      1  0.4747750000000  0.5063210000000  0.5016940000000 1.0
C      1  0.5040450000000  0.4586910000000  0.5390230000000 1.0
C      1  0.4535750000000  0.5004960000000  0.4115540000000 1.0
C      1  0.4653240000000  0.4747810000000  0.5280440000000 1.0
C      1  0.5720230000000  0.4689050000000  0.5469040000000 1.0
C      1  0.4252780000000  0.5506770000000  0.4590440000000 1.0
C      1  0.4229490000000  0.5540740000000  0.5246250000000 1.0
C      1  0.5669560000000  0.4418120000000  0.4984450000000 1.0
C      1  0.4720490000000  0.5722300000000  0.5449240000000 1.0
C      1  0.5473680000000  0.5243060000000  0.5355690000000 1.0
C      1  0.5087460000000  0.5431540000000  0.4029060000000 1.0
C      1  0.4526450000000  0.4513030000000  0.4759990000000 1.0
C      1  0.4937540000000  0.4933720000000  0.5715890000000 1.0
C      1  0.5983270000000  0.5448730000000  0.5295040000000 1.0
C      1  0.4901180000000  0.4761980000000  0.5058980000000 1.0
C      1  0.5343030000000  0.5138080000000  0.4460830000000 1.0
C      1  0.4707810000000  0.5415100000000  0.5790640000000 1.0
C      1  0.4544580000000  0.5567180000000  0.5333050000000 1.0
C      1  0.4863460000000  0.5286490000000  0.4585420000000 1.0
C      1  0.5120360000000  0.4536110000000  0.4813130000000 1.0
C      1  0.5159150000000  0.5539710000000  0.5416800000000 1.0
C      1  0.4829330000000  0.5446870000000  0.4949800000000 1.0
C      1  0.4280300000000  0.4485200000000  0.4526970000000 1.0
C      1  0.4697340000000  0.4091150000000  0.4749570000000 1.0
C      1  0.4658010000000  0.5449450000000  0.4231590000000 1.0
C      1  0.4792400000000  0.5134530000000  0.5939050000000 1.0
C      1  0.5081880000000  0.5782590000000  0.4366310000000 1.0
C      1  0.6027560000000  0.4739750000000  0.5229040000000 1.0
C      1  0.5482660000000  0.4654440000000  0.5152310000000 1.0
C      1  0.4364680000000  0.5749100000000  0.5034000000000 1.0
C      1  0.4289180000000  0.5359060000000  0.4895820000000 1.0
C      1  0.5316750000000  0.5808260000000  0.4982650000000 1.0
C      1  0.4336120000000  0.4295260000000  0.5192390000000 1.0
C      1  0.5687990000000  0.4250270000000  0.4515720000000 1.0
C      1  0.4995420000000  0.4036250000000  0.4817830000000 1.0
C      1  0.5860710000000  0.4452620000000  0.5257300000000 1.0
C      1  0.4092810000000  0.4889020000000  0.4764200000000 1.0
C      1  0.5777610000000  0.4695090000000  0.4596650000000 1.0
C      1  0.4067330000000  0.5294250000000  0.5108520000000 1.0
C      1  0.4315250000000  0.4991280000000  0.5637610000000 1.0
C      1  0.4911000000000  0.5600490000000  0.5786420000000 1.0
C      1  0.4301090000000  0.5267800000000  0.5437210000000 1.0
C      1  0.4139190000000  0.4611030000000  0.4752090000000 1.0
C      1  0.4957110000000  0.5902470000000  0.4639740000000 1.0
C      1  0.4724410000000  0.5196050000000  0.4086410000000 1.0
C      1  0.4991550000000  0.5764500000000  0.5427680000000 1.0
C      1  0.5295750000000  0.5198460000000  0.5570600000000 1.0
C      1  0.5594860000000  0.5443310000000  0.4414780000000 1.0
C      1  0.5016750000000  0.5180750000000  0.4859720000000 1.0
C      1  0.5230400000000  0.4758360000000  0.5024570000000 1.0
C      1  0.5118200000000  0.6004810000000  0.5275400000000 1.0
C      1  0.5388150000000  0.4281310000000  0.5033160000000 1.0
C      1  0.5289960000000  0.4583960000000  0.4546270000000 1.0
C      1  0.4661520000000  0.4611260000000  0.5828420000000 1.0
C      1  0.5410450000000  0.5576860000000  0.5629490000000 1.0
C      1  0.5333890000000  0.5404820000000  0.4641570000000 1.0
C      1  0.5280760000000  0.5054420000000  0.4891530000000 1.0
END
