TITL C-2778427-5640-644 0.19091076022176 125000 -137.846934040689 0 0 25 (C1) n - 1
REM
REM in /home/nfs/bkarasulu/CARBON/AIRSS/Generating-Clusters/REBO/Only-C1/SD-CG/HFTN-CG
REM
REM
REM
REM
REM
REM ./C.cell (11c1c37f851c82e70ff6c80c92926a4b)
REM
REM compiler GCC version 9.2.1 20190827 (Red Hat 9.2.1-1)
REM options -cpp -mtune=generic -march=x86-64 -g -O0 -fpre-include=/usr/include/finclude/math-vector-fortran.h
REM seed 1446677134 -176608116 -1718425695 -1475815416 1206172089 -271876051 1779502348 -1267759788 -381252969 -957566247 -1734658784 -2022103525 583424931 1376542954 593263711 1964354711 1973567609 891405136 -1443887756 -1175031753 -527682643 80481285 -212166003 -518413875 -1048885281 -1792358619 645718880 1086578892 -1226733904 -1029440863 -489848488 -100240138 1725943119
REM
CELL 1.54180   50.00000   50.00000   50.00000   90.00000   90.00000   90.00000
LATT -1
SFAC C  
C      1  0.5244480000000  0.4771480000000  0.4507510000000 1.0
C      1  0.4390470000000  0.5449640000000  0.3888690000000 1.0
C      1  0.5133800000000  0.5262860000000  0.5184490000000 1.0
C      1  0.5065530000000  0.4613480000000  0.5222940000000 1.0
C      1  0.5622860000000  0.5246470000000  0.5387070000000 1.0
C      1  0.5389300000000  0.4957380000000  0.5815830000000 1.0
C      1  0.4619390000000  0.5245080000000  0.4374730000000 1.0
C      1  0.4998590000000  0.4654470000000  0.4699960000000 1.0
C      1  0.5535370000000  0.5177850000000  0.5880190000000 1.0
C      1  0.5153020000000  0.4676030000000  0.5481100000000 1.0
C      1  0.4791030000000  0.5349870000000  0.4822230000000 1.0
C      1  0.4454070000000  0.5294050000000  0.4165720000000 1.0
C      1  0.5312920000000  0.4766500000000  0.6012970000000 1.0
C      1  0.5305580000000  0.4906640000000  0.5548800000000 1.0
C      1  0.4174690000000  0.5239660000000  0.4009730000000 1.0
C      1  0.5385590000000  0.5108750000000  0.5341420000000 1.0
C      1  0.4976610000000  0.4974650000000  0.4582510000000 1.0
C      1  0.3942310000000  0.5115580000000  0.3993350000000 1.0
C      1  0.5165200000000  0.4541250000000  0.5956230000000 1.0
C      1  0.4919410000000  0.5381310000000  0.5059370000000 1.0
C      1  0.4999020000000  0.4580980000000  0.4965500000000 1.0
C      1  0.5294200000000  0.5040950000000  0.5029130000000 1.0
C      1  0.5087970000000  0.4499010000000  0.5695410000000 1.0
C      1  0.4788250000000  0.5195060000000  0.4588200000000 1.0
C      1  0.5250340000000  0.4950990000000  0.4786910000000 1.0
END
