TITL C-2778437-8639-603 0.0435647337938461 125000 -279.993646442613 0 0 49 (C1) n - 1
REM
REM in /home/nfs/bkarasulu/CARBON/AIRSS/Generating-Clusters/REBO/Only-C1/SD-CG/HFTN-CG
REM
REM
REM
REM
REM
REM ./C.cell (11c1c37f851c82e70ff6c80c92926a4b)
REM
REM compiler GCC version 9.2.1 20190827 (Red Hat 9.2.1-1)
REM options -cpp -mtune=generic -march=x86-64 -g -O0 -fpre-include=/usr/include/finclude/math-vector-fortran.h
REM seed -363859810 104629117 1003863717 467275055 -1860849742 -77932384 -1065436119 -175616607 1103212935 1087470502 129559127 474698491 -1807521630 -1599720947 1034301408 -1308772095 130275942 -18284918 1252404055 -94058005 -51972397 -442648605 903149657 627262081 -1652469847 1263121241 1080933354 -1513460461 434828869 -487512387 -1099794734 1197103180 -1403798541
REM
CELL 1.54180   50.00000   50.00000   50.00000   90.00000   90.00000   90.00000
LATT -1
SFAC C  
C      1  0.5220500000000  0.5076120000000  0.5982650000000 1.0
C      1  0.5193240000000  0.4663420000000  0.4522320000000 1.0
C      1  0.4568740000000  0.4187270000000  0.4833250000000 1.0
C      1  0.4763860000000  0.5181870000000  0.4659470000000 1.0
C      1  0.4816340000000  0.5897700000000  0.5359960000000 1.0
C      1  0.4534870000000  0.5404980000000  0.4610820000000 1.0
C      1  0.4597710000000  0.3892920000000  0.4620840000000 1.0
C      1  0.5211540000000  0.5902670000000  0.5058540000000 1.0
C      1  0.5220380000000  0.5225720000000  0.5519110000000 1.0
C      1  0.5469220000000  0.5121790000000  0.5440620000000 1.0
C      1  0.5265230000000  0.5453270000000  0.4766870000000 1.0
C      1  0.4612550000000  0.4693610000000  0.4961220000000 1.0
C      1  0.5186970000000  0.5157260000000  0.4385030000000 1.0
C      1  0.5648720000000  0.5064110000000  0.5250410000000 1.0
C      1  0.4908600000000  0.4643130000000  0.4510560000000 1.0
C      1  0.4822660000000  0.3802110000000  0.5120490000000 1.0
C      1  0.4812440000000  0.5242700000000  0.5778230000000 1.0
C      1  0.5453040000000  0.4228700000000  0.5126480000000 1.0
C      1  0.4632480000000  0.3878050000000  0.4937420000000 1.0
C      1  0.5986660000000  0.5154920000000  0.4895270000000 1.0
C      1  0.4455690000000  0.5515990000000  0.5440040000000 1.0
C      1  0.4453740000000  0.5198050000000  0.5368530000000 1.0
C      1  0.4646340000000  0.4187490000000  0.4511820000000 1.0
C      1  0.5719530000000  0.5109950000000  0.4954110000000 1.0
C      1  0.4690090000000  0.4999800000000  0.4926440000000 1.0
C      1  0.5487040000000  0.4493720000000  0.4940060000000 1.0
C      1  0.5071850000000  0.3864920000000  0.5201790000000 1.0
C      1  0.4653270000000  0.5168520000000  0.5162730000000 1.0
C      1  0.5462950000000  0.5273770000000  0.4822260000000 1.0
C      1  0.4824390000000  0.5399230000000  0.5197340000000 1.0
C      1  0.4569790000000  0.4455030000000  0.4950190000000 1.0
C      1  0.4798980000000  0.5567670000000  0.4572520000000 1.0
C      1  0.4570130000000  0.5302340000000  0.5656820000000 1.0
C      1  0.5289260000000  0.4021220000000  0.5189420000000 1.0
C      1  0.4767540000000  0.4852030000000  0.4627860000000 1.0
C      1  0.5321680000000  0.4936630000000  0.4471360000000 1.0
C      1  0.5528130000000  0.4966090000000  0.4721280000000 1.0
C      1  0.4554770000000  0.5731060000000  0.4958360000000 1.0
C      1  0.5411730000000  0.4663450000000  0.4744650000000 1.0
C      1  0.5259850000000  0.5704490000000  0.4884140000000 1.0
C      1  0.5070000000000  0.5360600000000  0.5322020000000 1.0
C      1  0.4385240000000  0.5535430000000  0.4822580000000 1.0
C      1  0.5043410000000  0.5354130000000  0.4581430000000 1.0
C      1  0.5050340000000  0.5988780000000  0.5258120000000 1.0
C      1  0.4779900000000  0.4409720000000  0.4420040000000 1.0
C      1  0.4651260000000  0.5666390000000  0.5242040000000 1.0
C      1  0.4769340000000  0.5787800000000  0.4764730000000 1.0
C      1  0.5088670000000  0.5181510000000  0.5769220000000 1.0
C      1  0.5699340000000  0.4431880000000  0.5178530000000 1.0
END
