TITL C-2778430-5657-1310 -0.00259425471649264 125000 -480.369373421703 0 0 83 (C1) n - 1
REM
REM in /home/nfs/bkarasulu/CARBON/AIRSS/Generating-Clusters/REBO/Only-C1/SD-CG/HFTN-CG
REM
REM
REM
REM
REM
REM ./C.cell (11c1c37f851c82e70ff6c80c92926a4b)
REM
REM compiler GCC version 9.2.1 20190827 (Red Hat 9.2.1-1)
REM options -cpp -mtune=generic -march=x86-64 -g -O0 -fpre-include=/usr/include/finclude/math-vector-fortran.h
REM seed 1464427306 -1280214054 -366891394 245825601 337141466 706867267 -1212642513 796285793 1497336974 -962461182 -1785079444 -2134811474 -482105608 -2004446809 258795974 -1390226615 -1987708975 1920625940 1727143099 1593927765 -644498210 367778455 -2106123554 887426337 -1993762680 1707601147 105519910 -1094810551 1445775829 213303123 -248326794 1346503608 1898260876
REM
CELL 1.54180   50.00000   50.00000   50.00000   90.00000   90.00000   90.00000
LATT -1
SFAC C  
C      1  0.5754000000000  0.4498730000000  0.4654220000000 1.0
C      1  0.4946230000000  0.5347700000000  0.5723800000000 1.0
C      1  0.4996220000000  0.4723310000000  0.4172580000000 1.0
C      1  0.5237600000000  0.5657510000000  0.4810580000000 1.0
C      1  0.4757810000000  0.4829970000000  0.5500930000000 1.0
C      1  0.4268910000000  0.4922830000000  0.4742190000000 1.0
C      1  0.4385810000000  0.4460450000000  0.4511010000000 1.0
C      1  0.5374700000000  0.5282100000000  0.5518000000000 1.0
C      1  0.5343320000000  0.4675020000000  0.5069280000000 1.0
C      1  0.4079240000000  0.4955110000000  0.5706170000000 1.0
C      1  0.5042160000000  0.5576820000000  0.5570430000000 1.0
C      1  0.5046860000000  0.5797720000000  0.4968370000000 1.0
C      1  0.5952170000000  0.4335140000000  0.4559250000000 1.0
C      1  0.4567750000000  0.5028180000000  0.5486970000000 1.0
C      1  0.5001360000000  0.4431310000000  0.5627280000000 1.0
C      1  0.4940920000000  0.5212100000000  0.4750230000000 1.0
C      1  0.5592580000000  0.4544990000000  0.5235660000000 1.0
C      1  0.4447500000000  0.5258150000000  0.5063070000000 1.0
C      1  0.4789120000000  0.4922990000000  0.5888350000000 1.0
C      1  0.5965890000000  0.5186790000000  0.5343680000000 1.0
C      1  0.5613150000000  0.5005950000000  0.5359010000000 1.0
C      1  0.4737330000000  0.5479450000000  0.4762630000000 1.0
C      1  0.5836680000000  0.4656690000000  0.5128100000000 1.0
C      1  0.4275440000000  0.5656760000000  0.5520910000000 1.0
C      1  0.5755680000000  0.4992350000000  0.4792830000000 1.0
C      1  0.5738300000000  0.5652380000000  0.4797480000000 1.0
C      1  0.5391300000000  0.5268370000000  0.5048190000000 1.0
C      1  0.5314270000000  0.4842600000000  0.4821590000000 1.0
C      1  0.4368270000000  0.4749810000000  0.4525460000000 1.0
C      1  0.4742520000000  0.4956760000000  0.4849210000000 1.0
C      1  0.5495300000000  0.5081280000000  0.4877490000000 1.0
C      1  0.4625990000000  0.5607730000000  0.4300800000000 1.0
C      1  0.4833460000000  0.5608570000000  0.4497760000000 1.0
C      1  0.4609750000000  0.5286090000000  0.5324870000000 1.0
C      1  0.4673220000000  0.5401820000000  0.5769560000000 1.0
C      1  0.5279480000000  0.4597430000000  0.5698790000000 1.0
C      1  0.4289560000000  0.5394810000000  0.4618180000000 1.0
C      1  0.4738890000000  0.4594150000000  0.5016070000000 1.0
C      1  0.4874390000000  0.5673970000000  0.5148160000000 1.0
C      1  0.4909160000000  0.5367990000000  0.5237980000000 1.0
C      1  0.4996600000000  0.5046010000000  0.5735850000000 1.0
C      1  0.5105950000000  0.5483390000000  0.4623540000000 1.0
C      1  0.5823380000000  0.4712940000000  0.4839590000000 1.0
C      1  0.5468060000000  0.4433290000000  0.4581540000000 1.0
C      1  0.5161120000000  0.4413660000000  0.5151150000000 1.0
C      1  0.5183280000000  0.5287050000000  0.5288420000000 1.0
C      1  0.4969990000000  0.4674610000000  0.5202620000000 1.0
C      1  0.4124740000000  0.5160080000000  0.4659300000000 1.0
C      1  0.4634630000000  0.4330460000000  0.4424460000000 1.0
C      1  0.5677380000000  0.5338480000000  0.5397910000000 1.0
C      1  0.5279160000000  0.5659490000000  0.5433670000000 1.0
C      1  0.4802270000000  0.4671010000000  0.4721430000000 1.0
C      1  0.4547450000000  0.4895780000000  0.4352270000000 1.0
C      1  0.5195200000000  0.4196690000000  0.4943270000000 1.0
C      1  0.5384600000000  0.5137030000000  0.5757720000000 1.0
C      1  0.5325210000000  0.4759810000000  0.4498710000000 1.0
C      1  0.5487360000000  0.5540100000000  0.5234110000000 1.0
C      1  0.5067260000000  0.4908490000000  0.5430870000000 1.0
C      1  0.5361690000000  0.4879760000000  0.5320300000000 1.0
C      1  0.4170010000000  0.4307030000000  0.4577310000000 1.0
C      1  0.4474850000000  0.4997770000000  0.4938580000000 1.0
C      1  0.5068790000000  0.4949300000000  0.4623080000000 1.0
C      1  0.4470600000000  0.5145280000000  0.4248480000000 1.0
C      1  0.5891480000000  0.4893860000000  0.5281560000000 1.0
C      1  0.4316150000000  0.4990550000000  0.5599860000000 1.0
C      1  0.4523950000000  0.5541120000000  0.5516000000000 1.0
C      1  0.5246640000000  0.4705580000000  0.4215090000000 1.0
C      1  0.5350180000000  0.4190680000000  0.4748460000000 1.0
C      1  0.5487930000000  0.4446040000000  0.5488510000000 1.0
C      1  0.5271760000000  0.4864760000000  0.5771270000000 1.0
C      1  0.4874890000000  0.4441900000000  0.4525360000000 1.0
C      1  0.4831780000000  0.4823490000000  0.4416040000000 1.0
C      1  0.4754500000000  0.4541400000000  0.5512130000000 1.0
C      1  0.5210160000000  0.4311090000000  0.5435600000000 1.0
C      1  0.4630090000000  0.5906750000000  0.3850940000000 1.0
C      1  0.4468450000000  0.5447870000000  0.4845250000000 1.0
C      1  0.4800980000000  0.5692420000000  0.5442260000000 1.0
C      1  0.5141850000000  0.4406210000000  0.4485720000000 1.0
C      1  0.4629150000000  0.4106640000000  0.4269890000000 1.0
C      1  0.4651820000000  0.4439590000000  0.5260810000000 1.0
C      1  0.4421980000000  0.5405100000000  0.4356020000000 1.0
C      1  0.4628100000000  0.5761680000000  0.4069190000000 1.0
C      1  0.5496310000000  0.5633880000000  0.4928720000000 1.0
END
