TITL C-2778435-5768-785 0.00492830453725415 125000 -1110.40394978014 0 0 192 (C1) n - 1
REM
REM in /home/nfs/bkarasulu/CARBON/AIRSS/Generating-Clusters/REBO/Only-C1/SD-CG/HFTN-CG
REM
REM
REM
REM
REM
REM ./C.cell (11c1c37f851c82e70ff6c80c92926a4b)
REM
REM compiler GCC version 9.2.1 20190827 (Red Hat 9.2.1-1)
REM options -cpp -mtune=generic -march=x86-64 -g -O0 -fpre-include=/usr/include/finclude/math-vector-fortran.h
REM seed -1259185560 -65825580 -105156474 1817990160 -866286805 1305736883 -558407402 -117705944 -1290703495 2032778111 -399901884 1915909880 -1444679202 239323738 2137476139 529717807 -1873950680 -765224887 -539094421 590941868 461694366 -1757296935 -626624900 477990192 -1477905133 -397244708 1764137919 2004427308 1196577089 -983427639 -1762184469 -1611241921 -1127226114
REM
CELL 1.54180   50.00000   50.00000   50.00000   90.00000   90.00000   90.00000
LATT -1
SFAC C  
C      1  0.5237080000000  0.5269420000000  0.4309790000000 1.0
C      1  0.4476990000000  0.5200490000000  0.5968020000000 1.0
C      1  0.5236930000000  0.6186240000000  0.4794260000000 1.0
C      1  0.4393310000000  0.4780420000000  0.4619970000000 1.0
C      1  0.4938030000000  0.5496360000000  0.5637130000000 1.0
C      1  0.4835070000000  0.5376140000000  0.4237760000000 1.0
C      1  0.4139880000000  0.5646540000000  0.4951270000000 1.0
C      1  0.5412460000000  0.4104310000000  0.4498880000000 1.0
C      1  0.5445630000000  0.5701270000000  0.4754430000000 1.0
C      1  0.4931280000000  0.4362590000000  0.5131610000000 1.0
C      1  0.4839930000000  0.4905450000000  0.5104230000000 1.0
C      1  0.3959840000000  0.5432690000000  0.5086370000000 1.0
C      1  0.5335030000000  0.4945560000000  0.4368300000000 1.0
C      1  0.4590200000000  0.5980100000000  0.5503760000000 1.0
C      1  0.4435410000000  0.4775580000000  0.4048750000000 1.0
C      1  0.4036960000000  0.5267220000000  0.5249500000000 1.0
C      1  0.5473850000000  0.5643020000000  0.5409290000000 1.0
C      1  0.4238180000000  0.5210920000000  0.5785500000000 1.0
C      1  0.4776110000000  0.5200420000000  0.4825150000000 1.0
C      1  0.4342500000000  0.5857050000000  0.4802240000000 1.0
C      1  0.4915520000000  0.5918170000000  0.4131530000000 1.0
C      1  0.5045780000000  0.4883780000000  0.3980000000000 1.0
C      1  0.5831850000000  0.4849970000000  0.4546290000000 1.0
C      1  0.5466960000000  0.4234720000000  0.5887260000000 1.0
C      1  0.5189350000000  0.4953390000000  0.4930630000000 1.0
C      1  0.5352600000000  0.5001760000000  0.4036740000000 1.0
C      1  0.5200680000000  0.5559620000000  0.3909910000000 1.0
C      1  0.4655750000000  0.4151630000000  0.4552240000000 1.0
C      1  0.4795000000000  0.4255900000000  0.5780420000000 1.0
C      1  0.5498110000000  0.4908150000000  0.5180050000000 1.0
C      1  0.5594460000000  0.4774730000000  0.4120140000000 1.0
C      1  0.4484480000000  0.5322090000000  0.4700360000000 1.0
C      1  0.4529350000000  0.4968270000000  0.4870700000000 1.0
C      1  0.3946920000000  0.5165310000000  0.4715440000000 1.0
C      1  0.5814410000000  0.4212340000000  0.4854330000000 1.0
C      1  0.4760720000000  0.5193580000000  0.5236440000000 1.0
C      1  0.4801320000000  0.4702970000000  0.4234440000000 1.0
C      1  0.5298190000000  0.5795330000000  0.5046410000000 1.0
C      1  0.4274640000000  0.4405300000000  0.5219810000000 1.0
C      1  0.4936480000000  0.4113540000000  0.4361090000000 1.0
C      1  0.4331490000000  0.4531430000000  0.5969020000000 1.0
C      1  0.5369150000000  0.5322060000000  0.5843310000000 1.0
C      1  0.5407560000000  0.5841490000000  0.5619470000000 1.0
C      1  0.5136740000000  0.5064210000000  0.5235560000000 1.0
C      1  0.5607400000000  0.4515630000000  0.4280140000000 1.0
C      1  0.4369720000000  0.5193170000000  0.4340370000000 1.0
C      1  0.4559100000000  0.4591990000000  0.5594130000000 1.0
C      1  0.4856210000000  0.4986420000000  0.5479770000000 1.0
C      1  0.5061290000000  0.4564470000000  0.4082720000000 1.0
C      1  0.4782550000000  0.4686850000000  0.5835250000000 1.0
C      1  0.4483980000000  0.4456400000000  0.4100900000000 1.0
C      1  0.4049640000000  0.4484750000000  0.5014570000000 1.0
C      1  0.4916220000000  0.5437750000000  0.6079210000000 1.0
C      1  0.4753120000000  0.6234470000000  0.4502550000000 1.0
C      1  0.5709160000000  0.5799230000000  0.5253020000000 1.0
C      1  0.5257990000000  0.4688350000000  0.5296360000000 1.0
C      1  0.4486840000000  0.5415130000000  0.5444580000000 1.0
C      1  0.4884250000000  0.5595150000000  0.4017610000000 1.0
C      1  0.4652510000000  0.5206150000000  0.4058410000000 1.0
C      1  0.4956130000000  0.5481880000000  0.4497050000000 1.0
C      1  0.5072370000000  0.4472150000000  0.4628550000000 1.0
C      1  0.5386250000000  0.5783340000000  0.4315830000000 1.0
C      1  0.4456690000000  0.4667410000000  0.5165350000000 1.0
C      1  0.5849860000000  0.5083470000000  0.5019680000000 1.0
C      1  0.5848610000000  0.5478480000000  0.5063040000000 1.0
C      1  0.6030030000000  0.3939820000000  0.5254050000000 1.0
C      1  0.4644660000000  0.4097070000000  0.5592890000000 1.0
C      1  0.4828710000000  0.5941290000000  0.4958160000000 1.0
C      1  0.4982390000000  0.5080870000000  0.4244140000000 1.0
C      1  0.5748600000000  0.5243570000000  0.4210920000000 1.0
C      1  0.4896990000000  0.4827420000000  0.4803330000000 1.0
C      1  0.5717220000000  0.5774460000000  0.4951640000000 1.0
C      1  0.4651910000000  0.5742360000000  0.4223160000000 1.0
C      1  0.4734930000000  0.4452020000000  0.5379770000000 1.0
C      1  0.5461760000000  0.4534070000000  0.4695200000000 1.0
C      1  0.5213390000000  0.5551150000000  0.5231130000000 1.0
C      1  0.4409990000000  0.5889760000000  0.5289840000000 1.0
C      1  0.4480810000000  0.5235700000000  0.5089560000000 1.0
C      1  0.4646420000000  0.4966840000000  0.5697720000000 1.0
C      1  0.4428670000000  0.4272090000000  0.5563030000000 1.0
C      1  0.5772760000000  0.4893570000000  0.5361710000000 1.0
C      1  0.4562510000000  0.4224830000000  0.5189760000000 1.0
C      1  0.5540210000000  0.4219550000000  0.4750230000000 1.0
C      1  0.5394100000000  0.5341450000000  0.4036510000000 1.0
C      1  0.5143820000000  0.4319800000000  0.4185900000000 1.0
C      1  0.4799380000000  0.4443600000000  0.4537290000000 1.0
C      1  0.5637230000000  0.4247190000000  0.5380880000000 1.0
C      1  0.4705660000000  0.4927690000000  0.4001400000000 1.0
C      1  0.4889010000000  0.4892490000000  0.4491140000000 1.0
C      1  0.5621920000000  0.5356840000000  0.5769480000000 1.0
C      1  0.5088040000000  0.5129730000000  0.5816460000000 1.0
C      1  0.5812530000000  0.5431960000000  0.5574130000000 1.0
C      1  0.5299620000000  0.5962630000000  0.4588200000000 1.0
C      1  0.4660120000000  0.4637580000000  0.4696260000000 1.0
C      1  0.5232270000000  0.4730540000000  0.4531940000000 1.0
C      1  0.4137980000000  0.5350420000000  0.4505190000000 1.0
C      1  0.5154870000000  0.3974160000000  0.4544360000000 1.0
C      1  0.4249410000000  0.4915650000000  0.5056730000000 1.0
C      1  0.5124830000000  0.6161310000000  0.5313760000000 1.0
C      1  0.4836200000000  0.6101050000000  0.5324160000000 1.0
C      1  0.5260350000000  0.6074200000000  0.5075780000000 1.0
C      1  0.5806130000000  0.4945130000000  0.4232250000000 1.0
C      1  0.5289250000000  0.5070010000000  0.5543210000000 1.0
C      1  0.5483810000000  0.4096670000000  0.5643210000000 1.0
C      1  0.4458050000000  0.4858880000000  0.5440310000000 1.0
C      1  0.4232810000000  0.4982210000000  0.4165780000000 1.0
C      1  0.5098880000000  0.4631280000000  0.5863650000000 1.0
C      1  0.6158060000000  0.3727190000000  0.5313400000000 1.0
C      1  0.4215970000000  0.5207700000000  0.4877350000000 1.0
C      1  0.4748440000000  0.4363580000000  0.4224930000000 1.0
C      1  0.4944840000000  0.4708830000000  0.5331310000000 1.0
C      1  0.5004230000000  0.5804490000000  0.4581390000000 1.0
C      1  0.5996200000000  0.4644920000000  0.5369450000000 1.0
C      1  0.4217340000000  0.4379070000000  0.4505410000000 1.0
C      1  0.6139600000000  0.4524990000000  0.4909080000000 1.0
C      1  0.4953700000000  0.6198440000000  0.4851070000000 1.0
C      1  0.5270310000000  0.4390440000000  0.5988410000000 1.0
C      1  0.4209420000000  0.5468380000000  0.5563960000000 1.0
C      1  0.5814720000000  0.4547580000000  0.4504880000000 1.0
C      1  0.4008870000000  0.5042540000000  0.4402610000000 1.0
C      1  0.5801520000000  0.5269070000000  0.5298480000000 1.0
C      1  0.5814050000000  0.4692820000000  0.5637150000000 1.0
C      1  0.5411370000000  0.4298340000000  0.4286010000000 1.0
C      1  0.5876600000000  0.4194620000000  0.5182930000000 1.0
C      1  0.5060520000000  0.5260050000000  0.4710980000000 1.0
C      1  0.5857640000000  0.5707040000000  0.5500710000000 1.0
C      1  0.4812810000000  0.5118450000000  0.6021500000000 1.0
C      1  0.3853840000000  0.4884420000000  0.4863710000000 1.0
C      1  0.6062190000000  0.5214640000000  0.4853270000000 1.0
C      1  0.5259650000000  0.4874330000000  0.5889220000000 1.0
C      1  0.4786830000000  0.5767230000000  0.5234850000000 1.0
C      1  0.5895190000000  0.5180130000000  0.4574380000000 1.0
C      1  0.5365950000000  0.5106220000000  0.4730030000000 1.0
C      1  0.4125120000000  0.4917820000000  0.5653340000000 1.0
C      1  0.5115790000000  0.5987870000000  0.5587930000000 1.0
C      1  0.5029500000000  0.4379980000000  0.5669900000000 1.0
C      1  0.4664870000000  0.4235620000000  0.4864270000000 1.0
C      1  0.5536930000000  0.4609050000000  0.5022620000000 1.0
C      1  0.4694400000000  0.5507450000000  0.4891420000000 1.0
C      1  0.5665570000000  0.4966120000000  0.4820980000000 1.0
C      1  0.5073360000000  0.3879800000000  0.4809820000000 1.0
C      1  0.4757160000000  0.5971880000000  0.4525730000000 1.0
C      1  0.5224770000000  0.5420930000000  0.4932580000000 1.0
C      1  0.5476630000000  0.5304880000000  0.5400740000000 1.0
C      1  0.4309580000000  0.4625310000000  0.4329050000000 1.0
C      1  0.5226280000000  0.3870550000000  0.5113790000000 1.0
C      1  0.4036560000000  0.4875190000000  0.5324300000000 1.0
C      1  0.4482050000000  0.5788420000000  0.4500730000000 1.0
C      1  0.5586240000000  0.5529900000000  0.4251500000000 1.0
C      1  0.5211480000000  0.5812140000000  0.5866880000000 1.0
C      1  0.4884170000000  0.4051600000000  0.5015590000000 1.0
C      1  0.4681190000000  0.4553040000000  0.4997810000000 1.0
C      1  0.4607400000000  0.4443410000000  0.5959800000000 1.0
C      1  0.4782990000000  0.4002080000000  0.5334710000000 1.0
C      1  0.4217350000000  0.5606290000000  0.4619460000000 1.0
C      1  0.5202910000000  0.5824900000000  0.4076920000000 1.0
C      1  0.4091210000000  0.4489320000000  0.4734710000000 1.0
C      1  0.4053260000000  0.4796030000000  0.4614040000000 1.0
C      1  0.5347080000000  0.4127030000000  0.4961150000000 1.0
C      1  0.5560440000000  0.4556810000000  0.5359580000000 1.0
C      1  0.5026370000000  0.5357920000000  0.5371260000000 1.0
C      1  0.4633090000000  0.5118520000000  0.4467340000000 1.0
C      1  0.4510310000000  0.5958250000000  0.5021680000000 1.0
C      1  0.5465920000000  0.5234390000000  0.5085720000000 1.0
C      1  0.6058620000000  0.4459060000000  0.5177640000000 1.0
C      1  0.4975720000000  0.5645440000000  0.4863510000000 1.0
C      1  0.4585640000000  0.5546950000000  0.5183430000000 1.0
C      1  0.4217390000000  0.5664660000000  0.5285350000000 1.0
C      1  0.5148920000000  0.4270870000000  0.4811650000000 1.0
C      1  0.5130240000000  0.5521440000000  0.5883130000000 1.0
C      1  0.5237370000000  0.4649340000000  0.4900940000000 1.0
C      1  0.5151600000000  0.4372130000000  0.5374030000000 1.0
C      1  0.5507210000000  0.4827080000000  0.5570360000000 1.0
C      1  0.4261380000000  0.5108610000000  0.5403190000000 1.0
C      1  0.5078660000000  0.3892350000000  0.5383110000000 1.0
C      1  0.4361100000000  0.4150240000000  0.4468920000000 1.0
C      1  0.5611090000000  0.5409030000000  0.4829580000000 1.0
C      1  0.4835190000000  0.4916360000000  0.6216060000000 1.0
C      1  0.4680610000000  0.5303360000000  0.5645590000000 1.0
C      1  0.5989230000000  0.5516680000000  0.4760380000000 1.0
C      1  0.5963240000000  0.4410460000000  0.4711980000000 1.0
C      1  0.5754070000000  0.5488620000000  0.4526100000000 1.0
C      1  0.5256460000000  0.3932220000000  0.5585820000000 1.0
C      1  0.4176110000000  0.4633500000000  0.5747650000000 1.0
C      1  0.4866280000000  0.5784600000000  0.5559940000000 1.0
C      1  0.5351420000000  0.4162360000000  0.5273370000000 1.0
C      1  0.5511070000000  0.4888240000000  0.5965610000000 1.0
C      1  0.5284480000000  0.5522640000000  0.4510460000000 1.0
C      1  0.4644840000000  0.5467750000000  0.5943210000000 1.0
C      1  0.4189420000000  0.4453680000000  0.5530850000000 1.0
C      1  0.3903730000000  0.4719620000000  0.5092360000000 1.0
C      1  0.5568830000000  0.5141650000000  0.4482880000000 1.0
END
