TITL C-2778437-8639-1089 -0.000588372802161435 125000 -607.614293129896 0 0 106 (C1) n - 1
REM
REM in /home/nfs/bkarasulu/CARBON/AIRSS/Generating-Clusters/REBO/Only-C1/SD-CG/HFTN-CG
REM
REM
REM
REM
REM
REM ./C.cell (11c1c37f851c82e70ff6c80c92926a4b)
REM
REM compiler GCC version 9.2.1 20190827 (Red Hat 9.2.1-1)
REM options -cpp -mtune=generic -march=x86-64 -g -O0 -fpre-include=/usr/include/finclude/math-vector-fortran.h
REM seed -443841607 1756764161 798540098 -1411934613 1697355269 1213850345 756928762 -1232270656 606291435 -1895279572 828905861 697952446 -1929836677 -1783089666 430907230 -2017092148 -857647977 -504931999 1916747797 -507195122 -861095915 441593806 -1544404282 -170682113 -1326894798 -1849900788 -1906054020 2104503319 774745912 1468962228 -957677469 1125440480 355771465
REM
CELL 1.54180   50.00000   50.00000   50.00000   90.00000   90.00000   90.00000
LATT -1
SFAC C  
C      1  0.5116340000000  0.5034900000000  0.4366290000000 1.0
C      1  0.4924370000000  0.5373630000000  0.5419410000000 1.0
C      1  0.4261350000000  0.4815240000000  0.5346770000000 1.0
C      1  0.4615250000000  0.5129030000000  0.4135220000000 1.0
C      1  0.4685210000000  0.5062330000000  0.5348340000000 1.0
C      1  0.4978860000000  0.5193330000000  0.4744200000000 1.0
C      1  0.4884400000000  0.5424370000000  0.4144270000000 1.0
C      1  0.4872660000000  0.4361610000000  0.4444690000000 1.0
C      1  0.4844460000000  0.4723190000000  0.4324170000000 1.0
C      1  0.5152500000000  0.5220220000000  0.5623170000000 1.0
C      1  0.5406570000000  0.5473080000000  0.4374080000000 1.0
C      1  0.5378230000000  0.4147690000000  0.4891940000000 1.0
C      1  0.4279570000000  0.4818500000000  0.4769820000000 1.0
C      1  0.4273280000000  0.4629250000000  0.5056830000000 1.0
C      1  0.4721430000000  0.4832730000000  0.5867920000000 1.0
C      1  0.4655490000000  0.5604430000000  0.4658010000000 1.0
C      1  0.4749130000000  0.4269650000000  0.4813200000000 1.0
C      1  0.5770660000000  0.5560880000000  0.5888420000000 1.0
C      1  0.5156850000000  0.4925830000000  0.5500270000000 1.0
C      1  0.5575260000000  0.4543300000000  0.4677160000000 1.0
C      1  0.4966350000000  0.5438260000000  0.5807000000000 1.0
C      1  0.4683300000000  0.4652860000000  0.5609700000000 1.0
C      1  0.4488500000000  0.4365520000000  0.5016920000000 1.0
C      1  0.4799180000000  0.5111950000000  0.4402640000000 1.0
C      1  0.5054930000000  0.4206180000000  0.4666280000000 1.0
C      1  0.5481930000000  0.5243570000000  0.5522960000000 1.0
C      1  0.5583240000000  0.4905830000000  0.4477150000000 1.0
C      1  0.4676570000000  0.4924950000000  0.4625200000000 1.0
C      1  0.5097180000000  0.5503950000000  0.4961190000000 1.0
C      1  0.5548280000000  0.5503430000000  0.4623390000000 1.0
C      1  0.5992970000000  0.4665180000000  0.4959220000000 1.0
C      1  0.5315480000000  0.5407830000000  0.5275990000000 1.0
C      1  0.4339670000000  0.4739620000000  0.4284060000000 1.0
C      1  0.5558280000000  0.4205510000000  0.5101470000000 1.0
C      1  0.5677370000000  0.5392610000000  0.5058330000000 1.0
C      1  0.5085560000000  0.4578320000000  0.5125810000000 1.0
C      1  0.5380080000000  0.4290760000000  0.4603770000000 1.0
C      1  0.4808870000000  0.5711340000000  0.5143640000000 1.0
C      1  0.4710500000000  0.4215310000000  0.5233710000000 1.0
C      1  0.5561440000000  0.4771550000000  0.5252600000000 1.0
C      1  0.4312080000000  0.5746790000000  0.5039690000000 1.0
C      1  0.5574160000000  0.4578910000000  0.5523680000000 1.0
C      1  0.5446110000000  0.5659030000000  0.5453540000000 1.0
C      1  0.4432030000000  0.5246880000000  0.5101290000000 1.0
C      1  0.5731370000000  0.5243220000000  0.5287860000000 1.0
C      1  0.4639360000000  0.4650490000000  0.4784500000000 1.0
C      1  0.5402770000000  0.5694900000000  0.4791000000000 1.0
C      1  0.4419140000000  0.5384820000000  0.4570350000000 1.0
C      1  0.4574830000000  0.5412240000000  0.4268910000000 1.0
C      1  0.5146320000000  0.5749760000000  0.4653270000000 1.0
C      1  0.4587410000000  0.4840460000000  0.4199940000000 1.0
C      1  0.5162520000000  0.4718380000000  0.5745670000000 1.0
C      1  0.4352850000000  0.5278630000000  0.5611040000000 1.0
C      1  0.5095070000000  0.5571860000000  0.4367670000000 1.0
C      1  0.5553180000000  0.4918550000000  0.5549140000000 1.0
C      1  0.5616970000000  0.5509560000000  0.5687650000000 1.0
C      1  0.4662200000000  0.4649060000000  0.5115280000000 1.0
C      1  0.4980500000000  0.4791970000000  0.5951060000000 1.0
C      1  0.4957500000000  0.4664710000000  0.5408330000000 1.0
C      1  0.5378730000000  0.4476760000000  0.4336210000000 1.0
C      1  0.4505160000000  0.5728670000000  0.5298970000000 1.0
C      1  0.5285080000000  0.4480480000000  0.5648420000000 1.0
C      1  0.4483730000000  0.5558410000000  0.5591470000000 1.0
C      1  0.4446100000000  0.5115220000000  0.4726270000000 1.0
C      1  0.4877480000000  0.5720940000000  0.4827500000000 1.0
C      1  0.5483130000000  0.5652370000000  0.5110570000000 1.0
C      1  0.4951520000000  0.4532080000000  0.4869330000000 1.0
C      1  0.5073200000000  0.4829340000000  0.4102090000000 1.0
C      1  0.5303560000000  0.5017780000000  0.4590570000000 1.0
C      1  0.5450440000000  0.5032770000000  0.4971210000000 1.0
C      1  0.5386300000000  0.4751810000000  0.4787980000000 1.0
C      1  0.5029670000000  0.4923240000000  0.4927580000000 1.0
C      1  0.4638090000000  0.5434780000000  0.5246460000000 1.0
C      1  0.4116700000000  0.5314700000000  0.5182030000000 1.0
C      1  0.5107530000000  0.5681700000000  0.5244200000000 1.0
C      1  0.4708310000000  0.5176170000000  0.4941110000000 1.0
C      1  0.5552330000000  0.4691990000000  0.4308130000000 1.0
C      1  0.5207710000000  0.5030990000000  0.5197950000000 1.0
C      1  0.5756540000000  0.4896710000000  0.5039940000000 1.0
C      1  0.5126630000000  0.5612560000000  0.5562940000000 1.0
C      1  0.4837190000000  0.4885410000000  0.5182000000000 1.0
C      1  0.5097870000000  0.4099460000000  0.4980590000000 1.0
C      1  0.4560370000000  0.4411650000000  0.4570590000000 1.0
C      1  0.4679710000000  0.5409290000000  0.5793130000000 1.0
C      1  0.4329960000000  0.4629510000000  0.4533230000000 1.0
C      1  0.4976060000000  0.5258040000000  0.5135050000000 1.0
C      1  0.5011610000000  0.5164240000000  0.4069710000000 1.0
C      1  0.5179010000000  0.4270530000000  0.5427810000000 1.0
C      1  0.4509270000000  0.4917740000000  0.5542330000000 1.0
C      1  0.5698170000000  0.5322360000000  0.4784240000000 1.0
C      1  0.4353660000000  0.5638640000000  0.4789360000000 1.0
C      1  0.4543400000000  0.5101790000000  0.5824130000000 1.0
C      1  0.5828290000000  0.4691180000000  0.4706800000000 1.0
C      1  0.4206340000000  0.5144840000000  0.5414920000000 1.0
C      1  0.5480020000000  0.4310650000000  0.5350130000000 1.0
C      1  0.4989770000000  0.4161520000000  0.5233400000000 1.0
C      1  0.4983610000000  0.4768430000000  0.4631640000000 1.0
C      1  0.4284570000000  0.4974090000000  0.5062300000000 1.0
C      1  0.5763330000000  0.5027110000000  0.4722910000000 1.0
C      1  0.5093210000000  0.4515670000000  0.4235450000000 1.0
C      1  0.4614760000000  0.4464630000000  0.5377770000000 1.0
C      1  0.4869580000000  0.5405430000000  0.4538980000000 1.0
C      1  0.5951700000000  0.5083150000000  0.5334800000000 1.0
C      1  0.3908080000000  0.5458520000000  0.5087850000000 1.0
C      1  0.5335200000000  0.4669040000000  0.5086600000000 1.0
C      1  0.5289430000000  0.5269680000000  0.4818250000000 1.0
END
