TITL C-2778424-3986-746 0.0829372820344725 125000 -608.458058056837 0 0 105 (C1) n - 1
REM
REM in /home/nfs/bkarasulu/CARBON/AIRSS/Generating-Clusters/REBO/Only-C1/SD-CG/HFTN-CG
REM
REM
REM
REM
REM
REM ./C.cell (11c1c37f851c82e70ff6c80c92926a4b)
REM
REM compiler GCC version 9.2.1 20190827 (Red Hat 9.2.1-1)
REM options -cpp -mtune=generic -march=x86-64 -g -O0 -fpre-include=/usr/include/finclude/math-vector-fortran.h
REM seed 742848886 -1765385740 -1469140266 -1652866844 -619779613 -961981193 1812570010 -1431922510 -707036741 -1375201780 -1834561309 -1049322622 -185649313 146525599 -2066286372 895426600 -1030540171 1315549090 1885707339 -370663119 -419719330 -886266869 -409976554 1859182063 587472089 -988980612 2026132447 1987165065 -315689400 -1878047916 -656964059 1526877869 1906330353
REM
CELL 1.54180   50.00000   50.00000   50.00000   90.00000   90.00000   90.00000
LATT -1
SFAC C  
C      1  0.5166140000000  0.4172880000000  0.5059580000000 1.0
C      1  0.5440780000000  0.4863550000000  0.4645780000000 1.0
C      1  0.5666760000000  0.5463610000000  0.5311790000000 1.0
C      1  0.5357430000000  0.4475190000000  0.5462170000000 1.0
C      1  0.5291660000000  0.5180340000000  0.5495870000000 1.0
C      1  0.4214170000000  0.4613240000000  0.4612340000000 1.0
C      1  0.4552660000000  0.5583140000000  0.4491630000000 1.0
C      1  0.4894120000000  0.5307130000000  0.5213610000000 1.0
C      1  0.4853220000000  0.5230600000000  0.5788510000000 1.0
C      1  0.4632100000000  0.5607980000000  0.5231640000000 1.0
C      1  0.5378530000000  0.5088540000000  0.4986670000000 1.0
C      1  0.4555210000000  0.5148040000000  0.4281940000000 1.0
C      1  0.4924120000000  0.4918710000000  0.4489330000000 1.0
C      1  0.5571740000000  0.5216950000000  0.4516220000000 1.0
C      1  0.4854910000000  0.4461840000000  0.4145680000000 1.0
C      1  0.5742750000000  0.5316410000000  0.5036450000000 1.0
C      1  0.5521440000000  0.4577550000000  0.4357480000000 1.0
C      1  0.5857350000000  0.4996170000000  0.5031420000000 1.0
C      1  0.4228200000000  0.4579570000000  0.4956150000000 1.0
C      1  0.5153390000000  0.4816180000000  0.4703570000000 1.0
C      1  0.4919650000000  0.4180450000000  0.5241260000000 1.0
C      1  0.4586020000000  0.4246740000000  0.5282180000000 1.0
C      1  0.4335420000000  0.4775870000000  0.5212330000000 1.0
C      1  0.5120570000000  0.4486560000000  0.4076100000000 1.0
C      1  0.4721810000000  0.4899080000000  0.4972450000000 1.0
C      1  0.4890940000000  0.4477710000000  0.5325920000000 1.0
C      1  0.5656590000000  0.4884550000000  0.5651580000000 1.0
C      1  0.4139460000000  0.4895490000000  0.4728000000000 1.0
C      1  0.5080590000000  0.4272050000000  0.4798060000000 1.0
C      1  0.5431920000000  0.4296790000000  0.5112370000000 1.0
C      1  0.4597980000000  0.4889940000000  0.4584410000000 1.0
C      1  0.5432600000000  0.5246490000000  0.4761020000000 1.0
C      1  0.4565350000000  0.5492020000000  0.5496600000000 1.0
C      1  0.5563900000000  0.4485830000000  0.4676070000000 1.0
C      1  0.4351180000000  0.5346280000000  0.4433670000000 1.0
C      1  0.4625630000000  0.5377810000000  0.5015990000000 1.0
C      1  0.4423830000000  0.4904470000000  0.4224900000000 1.0
C      1  0.5521260000000  0.4976320000000  0.5435210000000 1.0
C      1  0.4816720000000  0.5505320000000  0.4466420000000 1.0
C      1  0.4501130000000  0.4974100000000  0.5106260000000 1.0
C      1  0.5522100000000  0.5747160000000  0.4678370000000 1.0
C      1  0.5024890000000  0.5811980000000  0.4905930000000 1.0
C      1  0.4853750000000  0.4152930000000  0.4679120000000 1.0
C      1  0.4638820000000  0.4477130000000  0.5531800000000 1.0
C      1  0.5244390000000  0.4966520000000  0.4190660000000 1.0
C      1  0.4055830000000  0.5387660000000  0.4804230000000 1.0
C      1  0.4434260000000  0.4732220000000  0.5504680000000 1.0
C      1  0.5259930000000  0.4540320000000  0.5749740000000 1.0
C      1  0.5282360000000  0.4672630000000  0.5279650000000 1.0
C      1  0.5079270000000  0.4818370000000  0.5751540000000 1.0
C      1  0.5081430000000  0.5088390000000  0.5696580000000 1.0
C      1  0.4648410000000  0.4896850000000  0.6090060000000 1.0
C      1  0.5314870000000  0.5917120000000  0.4887770000000 1.0
C      1  0.5643340000000  0.5383880000000  0.5812980000000 1.0
C      1  0.4741100000000  0.4693960000000  0.4346030000000 1.0
C      1  0.5751630000000  0.4541700000000  0.5470230000000 1.0
C      1  0.5780230000000  0.4687520000000  0.4531730000000 1.0
C      1  0.4844880000000  0.5049300000000  0.5376450000000 1.0
C      1  0.5503730000000  0.4532790000000  0.4946290000000 1.0
C      1  0.5404690000000  0.5632180000000  0.4396890000000 1.0
C      1  0.4828460000000  0.5263560000000  0.4297270000000 1.0
C      1  0.4528430000000  0.4564720000000  0.4657770000000 1.0
C      1  0.5270290000000  0.5443560000000  0.4259020000000 1.0
C      1  0.4633550000000  0.5056010000000  0.5870450000000 1.0
C      1  0.5040720000000  0.4638880000000  0.5164000000000 1.0
C      1  0.5400780000000  0.5504820000000  0.5120880000000 1.0
C      1  0.4431430000000  0.5029560000000  0.5668900000000 1.0
C      1  0.5322700000000  0.5526920000000  0.4802470000000 1.0
C      1  0.5833630000000  0.5685440000000  0.5360610000000 1.0
C      1  0.5486660000000  0.4975500000000  0.4365000000000 1.0
C      1  0.4997910000000  0.5548750000000  0.5375960000000 1.0
C      1  0.4367780000000  0.5296720000000  0.4913800000000 1.0
C      1  0.4825340000000  0.5800730000000  0.5117720000000 1.0
C      1  0.5549950000000  0.5349700000000  0.5569900000000 1.0
C      1  0.4734580000000  0.4605010000000  0.4909210000000 1.0
C      1  0.5043720000000  0.4571390000000  0.4852030000000 1.0
C      1  0.5593740000000  0.4610460000000  0.5750150000000 1.0
C      1  0.4612310000000  0.4260450000000  0.4731750000000 1.0
C      1  0.4376620000000  0.5090410000000  0.4657980000000 1.0
C      1  0.4548500000000  0.4436150000000  0.4232820000000 1.0
C      1  0.4367160000000  0.5273930000000  0.5527480000000 1.0
C      1  0.4860710000000  0.5326520000000  0.4819330000000 1.0
C      1  0.5211280000000  0.5257130000000  0.5208110000000 1.0
C      1  0.4917620000000  0.4538780000000  0.5717670000000 1.0
C      1  0.5021910000000  0.5562690000000  0.4711080000000 1.0
C      1  0.4490070000000  0.4393100000000  0.5016570000000 1.0
C      1  0.4742150000000  0.4858690000000  0.5485990000000 1.0
C      1  0.5588950000000  0.4290190000000  0.5372950000000 1.0
C      1  0.5505320000000  0.4830160000000  0.5120670000000 1.0
C      1  0.5721330000000  0.5513860000000  0.4827270000000 1.0
C      1  0.4918000000000  0.5043440000000  0.4796360000000 1.0
C      1  0.4346130000000  0.4644280000000  0.4312010000000 1.0
C      1  0.4131220000000  0.5290910000000  0.5374920000000 1.0
C      1  0.5329440000000  0.5807440000000  0.5165090000000 1.0
C      1  0.5156010000000  0.5821260000000  0.5387500000000 1.0
C      1  0.4099570000000  0.5332470000000  0.5106780000000 1.0
C      1  0.5714160000000  0.4873000000000  0.4783500000000 1.0
C      1  0.4016780000000  0.4849800000000  0.4997710000000 1.0
C      1  0.5100230000000  0.5214920000000  0.4210250000000 1.0
C      1  0.4774360000000  0.5496030000000  0.5700690000000 1.0
C      1  0.5313810000000  0.4665730000000  0.4180420000000 1.0
C      1  0.4062280000000  0.5414960000000  0.4534240000000 1.0
C      1  0.4988190000000  0.5715440000000  0.5654620000000 1.0
C      1  0.5804200000000  0.4751560000000  0.5265660000000 1.0
C      1  0.6142900000000  0.5012900000000  0.4996080000000 1.0
END
