TITL C-2778426-5645-218 0.00150673086007196 125000 -928.61211570667 0 0 159 (C1) n - 1
REM
REM in /home/nfs/bkarasulu/CARBON/AIRSS/Generating-Clusters/REBO/Only-C1/SD-CG/HFTN-CG
REM
REM
REM
REM
REM
REM ./C.cell (11c1c37f851c82e70ff6c80c92926a4b)
REM
REM compiler GCC version 9.2.1 20190827 (Red Hat 9.2.1-1)
REM options -cpp -mtune=generic -march=x86-64 -g -O0 -fpre-include=/usr/include/finclude/math-vector-fortran.h
REM seed -394719301 1719007464 -411395615 1951520244 -1635499148 170733837 993666839 -1530915057 591827722 -624812659 649424213 -1133226591 -210758889 -2026845062 -1580731914 871966627 1156094927 -1194374197 1514880570 -181086509 -1150219331 398925075 -1593611067 -352165511 1788842617 -226109737 -566437630 469602310 -990960526 -873516926 889436453 272546155 236394936
REM
CELL 1.54180   50.00000   50.00000   50.00000   90.00000   90.00000   90.00000
LATT -1
SFAC C  
C      1  0.5036440000000  0.5696740000000  0.4451510000000 1.0
C      1  0.5471360000000  0.4643530000000  0.4850230000000 1.0
C      1  0.4791130000000  0.5189000000000  0.5593710000000 1.0
C      1  0.4899420000000  0.4725090000000  0.4018570000000 1.0
C      1  0.5032640000000  0.4662560000000  0.5039270000000 1.0
C      1  0.4810280000000  0.4230070000000  0.4372320000000 1.0
C      1  0.5535940000000  0.4103940000000  0.4818890000000 1.0
C      1  0.4093370000000  0.5669870000000  0.5403530000000 1.0
C      1  0.4591260000000  0.5343980000000  0.5903290000000 1.0
C      1  0.4900870000000  0.4016720000000  0.4809990000000 1.0
C      1  0.4070770000000  0.4667660000000  0.4629260000000 1.0
C      1  0.5234410000000  0.4199060000000  0.4925800000000 1.0
C      1  0.4483080000000  0.5881590000000  0.4994750000000 1.0
C      1  0.5388290000000  0.4453570000000  0.5359620000000 1.0
C      1  0.6049020000000  0.5286720000000  0.5490440000000 1.0
C      1  0.5666360000000  0.4645170000000  0.5713350000000 1.0
C      1  0.5133580000000  0.5175310000000  0.5134390000000 1.0
C      1  0.4914830000000  0.5916110000000  0.4649530000000 1.0
C      1  0.4146090000000  0.5176990000000  0.4552280000000 1.0
C      1  0.5471440000000  0.5673980000000  0.5561570000000 1.0
C      1  0.5388190000000  0.5766200000000  0.4862020000000 1.0
C      1  0.5823850000000  0.4600750000000  0.4521980000000 1.0
C      1  0.4932890000000  0.4333340000000  0.5567640000000 1.0
C      1  0.4673920000000  0.4495470000000  0.3969410000000 1.0
C      1  0.4258290000000  0.5006580000000  0.5318000000000 1.0
C      1  0.5935530000000  0.5499720000000  0.5432180000000 1.0
C      1  0.4257760000000  0.4995420000000  0.5830550000000 1.0
C      1  0.5764350000000  0.4560540000000  0.5437180000000 1.0
C      1  0.5243080000000  0.5486770000000  0.4900340000000 1.0
C      1  0.5650970000000  0.4913610000000  0.4830840000000 1.0
C      1  0.4638720000000  0.5218600000000  0.4651890000000 1.0
C      1  0.5049380000000  0.5535540000000  0.5792590000000 1.0
C      1  0.4469750000000  0.4815700000000  0.4342610000000 1.0
C      1  0.4736240000000  0.4205770000000  0.4657320000000 1.0
C      1  0.5345350000000  0.4650280000000  0.4553320000000 1.0
C      1  0.5407990000000  0.4887560000000  0.5980400000000 1.0
C      1  0.4152360000000  0.5261930000000  0.4881970000000 1.0
C      1  0.4764500000000  0.5363270000000  0.5369610000000 1.0
C      1  0.4143730000000  0.4378250000000  0.5373960000000 1.0
C      1  0.6141530000000  0.4931230000000  0.4719310000000 1.0
C      1  0.4482880000000  0.5662460000000  0.4768160000000 1.0
C      1  0.5284000000000  0.4769990000000  0.4100800000000 1.0
C      1  0.5633150000000  0.5038630000000  0.5321730000000 1.0
C      1  0.4914480000000  0.4724230000000  0.5662640000000 1.0
C      1  0.5194810000000  0.4635550000000  0.5574700000000 1.0
C      1  0.5941300000000  0.4779780000000  0.5244970000000 1.0
C      1  0.5255330000000  0.4150010000000  0.5421060000000 1.0
C      1  0.4366770000000  0.5261640000000  0.4039600000000 1.0
C      1  0.5227530000000  0.4795470000000  0.5212740000000 1.0
C      1  0.6084730000000  0.5219590000000  0.4845470000000 1.0
C      1  0.5875770000000  0.4497930000000  0.5063430000000 1.0
C      1  0.5093310000000  0.5603060000000  0.5460440000000 1.0
C      1  0.5335750000000  0.4389730000000  0.4257300000000 1.0
C      1  0.5055080000000  0.4974590000000  0.5384900000000 1.0
C      1  0.5603350000000  0.5148100000000  0.5045670000000 1.0
C      1  0.5175850000000  0.4885660000000  0.4735130000000 1.0
C      1  0.5503710000000  0.5760190000000  0.4364640000000 1.0
C      1  0.5674970000000  0.5756830000000  0.5039030000000 1.0
C      1  0.4223170000000  0.5816500000000  0.5204610000000 1.0
C      1  0.4458520000000  0.4734720000000  0.5737920000000 1.0
C      1  0.5975010000000  0.4853440000000  0.4501280000000 1.0
C      1  0.4765170000000  0.3974920000000  0.5616950000000 1.0
C      1  0.4261920000000  0.5485810000000  0.4653810000000 1.0
C      1  0.4655890000000  0.5833450000000  0.5257970000000 1.0
C      1  0.4638100000000  0.5411940000000  0.4902570000000 1.0
C      1  0.5170250000000  0.5975530000000  0.4855040000000 1.0
C      1  0.5642820000000  0.5239790000000  0.4203880000000 1.0
C      1  0.5355120000000  0.5495190000000  0.5764890000000 1.0
C      1  0.4420450000000  0.5064360000000  0.4819810000000 1.0
C      1  0.4487750000000  0.5640330000000  0.5446460000000 1.0
C      1  0.4944790000000  0.5522350000000  0.4936020000000 1.0
C      1  0.4964200000000  0.4531340000000  0.4612800000000 1.0
C      1  0.4316400000000  0.5281390000000  0.5822490000000 1.0
C      1  0.5318920000000  0.5155410000000  0.4849550000000 1.0
C      1  0.4823320000000  0.3993730000000  0.5079090000000 1.0
C      1  0.5065790000000  0.6069510000000  0.5386810000000 1.0
C      1  0.4880510000000  0.5613270000000  0.5226920000000 1.0
C      1  0.5578510000000  0.4620030000000  0.4324160000000 1.0
C      1  0.4805300000000  0.6004870000000  0.5498860000000 1.0
C      1  0.4805620000000  0.5486630000000  0.4111540000000 1.0
C      1  0.5458980000000  0.4120170000000  0.5152420000000 1.0
C      1  0.4126990000000  0.4900360000000  0.5588940000000 1.0
C      1  0.4579190000000  0.5111320000000  0.3949040000000 1.0
C      1  0.5220070000000  0.5336160000000  0.5404340000000 1.0
C      1  0.4675470000000  0.5648610000000  0.4288060000000 1.0
C      1  0.5244500000000  0.4334970000000  0.5709900000000 1.0
C      1  0.4834230000000  0.5230990000000  0.3993600000000 1.0
C      1  0.4709550000000  0.4505050000000  0.5765640000000 1.0
C      1  0.5272130000000  0.5819980000000  0.4282140000000 1.0
C      1  0.5122120000000  0.5133940000000  0.5658380000000 1.0
C      1  0.5043530000000  0.4633270000000  0.4297300000000 1.0
C      1  0.4675390000000  0.4444790000000  0.5371430000000 1.0
C      1  0.4607680000000  0.4342340000000  0.4202920000000 1.0
C      1  0.5299910000000  0.5054420000000  0.4287550000000 1.0
C      1  0.5519590000000  0.4763810000000  0.5313140000000 1.0
C      1  0.4912450000000  0.4905910000000  0.5930240000000 1.0
C      1  0.5402430000000  0.4309560000000  0.4581390000000 1.0
C      1  0.5915950000000  0.5014670000000  0.5479960000000 1.0
C      1  0.4784920000000  0.6027190000000  0.4934670000000 1.0
C      1  0.4854450000000  0.4862010000000  0.4852300000000 1.0
C      1  0.4104190000000  0.4213100000000  0.5161210000000 1.0
C      1  0.4589400000000  0.5137500000000  0.4347590000000 1.0
C      1  0.5058450000000  0.5022380000000  0.4044540000000 1.0
C      1  0.5763580000000  0.4531850000000  0.4797360000000 1.0
C      1  0.4178810000000  0.4891330000000  0.4487290000000 1.0
C      1  0.5039770000000  0.6103050000000  0.5101730000000 1.0
C      1  0.4579950000000  0.4816100000000  0.4020760000000 1.0
C      1  0.4187660000000  0.5427840000000  0.5598550000000 1.0
C      1  0.4569320000000  0.5235360000000  0.5147600000000 1.0
C      1  0.4368980000000  0.5389170000000  0.5338670000000 1.0
C      1  0.5665180000000  0.5606010000000  0.5336400000000 1.0
C      1  0.4925620000000  0.5189020000000  0.4379960000000 1.0
C      1  0.5179980000000  0.4477630000000  0.4867270000000 1.0
C      1  0.5485240000000  0.5226190000000  0.5509260000000 1.0
C      1  0.4704510000000  0.4756160000000  0.4567720000000 1.0
C      1  0.5409450000000  0.5419520000000  0.4179000000000 1.0
C      1  0.5185470000000  0.4045320000000  0.4636720000000 1.0
C      1  0.4567180000000  0.4130590000000  0.5389090000000 1.0
C      1  0.4383070000000  0.4465310000000  0.5544540000000 1.0
C      1  0.4729770000000  0.5109170000000  0.5980270000000 1.0
C      1  0.5677290000000  0.5015480000000  0.4532370000000 1.0
C      1  0.4959360000000  0.4062090000000  0.5354010000000 1.0
C      1  0.5262630000000  0.5876180000000  0.5469120000000 1.0
C      1  0.5350490000000  0.4882050000000  0.5655530000000 1.0
C      1  0.5425870000000  0.5246160000000  0.4539060000000 1.0
C      1  0.5098360000000  0.4194100000000  0.4353130000000 1.0
C      1  0.5516090000000  0.5558080000000  0.4587730000000 1.0
C      1  0.5124740000000  0.4887670000000  0.6103110000000 1.0
C      1  0.5154520000000  0.5425950000000  0.4296440000000 1.0
C      1  0.5758490000000  0.5592220000000  0.4772010000000 1.0
C      1  0.5441160000000  0.4558880000000  0.5876830000000 1.0
C      1  0.4398590000000  0.4480890000000  0.4342560000000 1.0
C      1  0.5940880000000  0.4942790000000  0.4984570000000 1.0
C      1  0.3863250000000  0.4918940000000  0.5045730000000 1.0
C      1  0.4776590000000  0.4842840000000  0.5401930000000 1.0
C      1  0.5686080000000  0.4310760000000  0.5255560000000 1.0
C      1  0.4660590000000  0.5769170000000  0.5651800000000 1.0
C      1  0.5526180000000  0.5450460000000  0.5065000000000 1.0
C      1  0.4532610000000  0.4004260000000  0.5120480000000 1.0
C      1  0.4288100000000  0.4865380000000  0.5018100000000 1.0
C      1  0.4560090000000  0.4223650000000  0.5712470000000 1.0
C      1  0.5583320000000  0.4907830000000  0.4160800000000 1.0
C      1  0.4711280000000  0.4588510000000  0.5104780000000 1.0
C      1  0.4178130000000  0.4428640000000  0.4514320000000 1.0
C      1  0.5839890000000  0.5284370000000  0.4435720000000 1.0
C      1  0.4331110000000  0.5356530000000  0.4346580000000 1.0
C      1  0.5495600000000  0.5195410000000  0.5848110000000 1.0
C      1  0.4665480000000  0.4931800000000  0.5110130000000 1.0
C      1  0.4041700000000  0.4721570000000  0.4909780000000 1.0
C      1  0.5690610000000  0.4952620000000  0.5707480000000 1.0
C      1  0.4521830000000  0.4986770000000  0.5532210000000 1.0
C      1  0.4695200000000  0.4465030000000  0.4813560000000 1.0
C      1  0.4906220000000  0.5433220000000  0.4609610000000 1.0
C      1  0.5948860000000  0.5406330000000  0.4675390000000 1.0
C      1  0.4652800000000  0.5765760000000  0.4532580000000 1.0
C      1  0.4270200000000  0.4037850000000  0.5025790000000 1.0
C      1  0.4021290000000  0.5140770000000  0.5125290000000 1.0
C      1  0.4765390000000  0.5568190000000  0.5830890000000 1.0
C      1  0.4984750000000  0.4906520000000  0.4479310000000 1.0
END
