TITL C-2778422-5617-464 0.00131494179187341 125000 -1018.93423641388 0 0 175 (C1) n - 1
REM
REM in /home/nfs/bkarasulu/CARBON/AIRSS/Generating-Clusters/REBO/Only-C1/SD-CG/HFTN-CG
REM
REM
REM
REM
REM
REM ./C.cell (11c1c37f851c82e70ff6c80c92926a4b)
REM
REM compiler GCC version 9.2.1 20190827 (Red Hat 9.2.1-1)
REM options -cpp -mtune=generic -march=x86-64 -g -O0 -fpre-include=/usr/include/finclude/math-vector-fortran.h
REM seed 1984180389 776495559 1077150821 -1890705421 -793526443 -219794369 973955462 -1038753020 53696353 -4475449 155306211 -631924244 1799829613 -230185419 -1863105516 2076847278 -438405648 44840871 1231217804 803051446 -1490581144 -951513717 -37657457 -462606043 -600596743 -1763888017 -689419917 -2138287653 -1898744765 -481861431 926879622 832713200 -1523375475
REM
CELL 1.54180   50.00000   50.00000   50.00000   90.00000   90.00000   90.00000
LATT -1
SFAC C  
C      1  0.4773430000000  0.5628200000000  0.5898270000000 1.0
C      1  0.4563910000000  0.5642590000000  0.5652720000000 1.0
C      1  0.4056620000000  0.4383510000000  0.4727670000000 1.0
C      1  0.4705330000000  0.5746440000000  0.5358630000000 1.0
C      1  0.5385910000000  0.4411240000000  0.4937420000000 1.0
C      1  0.4167120000000  0.4650470000000  0.4547360000000 1.0
C      1  0.5099790000000  0.5471950000000  0.4606600000000 1.0
C      1  0.5120090000000  0.5114330000000  0.4210240000000 1.0
C      1  0.5260900000000  0.4449160000000  0.4300820000000 1.0
C      1  0.5554410000000  0.4923860000000  0.4117770000000 1.0
C      1  0.5059980000000  0.4904730000000  0.3874920000000 1.0
C      1  0.3955310000000  0.4874960000000  0.5485560000000 1.0
C      1  0.5456860000000  0.4258890000000  0.4506740000000 1.0
C      1  0.6085880000000  0.5157990000000  0.5051750000000 1.0
C      1  0.4763870000000  0.5247070000000  0.4093360000000 1.0
C      1  0.5732160000000  0.4611360000000  0.5552170000000 1.0
C      1  0.5004370000000  0.4326250000000  0.5700440000000 1.0
C      1  0.5116010000000  0.4870540000000  0.4518060000000 1.0
C      1  0.5643460000000  0.4713610000000  0.4955310000000 1.0
C      1  0.5261830000000  0.5249530000000  0.4472020000000 1.0
C      1  0.4037980000000  0.5590100000000  0.5515870000000 1.0
C      1  0.5272360000000  0.4294770000000  0.5542310000000 1.0
C      1  0.4658450000000  0.5352960000000  0.5394260000000 1.0
C      1  0.5587760000000  0.5329660000000  0.4394750000000 1.0
C      1  0.5000930000000  0.4487760000000  0.4517990000000 1.0
C      1  0.5457000000000  0.4755460000000  0.4732950000000 1.0
C      1  0.5106660000000  0.6059780000000  0.5480040000000 1.0
C      1  0.4843400000000  0.3869280000000  0.5037710000000 1.0
C      1  0.4424340000000  0.4796110000000  0.5559620000000 1.0
C      1  0.4489680000000  0.5634090000000  0.4680590000000 1.0
C      1  0.5300300000000  0.4039580000000  0.4665300000000 1.0
C      1  0.4131010000000  0.4383280000000  0.5272710000000 1.0
C      1  0.5346310000000  0.4018990000000  0.4974090000000 1.0
C      1  0.4237550000000  0.5299240000000  0.4987600000000 1.0
C      1  0.5096880000000  0.4233570000000  0.4949060000000 1.0
C      1  0.4499670000000  0.4240770000000  0.4488390000000 1.0
C      1  0.4503480000000  0.5033490000000  0.4147330000000 1.0
C      1  0.4860800000000  0.4770010000000  0.4021590000000 1.0
C      1  0.5199750000000  0.4785200000000  0.4230630000000 1.0
C      1  0.5533360000000  0.4120480000000  0.5172950000000 1.0
C      1  0.5276150000000  0.5779220000000  0.5566780000000 1.0
C      1  0.4905380000000  0.5250680000000  0.5803240000000 1.0
C      1  0.6119260000000  0.4656230000000  0.5071220000000 1.0
C      1  0.4773900000000  0.5994430000000  0.4449270000000 1.0
C      1  0.5726680000000  0.4326110000000  0.5046910000000 1.0
C      1  0.4405650000000  0.5565940000000  0.4961610000000 1.0
C      1  0.3981540000000  0.5460330000000  0.4586860000000 1.0
C      1  0.4181580000000  0.5533820000000  0.4448860000000 1.0
C      1  0.5284670000000  0.5020190000000  0.5537110000000 1.0
C      1  0.5096680000000  0.5575660000000  0.5127310000000 1.0
C      1  0.5362580000000  0.4724440000000  0.5651620000000 1.0
C      1  0.4812410000000  0.5214900000000  0.4720600000000 1.0
C      1  0.4868000000000  0.5207970000000  0.4416570000000 1.0
C      1  0.4570520000000  0.4054280000000  0.4692790000000 1.0
C      1  0.5521690000000  0.5628670000000  0.4371190000000 1.0
C      1  0.5054860000000  0.3911570000000  0.5222770000000 1.0
C      1  0.5932660000000  0.5602490000000  0.5321620000000 1.0
C      1  0.5884170000000  0.4569540000000  0.4615760000000 1.0
C      1  0.4932130000000  0.5783620000000  0.5591480000000 1.0
C      1  0.5677840000000  0.4473720000000  0.4360980000000 1.0
C      1  0.4266150000000  0.5323020000000  0.5325840000000 1.0
C      1  0.5167500000000  0.5511600000000  0.5424690000000 1.0
C      1  0.4598010000000  0.4084050000000  0.5415370000000 1.0
C      1  0.5223660000000  0.4788160000000  0.5139070000000 1.0
C      1  0.4924520000000  0.5106790000000  0.5224300000000 1.0
C      1  0.5420310000000  0.6070760000000  0.5567100000000 1.0
C      1  0.4548590000000  0.5043050000000  0.4590100000000 1.0
C      1  0.4140190000000  0.4924810000000  0.4887850000000 1.0
C      1  0.5904750000000  0.5301450000000  0.5291360000000 1.0
C      1  0.5387280000000  0.5026400000000  0.5019200000000 1.0
C      1  0.4789000000000  0.5942250000000  0.4919390000000 1.0
C      1  0.5010260000000  0.4006000000000  0.4282180000000 1.0
C      1  0.4725360000000  0.4996630000000  0.4966810000000 1.0
C      1  0.5046850000000  0.3961370000000  0.4561780000000 1.0
C      1  0.4439470000000  0.4311220000000  0.5364980000000 1.0
C      1  0.4112110000000  0.4970010000000  0.4548120000000 1.0
C      1  0.5608170000000  0.4764710000000  0.5814180000000 1.0
C      1  0.5313100000000  0.5386010000000  0.3991780000000 1.0
C      1  0.4463080000000  0.5361320000000  0.4494520000000 1.0
C      1  0.5662880000000  0.5721770000000  0.5370400000000 1.0
C      1  0.6168200000000  0.5690810000000  0.5152830000000 1.0
C      1  0.5253600000000  0.4656750000000  0.5376060000000 1.0
C      1  0.4895270000000  0.5436160000000  0.5570630000000 1.0
C      1  0.5045100000000  0.5226020000000  0.3903440000000 1.0
C      1  0.4176950000000  0.4268160000000  0.4973150000000 1.0
C      1  0.4865220000000  0.4604730000000  0.5814240000000 1.0
C      1  0.5081590000000  0.4167370000000  0.5343180000000 1.0
C      1  0.5625580000000  0.4665650000000  0.5231600000000 1.0
C      1  0.4467560000000  0.4735960000000  0.4459780000000 1.0
C      1  0.4093670000000  0.4962980000000  0.5709910000000 1.0
C      1  0.5114330000000  0.4212270000000  0.4132110000000 1.0
C      1  0.6058820000000  0.5476720000000  0.4965010000000 1.0
C      1  0.3839560000000  0.5098340000000  0.5298170000000 1.0
C      1  0.5415610000000  0.5075950000000  0.4683600000000 1.0
C      1  0.5292720000000  0.5669770000000  0.4120910000000 1.0
C      1  0.4925380000000  0.5955240000000  0.5228110000000 1.0
C      1  0.4987790000000  0.4985880000000  0.5518200000000 1.0
C      1  0.5251820000000  0.5942320000000  0.5116900000000 1.0
C      1  0.4230030000000  0.4325290000000  0.4470580000000 1.0
C      1  0.4292840000000  0.5708450000000  0.5463420000000 1.0
C      1  0.4510780000000  0.5177350000000  0.5143060000000 1.0
C      1  0.5800650000000  0.5531430000000  0.4870450000000 1.0
C      1  0.5673470000000  0.5039530000000  0.5852940000000 1.0
C      1  0.4853660000000  0.4434050000000  0.4998410000000 1.0
C      1  0.4729030000000  0.4541890000000  0.5509460000000 1.0
C      1  0.4691590000000  0.4921760000000  0.5390600000000 1.0
C      1  0.4456640000000  0.4426110000000  0.5044740000000 1.0
C      1  0.5557030000000  0.4947050000000  0.5383530000000 1.0
C      1  0.5484160000000  0.5575410000000  0.6246380000000 1.0
C      1  0.5971080000000  0.4483560000000  0.4925470000000 1.0
C      1  0.4900630000000  0.5466620000000  0.4883500000000 1.0
C      1  0.5375460000000  0.5490110000000  0.6008770000000 1.0
C      1  0.5550610000000  0.5323890000000  0.5841300000000 1.0
C      1  0.4585970000000  0.3940120000000  0.5156290000000 1.0
C      1  0.4955110000000  0.4746380000000  0.4983470000000 1.0
C      1  0.5639960000000  0.5453180000000  0.5548920000000 1.0
C      1  0.4969270000000  0.5723380000000  0.4107720000000 1.0
C      1  0.4412110000000  0.4043680000000  0.4940580000000 1.0
C      1  0.5369820000000  0.5308550000000  0.5486370000000 1.0
C      1  0.4582080000000  0.4658610000000  0.5228540000000 1.0
C      1  0.4832230000000  0.3931440000000  0.4748660000000 1.0
C      1  0.4853510000000  0.5380600000000  0.6115380000000 1.0
C      1  0.4032950000000  0.5217830000000  0.4766310000000 1.0
C      1  0.5521800000000  0.4583050000000  0.4108170000000 1.0
C      1  0.4835380000000  0.4767810000000  0.4604400000000 1.0
C      1  0.3947060000000  0.5349880000000  0.5355320000000 1.0
C      1  0.4867390000000  0.4352840000000  0.5294290000000 1.0
C      1  0.4246180000000  0.4677760000000  0.5295050000000 1.0
C      1  0.5608510000000  0.4799770000000  0.4431480000000 1.0
C      1  0.4270390000000  0.5137230000000  0.4328310000000 1.0
C      1  0.5539130000000  0.4377950000000  0.5396010000000 1.0
C      1  0.5823710000000  0.5169510000000  0.5592580000000 1.0
C      1  0.4101050000000  0.4266940000000  0.5573200000000 1.0
C      1  0.5638270000000  0.4376890000000  0.4740560000000 1.0
C      1  0.4485660000000  0.4704010000000  0.4135070000000 1.0
C      1  0.5973110000000  0.4851530000000  0.4585220000000 1.0
C      1  0.4677160000000  0.5538520000000  0.5113200000000 1.0
C      1  0.5444050000000  0.5418890000000  0.5018350000000 1.0
C      1  0.5623110000000  0.5196370000000  0.5200380000000 1.0
C      1  0.4902960000000  0.4906150000000  0.5812890000000 1.0
C      1  0.4438640000000  0.4860650000000  0.4836380000000 1.0
C      1  0.5024230000000  0.5686900000000  0.4414630000000 1.0
C      1  0.4641780000000  0.5876390000000  0.4680030000000 1.0
C      1  0.4759610000000  0.5918600000000  0.4175260000000 1.0
C      1  0.4049470000000  0.4871330000000  0.5155930000000 1.0
C      1  0.4627160000000  0.4598890000000  0.4813850000000 1.0
C      1  0.4785800000000  0.4909950000000  0.4298210000000 1.0
C      1  0.5932020000000  0.5125230000000  0.4775530000000 1.0
C      1  0.5086640000000  0.5987610000000  0.4865020000000 1.0
C      1  0.4275190000000  0.4356780000000  0.5766270000000 1.0
C      1  0.5501120000000  0.5215310000000  0.4117190000000 1.0
C      1  0.4735540000000  0.5081660000000  0.6045690000000 1.0
C      1  0.5452670000000  0.5800150000000  0.4650770000000 1.0
C      1  0.4706720000000  0.4523300000000  0.6065540000000 1.0
C      1  0.6084220000000  0.4887840000000  0.5206010000000 1.0
C      1  0.4434660000000  0.5075890000000  0.6022430000000 1.0
C      1  0.5101180000000  0.5556980000000  0.5963950000000 1.0
C      1  0.5336770000000  0.4775820000000  0.3911260000000 1.0
C      1  0.5891590000000  0.4884140000000  0.5434630000000 1.0
C      1  0.4716940000000  0.4507010000000  0.4060700000000 1.0
C      1  0.5771490000000  0.5096180000000  0.4472520000000 1.0
C      1  0.4291320000000  0.5140460000000  0.5801650000000 1.0
C      1  0.4477270000000  0.4550830000000  0.5738150000000 1.0
C      1  0.5636670000000  0.5760350000000  0.4894510000000 1.0
C      1  0.4797290000000  0.4129460000000  0.5621040000000 1.0
C      1  0.5265880000000  0.5622030000000  0.4840880000000 1.0
C      1  0.5164040000000  0.4591890000000  0.4790150000000 1.0
C      1  0.5638430000000  0.5261620000000  0.4808200000000 1.0
C      1  0.4394930000000  0.5350490000000  0.5609500000000 1.0
C      1  0.5162720000000  0.5248190000000  0.5124100000000 1.0
C      1  0.5516210000000  0.5834260000000  0.5146920000000 1.0
C      1  0.5342310000000  0.5916870000000  0.4352540000000 1.0
C      1  0.5088070000000  0.5988950000000  0.4554670000000 1.0
C      1  0.4683080000000  0.4470880000000  0.4391970000000 1.0
C      1  0.4339500000000  0.5768270000000  0.5199620000000 1.0
END
