TITL C-2778436-5916-857 -0.000106679786840194 125000 -615.316363785257 0 0 106 (C1) n - 1
REM
REM in /home/nfs/bkarasulu/CARBON/AIRSS/Generating-Clusters/REBO/Only-C1/SD-CG/HFTN-CG
REM
REM
REM
REM
REM
REM ./C.cell (11c1c37f851c82e70ff6c80c92926a4b)
REM
REM compiler GCC version 9.2.1 20190827 (Red Hat 9.2.1-1)
REM options -cpp -mtune=generic -march=x86-64 -g -O0 -fpre-include=/usr/include/finclude/math-vector-fortran.h
REM seed -2119885514 1512555320 -1854767656 -353331406 -1522300763 1713852083 -1284323829 1030080235 -1081889182 -842626624 117554138 726390111 305344099 582481637 1577485039 -666764149 712992337 -686435294 -1313880068 647090061 629294366 -1312744419 762177308 -570134202 1826998710 -863395786 -100813670 -1095774810 1552634228 -788488286 862443469 106028865 -1305482365
REM
CELL 1.54180   50.00000   50.00000   50.00000   90.00000   90.00000   90.00000
LATT -1
SFAC C  
C      1  0.4541310000000  0.4895490000000  0.4788130000000 1.0
C      1  0.4259200000000  0.4724370000000  0.5286820000000 1.0
C      1  0.5131470000000  0.5209690000000  0.5360260000000 1.0
C      1  0.4420620000000  0.4551200000000  0.5677940000000 1.0
C      1  0.4938410000000  0.5207420000000  0.4774190000000 1.0
C      1  0.5481550000000  0.4536040000000  0.5038550000000 1.0
C      1  0.5175230000000  0.4298320000000  0.5872110000000 1.0
C      1  0.4620000000000  0.4881400000000  0.4271210000000 1.0
C      1  0.4507710000000  0.5343070000000  0.4583510000000 1.0
C      1  0.5280980000000  0.5463360000000  0.4995600000000 1.0
C      1  0.5163740000000  0.4221350000000  0.4552600000000 1.0
C      1  0.5654890000000  0.4671400000000  0.5298000000000 1.0
C      1  0.5078980000000  0.5122940000000  0.5042910000000 1.0
C      1  0.4390380000000  0.4560530000000  0.4628010000000 1.0
C      1  0.5752080000000  0.5390380000000  0.4808940000000 1.0
C      1  0.5656310000000  0.4372040000000  0.4718860000000 1.0
C      1  0.5138720000000  0.5816670000000  0.5107900000000 1.0
C      1  0.4591570000000  0.5821180000000  0.4582270000000 1.0
C      1  0.5185230000000  0.5317490000000  0.4196920000000 1.0
C      1  0.4121100000000  0.5081990000000  0.5174020000000 1.0
C      1  0.4980000000000  0.5555500000000  0.5002920000000 1.0
C      1  0.5025860000000  0.4984850000000  0.4554550000000 1.0
C      1  0.4592810000000  0.5216020000000  0.4341060000000 1.0
C      1  0.5529400000000  0.5522420000000  0.4691080000000 1.0
C      1  0.5235070000000  0.4545820000000  0.4120750000000 1.0
C      1  0.4415270000000  0.4890970000000  0.5717610000000 1.0
C      1  0.5157850000000  0.5529850000000  0.4016590000000 1.0
C      1  0.5151040000000  0.4507790000000  0.5700890000000 1.0
C      1  0.5314490000000  0.5452500000000  0.5394000000000 1.0
C      1  0.5296150000000  0.4524830000000  0.5458250000000 1.0
C      1  0.5340020000000  0.5753240000000  0.4840010000000 1.0
C      1  0.4891970000000  0.5062230000000  0.4290510000000 1.0
C      1  0.5659380000000  0.5105370000000  0.5071800000000 1.0
C      1  0.5006110000000  0.5676750000000  0.4479620000000 1.0
C      1  0.4681530000000  0.4690580000000  0.5784350000000 1.0
C      1  0.4991390000000  0.3935680000000  0.4899080000000 1.0
C      1  0.5752260000000  0.5052170000000  0.4756050000000 1.0
C      1  0.4746960000000  0.5287060000000  0.5778490000000 1.0
C      1  0.5620090000000  0.4840040000000  0.4531900000000 1.0
C      1  0.4360770000000  0.5869090000000  0.5054820000000 1.0
C      1  0.4744540000000  0.4642770000000  0.4855620000000 1.0
C      1  0.4968160000000  0.4709950000000  0.5325350000000 1.0
C      1  0.5493070000000  0.5220920000000  0.4277070000000 1.0
C      1  0.4112940000000  0.4905010000000  0.4961860000000 1.0
C      1  0.4766030000000  0.4043990000000  0.4871170000000 1.0
C      1  0.5343440000000  0.5045670000000  0.5770040000000 1.0
C      1  0.5607820000000  0.5463000000000  0.5350920000000 1.0
C      1  0.4333930000000  0.4479320000000  0.5417260000000 1.0
C      1  0.4953180000000  0.5073890000000  0.5851470000000 1.0
C      1  0.5924430000000  0.4743430000000  0.5180850000000 1.0
C      1  0.5405110000000  0.5218650000000  0.5076240000000 1.0
C      1  0.4396450000000  0.4876620000000  0.4494250000000 1.0
C      1  0.4948540000000  0.4702070000000  0.5722470000000 1.0
C      1  0.4138160000000  0.4784880000000  0.4682680000000 1.0
C      1  0.5049600000000  0.5829320000000  0.4719790000000 1.0
C      1  0.5531940000000  0.4938720000000  0.4278240000000 1.0
C      1  0.5346100000000  0.4286010000000  0.5318850000000 1.0
C      1  0.4628930000000  0.5188760000000  0.4822280000000 1.0
C      1  0.5301170000000  0.5044070000000  0.4721550000000 1.0
C      1  0.5143490000000  0.5316380000000  0.5742650000000 1.0
C      1  0.4691870000000  0.4325230000000  0.4744890000000 1.0
C      1  0.5108150000000  0.4344140000000  0.4240300000000 1.0
C      1  0.4565650000000  0.5313830000000  0.5093360000000 1.0
C      1  0.4639120000000  0.5944680000000  0.5068760000000 1.0
C      1  0.4761580000000  0.5758250000000  0.4356310000000 1.0
C      1  0.4492260000000  0.5198630000000  0.5705690000000 1.0
C      1  0.4256280000000  0.5677330000000  0.4883710000000 1.0
C      1  0.4852200000000  0.4322980000000  0.4461140000000 1.0
C      1  0.4907320000000  0.5520960000000  0.5655750000000 1.0
C      1  0.5063330000000  0.5379650000000  0.4507050000000 1.0
C      1  0.5555050000000  0.4142740000000  0.4833180000000 1.0
C      1  0.4302690000000  0.5334400000000  0.5535810000000 1.0
C      1  0.4015970000000  0.5240250000000  0.5609640000000 1.0
C      1  0.4961030000000  0.4844130000000  0.5024380000000 1.0
C      1  0.5227160000000  0.4535590000000  0.4569710000000 1.0
C      1  0.5893130000000  0.5205850000000  0.5255870000000 1.0
C      1  0.4796570000000  0.5646090000000  0.5424080000000 1.0
C      1  0.4171240000000  0.4960240000000  0.5490580000000 1.0
C      1  0.5372010000000  0.5313730000000  0.4549890000000 1.0
C      1  0.4392970000000  0.4284650000000  0.5211600000000 1.0
C      1  0.5656560000000  0.5088160000000  0.5685250000000 1.0
C      1  0.4334420000000  0.5280670000000  0.5248210000000 1.0
C      1  0.5482890000000  0.4873320000000  0.5508410000000 1.0
C      1  0.4991450000000  0.4687240000000  0.4546350000000 1.0
C      1  0.4757630000000  0.5915480000000  0.5330660000000 1.0
C      1  0.5790450000000  0.5279740000000  0.5539520000000 1.0
C      1  0.4427330000000  0.4408620000000  0.4919630000000 1.0
C      1  0.4776890000000  0.5910630000000  0.4813410000000 1.0
C      1  0.5505670000000  0.4590240000000  0.4611660000000 1.0
C      1  0.5283280000000  0.4890820000000  0.5995990000000 1.0
C      1  0.4408570000000  0.5606030000000  0.4652670000000 1.0
C      1  0.5813000000000  0.5472190000000  0.5079600000000 1.0
C      1  0.5201450000000  0.5718620000000  0.5374420000000 1.0
C      1  0.5241310000000  0.4339530000000  0.5030740000000 1.0
C      1  0.5282800000000  0.4802430000000  0.5258070000000 1.0
C      1  0.5236320000000  0.4103330000000  0.4820150000000 1.0
C      1  0.5387870000000  0.4845700000000  0.4936950000000 1.0
C      1  0.5430240000000  0.4040580000000  0.5408040000000 1.0
C      1  0.5716500000000  0.4749970000000  0.4911500000000 1.0
C      1  0.4773680000000  0.5475690000000  0.5186150000000 1.0
C      1  0.5028770000000  0.4969260000000  0.5536910000000 1.0
C      1  0.4376550000000  0.4715220000000  0.4994560000000 1.0
C      1  0.5114620000000  0.5019720000000  0.4076070000000 1.0
C      1  0.5315370000000  0.4816170000000  0.4123320000000 1.0
C      1  0.4987640000000  0.4505160000000  0.5052090000000 1.0
C      1  0.4678230000000  0.4599580000000  0.4454300000000 1.0
END
