TITL C-2778426-5645-1201 -0.00213987220309976 125000 -279.604882825884 0 0 50 (C1) n - 1
REM
REM in /home/nfs/bkarasulu/CARBON/AIRSS/Generating-Clusters/REBO/Only-C1/SD-CG/HFTN-CG
REM
REM
REM
REM
REM
REM ./C.cell (11c1c37f851c82e70ff6c80c92926a4b)
REM
REM compiler GCC version 9.2.1 20190827 (Red Hat 9.2.1-1)
REM options -cpp -mtune=generic -march=x86-64 -g -O0 -fpre-include=/usr/include/finclude/math-vector-fortran.h
REM seed 1114248058 -232857487 -1426174248 -2057932240 1476553939 999123559 -1072204460 899681989 -1043523573 -862220099 891137429 1732104899 -531037453 -1771863769 -1151755001 461038818 -239922710 -841834420 2080768399 -869700518 299728772 -251313305 1618925726 125644694 234983906 400852495 1220652992 2065957496 1441635515 367070221 1943761358 -2123931963 -785561265
REM
CELL 1.54180   50.00000   50.00000   50.00000   90.00000   90.00000   90.00000
LATT -1
SFAC C  
C      1  0.5078090000000  0.5138590000000  0.4791710000000 1.0
C      1  0.5295110000000  0.5616030000000  0.5020830000000 1.0
C      1  0.4298310000000  0.5151770000000  0.4941680000000 1.0
C      1  0.5444210000000  0.4732760000000  0.5510190000000 1.0
C      1  0.5778210000000  0.5100910000000  0.4673110000000 1.0
C      1  0.4732170000000  0.4204720000000  0.4910520000000 1.0
C      1  0.4537070000000  0.4395660000000  0.4958720000000 1.0
C      1  0.5024770000000  0.5465190000000  0.5807570000000 1.0
C      1  0.4639740000000  0.4841270000000  0.4755830000000 1.0
C      1  0.4760770000000  0.5534120000000  0.4956200000000 1.0
C      1  0.5494060000000  0.5520990000000  0.5200510000000 1.0
C      1  0.5359450000000  0.5418960000000  0.4442890000000 1.0
C      1  0.5394080000000  0.4834680000000  0.4457220000000 1.0
C      1  0.4898620000000  0.5347200000000  0.5607850000000 1.0
C      1  0.4585590000000  0.4752630000000  0.4431900000000 1.0
C      1  0.5603110000000  0.5285180000000  0.5290810000000 1.0
C      1  0.4677400000000  0.5222340000000  0.5191630000000 1.0
C      1  0.4740840000000  0.5416220000000  0.4472870000000 1.0
C      1  0.4803600000000  0.5071540000000  0.5602060000000 1.0
C      1  0.4638880000000  0.4650910000000  0.5006270000000 1.0
C      1  0.4536860000000  0.5533480000000  0.5182640000000 1.0
C      1  0.5452460000000  0.5192990000000  0.4291770000000 1.0
C      1  0.5103720000000  0.5372750000000  0.4633250000000 1.0
C      1  0.5178600000000  0.4267160000000  0.5359540000000 1.0
C      1  0.5490200000000  0.4781610000000  0.5235440000000 1.0
C      1  0.4692830000000  0.5356970000000  0.4734490000000 1.0
C      1  0.4346790000000  0.4772590000000  0.5241570000000 1.0
C      1  0.5100400000000  0.4449690000000  0.5159680000000 1.0
C      1  0.4537610000000  0.5121360000000  0.4802960000000 1.0
C      1  0.4865080000000  0.4639110000000  0.5248130000000 1.0
C      1  0.4581230000000  0.4832650000000  0.5639480000000 1.0
C      1  0.4955830000000  0.4814200000000  0.5502500000000 1.0
C      1  0.5341470000000  0.4626200000000  0.5047720000000 1.0
C      1  0.4891820000000  0.5118170000000  0.4986170000000 1.0
C      1  0.5675310000000  0.5025560000000  0.4419520000000 1.0
C      1  0.4523080000000  0.5030800000000  0.5366340000000 1.0
C      1  0.4572230000000  0.4637260000000  0.5399650000000 1.0
C      1  0.5298370000000  0.4648830000000  0.4726030000000 1.0
C      1  0.5322710000000  0.4971140000000  0.4757490000000 1.0
C      1  0.5242580000000  0.4985980000000  0.4192670000000 1.0
C      1  0.4831710000000  0.4619180000000  0.4565400000000 1.0
C      1  0.4993980000000  0.4315720000000  0.4896680000000 1.0
C      1  0.5046730000000  0.4490780000000  0.4679480000000 1.0
C      1  0.5028920000000  0.5596760000000  0.5102440000000 1.0
C      1  0.4833910000000  0.5479480000000  0.5344290000000 1.0
C      1  0.5194590000000  0.4752360000000  0.5617510000000 1.0
C      1  0.4072930000000  0.5180400000000  0.5072320000000 1.0
C      1  0.5324080000000  0.5582750000000  0.4734150000000 1.0
C      1  0.5584330000000  0.5066500000000  0.4875660000000 1.0
C      1  0.5595560000000  0.5035910000000  0.5154650000000 1.0
END
