TITL C-2778437-8639-128 0.000347178455803603 125000 -231.731788247992 0 0 42 (C1) n - 1
REM
REM in /home/nfs/bkarasulu/CARBON/AIRSS/Generating-Clusters/REBO/Only-C1/SD-CG/HFTN-CG
REM
REM
REM
REM
REM
REM ./C.cell (11c1c37f851c82e70ff6c80c92926a4b)
REM
REM compiler GCC version 9.2.1 20190827 (Red Hat 9.2.1-1)
REM options -cpp -mtune=generic -march=x86-64 -g -O0 -fpre-include=/usr/include/finclude/math-vector-fortran.h
REM seed 1983722872 585838281 229576900 -263323044 2073951341 1284465712 -1613320437 1064132004 -1823138868 -943625009 1903454106 -514487207 -1165580117 -1500490246 -1698504588 1793429489 1766659521 1018409435 -282749878 -1050491773 -356653237 1218075286 1008443396 -785560302 -549266259 696903506 -1193580713 946117313 1121636134 1776488030 1896187826 939990299 1603910545
REM
CELL 1.54180   50.00000   50.00000   50.00000   90.00000   90.00000   90.00000
LATT -1
SFAC C  
C      1  0.5273210000000  0.4379750000000  0.4731820000000 1.0
C      1  0.5610650000000  0.4862820000000  0.4899060000000 1.0
C      1  0.5481080000000  0.5301940000000  0.4616880000000 1.0
C      1  0.5325660000000  0.4931460000000  0.5399970000000 1.0
C      1  0.4634370000000  0.5294860000000  0.5493920000000 1.0
C      1  0.5648270000000  0.5147840000000  0.4724340000000 1.0
C      1  0.5168200000000  0.5292750000000  0.4590730000000 1.0
C      1  0.5117070000000  0.5492630000000  0.5247680000000 1.0
C      1  0.5531130000000  0.4904890000000  0.5194920000000 1.0
C      1  0.4955470000000  0.4561110000000  0.4363310000000 1.0
C      1  0.5231050000000  0.5695110000000  0.5368890000000 1.0
C      1  0.4620840000000  0.4923100000000  0.5628680000000 1.0
C      1  0.5134280000000  0.4956180000000  0.5614200000000 1.0
C      1  0.5370440000000  0.3849970000000  0.4777050000000 1.0
C      1  0.5468760000000  0.4577870000000  0.4774630000000 1.0
C      1  0.4760470000000  0.5581630000000  0.5416500000000 1.0
C      1  0.4796590000000  0.5721940000000  0.5180810000000 1.0
C      1  0.4996770000000  0.5278830000000  0.5119720000000 1.0
C      1  0.5098510000000  0.5216350000000  0.5727570000000 1.0
C      1  0.4769270000000  0.5264180000000  0.4943770000000 1.0
C      1  0.4833310000000  0.5247690000000  0.4631830000000 1.0
C      1  0.4940940000000  0.4847990000000  0.4343500000000 1.0
C      1  0.4732890000000  0.5000410000000  0.4500230000000 1.0
C      1  0.5323300000000  0.4106830000000  0.4755120000000 1.0
C      1  0.4899070000000  0.5692260000000  0.4931500000000 1.0
C      1  0.4559270000000  0.5043720000000  0.5316670000000 1.0
C      1  0.4530730000000  0.5154390000000  0.5038610000000 1.0
C      1  0.4948430000000  0.4794390000000  0.5067780000000 1.0
C      1  0.5302380000000  0.5114540000000  0.4920730000000 1.0
C      1  0.4978950000000  0.5533960000000  0.4736130000000 1.0
C      1  0.4910590000000  0.4762920000000  0.4767950000000 1.0
C      1  0.4897430000000  0.5393800000000  0.5647790000000 1.0
C      1  0.4893380000000  0.4805440000000  0.5589700000000 1.0
C      1  0.4596820000000  0.4813580000000  0.4689790000000 1.0
C      1  0.4352150000000  0.4733940000000  0.4773160000000 1.0
C      1  0.4742500000000  0.4756420000000  0.5288740000000 1.0
C      1  0.4590370000000  0.4521190000000  0.5270290000000 1.0
C      1  0.5148570000000  0.5005380000000  0.5139860000000 1.0
C      1  0.5391130000000  0.4854490000000  0.4642390000000 1.0
C      1  0.5020390000000  0.4481820000000  0.4641490000000 1.0
C      1  0.4295880000000  0.5128060000000  0.4896830000000 1.0
C      1  0.5119400000000  0.4971560000000  0.4595440000000 1.0
END
