TITL C-2778426-5645-823 0.0020461096411711 125000 -807.356941910038 0 0 138 (C1) n - 1
REM
REM in /home/nfs/bkarasulu/CARBON/AIRSS/Generating-Clusters/REBO/Only-C1/SD-CG/HFTN-CG
REM
REM
REM
REM
REM
REM ./C.cell (11c1c37f851c82e70ff6c80c92926a4b)
REM
REM compiler GCC version 9.2.1 20190827 (Red Hat 9.2.1-1)
REM options -cpp -mtune=generic -march=x86-64 -g -O0 -fpre-include=/usr/include/finclude/math-vector-fortran.h
REM seed -1946008898 -1743481021 -1184629701 314285748 310900172 -369576289 -2130908426 471396560 -1880457039 -182442008 -324704681 1361646361 -947047351 703845814 495221899 -893015638 -1851904276 -1773522141 -1352564598 -923608243 689489649 -2025813245 1040783430 -186973693 -2046233767 -210560277 -12875148 1977229052 1082668290 1880552895 -1000472741 -1468008849 448942176
REM
CELL 1.54180   50.00000   50.00000   50.00000   90.00000   90.00000   90.00000
LATT -1
SFAC C  
C      1  0.5735970000000  0.4776640000000  0.4443860000000 1.0
C      1  0.5206710000000  0.5510280000000  0.4255120000000 1.0
C      1  0.4321230000000  0.5363810000000  0.4469770000000 1.0
C      1  0.5343870000000  0.5055350000000  0.4495370000000 1.0
C      1  0.5697140000000  0.5548830000000  0.4998840000000 1.0
C      1  0.5894160000000  0.4683570000000  0.5075400000000 1.0
C      1  0.4487560000000  0.5158190000000  0.4171650000000 1.0
C      1  0.5391320000000  0.5679960000000  0.4924630000000 1.0
C      1  0.4504630000000  0.4489270000000  0.5915130000000 1.0
C      1  0.4563950000000  0.4475580000000  0.5450430000000 1.0
C      1  0.5002970000000  0.5697770000000  0.4335750000000 1.0
C      1  0.4917380000000  0.5562570000000  0.5030120000000 1.0
C      1  0.4865600000000  0.4249650000000  0.4369320000000 1.0
C      1  0.5356580000000  0.4222400000000  0.5435400000000 1.0
C      1  0.4806330000000  0.5010300000000  0.6051010000000 1.0
C      1  0.5752010000000  0.5122500000000  0.4862020000000 1.0
C      1  0.4898710000000  0.4813310000000  0.5666250000000 1.0
C      1  0.5111100000000  0.5216950000000  0.4339440000000 1.0
C      1  0.5448490000000  0.5528160000000  0.5288590000000 1.0
C      1  0.5095100000000  0.4094320000000  0.5466840000000 1.0
C      1  0.5494230000000  0.4307250000000  0.4727690000000 1.0
C      1  0.5760280000000  0.5407550000000  0.5303670000000 1.0
C      1  0.4900180000000  0.5237990000000  0.5081430000000 1.0
C      1  0.4437290000000  0.5035880000000  0.4666240000000 1.0
C      1  0.5460960000000  0.4806290000000  0.5480170000000 1.0
C      1  0.5427300000000  0.4635600000000  0.4961470000000 1.0
C      1  0.5687790000000  0.5620830000000  0.4665450000000 1.0
C      1  0.5122670000000  0.5535540000000  0.5747450000000 1.0
C      1  0.5431880000000  0.5344490000000  0.4539280000000 1.0
C      1  0.4493620000000  0.4725380000000  0.4630530000000 1.0
C      1  0.4208460000000  0.5684200000000  0.4493140000000 1.0
C      1  0.5227360000000  0.5426270000000  0.4764630000000 1.0
C      1  0.4723150000000  0.4816550000000  0.5054690000000 1.0
C      1  0.4109310000000  0.4795010000000  0.4558040000000 1.0
C      1  0.5884020000000  0.5007420000000  0.4503410000000 1.0
C      1  0.5564560000000  0.4879470000000  0.5839660000000 1.0
C      1  0.5479360000000  0.4931610000000  0.4787660000000 1.0
C      1  0.5507090000000  0.5609360000000  0.4367410000000 1.0
C      1  0.4378340000000  0.4228180000000  0.4637940000000 1.0
C      1  0.4736770000000  0.5644820000000  0.4238590000000 1.0
C      1  0.5276670000000  0.4718410000000  0.5749770000000 1.0
C      1  0.5803840000000  0.5091770000000  0.5398710000000 1.0
C      1  0.5393520000000  0.5386170000000  0.5765820000000 1.0
C      1  0.4298020000000  0.5042360000000  0.5217160000000 1.0
C      1  0.4882140000000  0.5016490000000  0.4845070000000 1.0
C      1  0.4996700000000  0.3986920000000  0.5208900000000 1.0
C      1  0.4230720000000  0.4615300000000  0.4988070000000 1.0
C      1  0.4432720000000  0.4735310000000  0.5790980000000 1.0
C      1  0.4682710000000  0.4076450000000  0.5112740000000 1.0
C      1  0.4680820000000  0.5569690000000  0.4711120000000 1.0
C      1  0.4073140000000  0.5441730000000  0.4682470000000 1.0
C      1  0.5753510000000  0.4298910000000  0.5155270000000 1.0
C      1  0.4954970000000  0.4136810000000  0.4826560000000 1.0
C      1  0.5249200000000  0.5326590000000  0.5268310000000 1.0
C      1  0.4626950000000  0.5628000000000  0.5681230000000 1.0
C      1  0.6115940000000  0.4967250000000  0.4666330000000 1.0
C      1  0.5125310000000  0.4768070000000  0.5442330000000 1.0
C      1  0.4598790000000  0.4939610000000  0.5295440000000 1.0
C      1  0.5273920000000  0.5190160000000  0.4976430000000 1.0
C      1  0.4059590000000  0.5354850000000  0.4947390000000 1.0
C      1  0.5236890000000  0.4100500000000  0.4650550000000 1.0
C      1  0.5630400000000  0.4345820000000  0.5407280000000 1.0
C      1  0.5762520000000  0.4554730000000  0.5552490000000 1.0
C      1  0.4518210000000  0.4640920000000  0.4306750000000 1.0
C      1  0.4075790000000  0.4822070000000  0.4847240000000 1.0
C      1  0.5766640000000  0.4450190000000  0.4873010000000 1.0
C      1  0.5470500000000  0.5833920000000  0.5417460000000 1.0
C      1  0.4789750000000  0.4486060000000  0.4251180000000 1.0
C      1  0.6146110000000  0.4810170000000  0.4950000000000 1.0
C      1  0.5600860000000  0.5143900000000  0.5639560000000 1.0
C      1  0.5581050000000  0.4325480000000  0.4404490000000 1.0
C      1  0.5305230000000  0.5874870000000  0.5154830000000 1.0
C      1  0.4976290000000  0.5793000000000  0.4858200000000 1.0
C      1  0.4621000000000  0.5259620000000  0.5344760000000 1.0
C      1  0.5777160000000  0.4514910000000  0.4542330000000 1.0
C      1  0.4200870000000  0.5531710000000  0.5137710000000 1.0
C      1  0.4277940000000  0.4505230000000  0.4495050000000 1.0
C      1  0.5450420000000  0.4804350000000  0.4362990000000 1.0
C      1  0.4378080000000  0.4140870000000  0.4968370000000 1.0
C      1  0.4349650000000  0.5412210000000  0.5355930000000 1.0
C      1  0.4438850000000  0.5184600000000  0.4941240000000 1.0
C      1  0.4243670000000  0.5055600000000  0.4389340000000 1.0
C      1  0.5742320000000  0.5293090000000  0.4594130000000 1.0
C      1  0.4644040000000  0.5443050000000  0.4071290000000 1.0
C      1  0.4936880000000  0.5347210000000  0.5404900000000 1.0
C      1  0.4940940000000  0.5907150000000  0.5463600000000 1.0
C      1  0.4940310000000  0.5389960000000  0.4583230000000 1.0
C      1  0.5064380000000  0.4848410000000  0.5969000000000 1.0
C      1  0.5045960000000  0.5981760000000  0.5203850000000 1.0
C      1  0.4646400000000  0.5288220000000  0.4438300000000 1.0
C      1  0.5696070000000  0.4954610000000  0.5121520000000 1.0
C      1  0.5118090000000  0.5797230000000  0.5659780000000 1.0
C      1  0.5158070000000  0.4703390000000  0.4513850000000 1.0
C      1  0.4869350000000  0.4217050000000  0.5632490000000 1.0
C      1  0.4541980000000  0.5715320000000  0.4446990000000 1.0
C      1  0.6081050000000  0.5127370000000  0.4948500000000 1.0
C      1  0.4716830000000  0.4190420000000  0.4625910000000 1.0
C      1  0.4686290000000  0.5776800000000  0.5460510000000 1.0
C      1  0.4631310000000  0.4766780000000  0.5538920000000 1.0
C      1  0.4063560000000  0.5067070000000  0.5002380000000 1.0
C      1  0.4625740000000  0.4890740000000  0.4126400000000 1.0
C      1  0.5134580000000  0.4930910000000  0.4154870000000 1.0
C      1  0.5880300000000  0.4758390000000  0.5407560000000 1.0
C      1  0.5138690000000  0.4189790000000  0.4370210000000 1.0
C      1  0.4290160000000  0.5148210000000  0.5535050000000 1.0
C      1  0.5401810000000  0.5803300000000  0.4616250000000 1.0
C      1  0.4881710000000  0.4803150000000  0.4338900000000 1.0
C      1  0.4559600000000  0.5948280000000  0.5078680000000 1.0
C      1  0.4410370000000  0.5777130000000  0.4749590000000 1.0
C      1  0.4704100000000  0.4315200000000  0.5835300000000 1.0
C      1  0.5207490000000  0.4483200000000  0.4760400000000 1.0
C      1  0.5402030000000  0.4866880000000  0.5172550000000 1.0
C      1  0.5236400000000  0.4057140000000  0.4988110000000 1.0
C      1  0.4824930000000  0.5388800000000  0.5726630000000 1.0
C      1  0.4632740000000  0.4349570000000  0.4914830000000 1.0
C      1  0.5611300000000  0.5562590000000  0.5573020000000 1.0
C      1  0.5341210000000  0.4350520000000  0.4238100000000 1.0
C      1  0.5305260000000  0.5085770000000  0.5901240000000 1.0
C      1  0.4670290000000  0.5159030000000  0.5865320000000 1.0
C      1  0.4793900000000  0.4311950000000  0.5322760000000 1.0
C      1  0.4214770000000  0.4363030000000  0.5132630000000 1.0
C      1  0.4291530000000  0.5783120000000  0.5032320000000 1.0
C      1  0.4997100000000  0.4362380000000  0.5077670000000 1.0
C      1  0.4551310000000  0.5421340000000  0.4964480000000 1.0
C      1  0.4309220000000  0.4388160000000  0.5400570000000 1.0
C      1  0.4988030000000  0.4652290000000  0.4968430000000 1.0
C      1  0.4537570000000  0.4625850000000  0.4909530000000 1.0
C      1  0.4758270000000  0.5017300000000  0.4571460000000 1.0
C      1  0.5290910000000  0.4628550000000  0.4145590000000 1.0
C      1  0.4434560000000  0.5039820000000  0.5754170000000 1.0
C      1  0.4630160000000  0.5642980000000  0.5188580000000 1.0
C      1  0.5334560000000  0.4350710000000  0.5122770000000 1.0
C      1  0.5155310000000  0.4875120000000  0.4795080000000 1.0
C      1  0.5090820000000  0.5815250000000  0.4592530000000 1.0
C      1  0.5095670000000  0.4972830000000  0.5177610000000 1.0
C      1  0.5061650000000  0.5096820000000  0.5663910000000 1.0
C      1  0.5310870000000  0.5118020000000  0.5481860000000 1.0
C      1  0.4828790000000  0.6030300000000  0.4991530000000 1.0
END
