TITL C-2778432-5617-227 0.00364511508525176 125000 -298.149017562236 0 0 52 (C1) n - 1
REM
REM in /home/nfs/bkarasulu/CARBON/AIRSS/Generating-Clusters/REBO/Only-C1/SD-CG/HFTN-CG
REM
REM
REM
REM
REM
REM ./C.cell (11c1c37f851c82e70ff6c80c92926a4b)
REM
REM compiler GCC version 9.2.1 20190827 (Red Hat 9.2.1-1)
REM options -cpp -mtune=generic -march=x86-64 -g -O0 -fpre-include=/usr/include/finclude/math-vector-fortran.h
REM seed 1526357328 1771175979 252845644 479425802 -1308000691 -1332115750 -1090284483 -530715552 1013745428 1843452529 -1813636505 1572594095 1322915668 287591008 -319378799 -271365731 -373747575 -659178700 2091186133 2031268221 173392627 1721244 -688247063 67061275 611425378 527484365 62274958 2124351347 1029905245 -1373264188 -1307028161 -485392081 -2085009447
REM
CELL 1.54180   50.00000   50.00000   50.00000   90.00000   90.00000   90.00000
LATT -1
SFAC C  
C      1  0.4724310000000  0.5548230000000  0.5060380000000 1.0
C      1  0.5081030000000  0.4346500000000  0.4741640000000 1.0
C      1  0.4594890000000  0.4704620000000  0.4581370000000 1.0
C      1  0.5470900000000  0.4771080000000  0.5304510000000 1.0
C      1  0.4942110000000  0.4302940000000  0.5039420000000 1.0
C      1  0.5190450000000  0.5584750000000  0.4826540000000 1.0
C      1  0.4591780000000  0.5074580000000  0.4900050000000 1.0
C      1  0.5336700000000  0.5566480000000  0.5400360000000 1.0
C      1  0.5507800000000  0.5415400000000  0.4652800000000 1.0
C      1  0.5044790000000  0.5063730000000  0.5629990000000 1.0
C      1  0.5034580000000  0.5659730000000  0.5463390000000 1.0
C      1  0.5441900000000  0.4510810000000  0.5169190000000 1.0
C      1  0.4331910000000  0.4780650000000  0.4975490000000 1.0
C      1  0.4632350000000  0.4352740000000  0.4976670000000 1.0
C      1  0.4762780000000  0.4437090000000  0.4708270000000 1.0
C      1  0.4309640000000  0.4415940000000  0.5343650000000 1.0
C      1  0.5482500000000  0.5034150000000  0.5095280000000 1.0
C      1  0.4637340000000  0.5171250000000  0.4441070000000 1.0
C      1  0.5463220000000  0.5346120000000  0.5240800000000 1.0
C      1  0.4860830000000  0.4606270000000  0.5477750000000 1.0
C      1  0.4832570000000  0.5009080000000  0.5211890000000 1.0
C      1  0.4949830000000  0.4357530000000  0.5375770000000 1.0
C      1  0.5126260000000  0.4961420000000  0.4755480000000 1.0
C      1  0.5046360000000  0.4889250000000  0.4486940000000 1.0
C      1  0.5342640000000  0.4395770000000  0.4712750000000 1.0
C      1  0.4418030000000  0.4227200000000  0.5175430000000 1.0
C      1  0.5328070000000  0.4887250000000  0.5590520000000 1.0
C      1  0.5527640000000  0.4480880000000  0.4899650000000 1.0
C      1  0.4717450000000  0.4762570000000  0.5284320000000 1.0
C      1  0.5576260000000  0.5149250000000  0.4593950000000 1.0
C      1  0.5655560000000  0.4845460000000  0.4604950000000 1.0
C      1  0.4801790000000  0.5415920000000  0.4552490000000 1.0
C      1  0.4442220000000  0.5550170000000  0.4966630000000 1.0
C      1  0.4905310000000  0.5181590000000  0.5422460000000 1.0
C      1  0.4446500000000  0.5260710000000  0.5066360000000 1.0
C      1  0.5463290000000  0.5445580000000  0.4948100000000 1.0
C      1  0.4918630000000  0.5111530000000  0.4922120000000 1.0
C      1  0.5273960000000  0.5540110000000  0.4505140000000 1.0
C      1  0.5057610000000  0.5417690000000  0.4367980000000 1.0
C      1  0.5419110000000  0.4967120000000  0.4819490000000 1.0
C      1  0.4887360000000  0.4654630000000  0.4478200000000 1.0
C      1  0.4531130000000  0.4978390000000  0.4633600000000 1.0
C      1  0.5540100000000  0.5081900000000  0.5427260000000 1.0
C      1  0.5221810000000  0.4356250000000  0.5228290000000 1.0
C      1  0.4533130000000  0.5297200000000  0.5341490000000 1.0
C      1  0.4938550000000  0.5116250000000  0.4333490000000 1.0
C      1  0.5214140000000  0.5837280000000  0.5265620000000 1.0
C      1  0.4914980000000  0.5428010000000  0.4852450000000 1.0
C      1  0.5185020000000  0.5854140000000  0.4984550000000 1.0
C      1  0.5031810000000  0.4747770000000  0.5653370000000 1.0
C      1  0.4817340000000  0.5481570000000  0.5372590000000 1.0
C      1  0.4493700000000  0.4617470000000  0.5138050000000 1.0
END
