TITL C-2778433-5640-859 -0.00250212153371687 125000 -792.093083179985 0 0 134 (C1) n - 1
REM
REM in /home/nfs/bkarasulu/CARBON/AIRSS/Generating-Clusters/REBO/Only-C1/SD-CG/HFTN-CG
REM
REM
REM
REM
REM
REM ./C.cell (11c1c37f851c82e70ff6c80c92926a4b)
REM
REM compiler GCC version 9.2.1 20190827 (Red Hat 9.2.1-1)
REM options -cpp -mtune=generic -march=x86-64 -g -O0 -fpre-include=/usr/include/finclude/math-vector-fortran.h
REM seed -428882422 870555257 -1167875037 51328084 -1162630179 1794684037 -671258868 -1086441623 166612622 -1117033167 1348145760 -274562747 -361576910 965288490 1194004731 -377899473 -1067129143 1386526105 -1778592951 1170941026 -648820141 -1986426317 -345226355 -1365261151 -466099782 -442194077 15077904 822238862 664420767 1348960647 -2000714312 -87377175 421140601
REM
CELL 1.54180   50.00000   50.00000   50.00000   90.00000   90.00000   90.00000
LATT -1
SFAC C  
C      1  0.4284950000000  0.5021790000000  0.5642650000000 1.0
C      1  0.5836970000000  0.5161060000000  0.5381430000000 1.0
C      1  0.4352250000000  0.4371830000000  0.4677640000000 1.0
C      1  0.4800110000000  0.5749790000000  0.4623720000000 1.0
C      1  0.4116330000000  0.5425370000000  0.4772950000000 1.0
C      1  0.4815840000000  0.4894450000000  0.5132600000000 1.0
C      1  0.5149110000000  0.5305620000000  0.3968680000000 1.0
C      1  0.4622090000000  0.4954200000000  0.5624620000000 1.0
C      1  0.5520420000000  0.5577080000000  0.5489300000000 1.0
C      1  0.4915960000000  0.5204590000000  0.4113700000000 1.0
C      1  0.5883060000000  0.5091290000000  0.4866510000000 1.0
C      1  0.5354880000000  0.5371310000000  0.5288750000000 1.0
C      1  0.4222910000000  0.5227670000000  0.4326010000000 1.0
C      1  0.5248700000000  0.4684870000000  0.5265370000000 1.0
C      1  0.4699970000000  0.5296660000000  0.5436140000000 1.0
C      1  0.4818700000000  0.4149710000000  0.4592630000000 1.0
C      1  0.4832900000000  0.5412310000000  0.4350930000000 1.0
C      1  0.5317660000000  0.5209850000000  0.5738110000000 1.0
C      1  0.5322190000000  0.5740010000000  0.5037790000000 1.0
C      1  0.4566110000000  0.5765870000000  0.5594350000000 1.0
C      1  0.5726810000000  0.5621460000000  0.4617340000000 1.0
C      1  0.5746160000000  0.4579300000000  0.4448970000000 1.0
C      1  0.4120230000000  0.5170500000000  0.4612400000000 1.0
C      1  0.5244590000000  0.4749490000000  0.4979900000000 1.0
C      1  0.4176000000000  0.4975660000000  0.5129700000000 1.0
C      1  0.4456000000000  0.5256990000000  0.5819040000000 1.0
C      1  0.5113450000000  0.3986860000000  0.5181940000000 1.0
C      1  0.5212950000000  0.5651190000000  0.5536640000000 1.0
C      1  0.5942730000000  0.4672270000000  0.5291100000000 1.0
C      1  0.4483550000000  0.5523070000000  0.5761070000000 1.0
C      1  0.5662280000000  0.4550550000000  0.5173690000000 1.0
C      1  0.4190180000000  0.5175550000000  0.5373590000000 1.0
C      1  0.4744790000000  0.4985360000000  0.4114150000000 1.0
C      1  0.5207090000000  0.5573910000000  0.4759410000000 1.0
C      1  0.4815660000000  0.3992050000000  0.5257540000000 1.0
C      1  0.5234280000000  0.4558900000000  0.5874700000000 1.0
C      1  0.4261050000000  0.4938770000000  0.4745090000000 1.0
C      1  0.5293500000000  0.4907860000000  0.5454260000000 1.0
C      1  0.5069360000000  0.4635180000000  0.4642840000000 1.0
C      1  0.4902260000000  0.5131890000000  0.5263130000000 1.0
C      1  0.4618190000000  0.4262670000000  0.5321130000000 1.0
C      1  0.4914620000000  0.5662550000000  0.4161910000000 1.0
C      1  0.5276360000000  0.4187760000000  0.5288950000000 1.0
C      1  0.5509500000000  0.5824420000000  0.4766110000000 1.0
C      1  0.5828120000000  0.5547300000000  0.5078790000000 1.0
C      1  0.5729000000000  0.4847420000000  0.4304420000000 1.0
C      1  0.4314430000000  0.5502100000000  0.4506060000000 1.0
C      1  0.5110050000000  0.5469560000000  0.5764580000000 1.0
C      1  0.5446990000000  0.5428790000000  0.4822500000000 1.0
C      1  0.4210400000000  0.5560280000000  0.5009320000000 1.0
C      1  0.5519610000000  0.4964120000000  0.4118070000000 1.0
C      1  0.4408130000000  0.4780320000000  0.4410220000000 1.0
C      1  0.5720800000000  0.4932340000000  0.4634360000000 1.0
C      1  0.4694050000000  0.5992060000000  0.5497280000000 1.0
C      1  0.5508190000000  0.4391940000000  0.5432980000000 1.0
C      1  0.5534990000000  0.5011520000000  0.5045640000000 1.0
C      1  0.5281290000000  0.5017240000000  0.6009610000000 1.0
C      1  0.5059720000000  0.4203440000000  0.5638420000000 1.0
C      1  0.4973110000000  0.5143300000000  0.4764390000000 1.0
C      1  0.4153060000000  0.4482890000000  0.5232170000000 1.0
C      1  0.4796500000000  0.4708800000000  0.4095940000000 1.0
C      1  0.5657100000000  0.4750920000000  0.5799460000000 1.0
C      1  0.4489070000000  0.5744830000000  0.4611880000000 1.0
C      1  0.5430330000000  0.5050170000000  0.4525960000000 1.0
C      1  0.4953070000000  0.4047760000000  0.4889530000000 1.0
C      1  0.4398120000000  0.4509730000000  0.5406330000000 1.0
C      1  0.5460310000000  0.5599770000000  0.4450980000000 1.0
C      1  0.4419150000000  0.5734290000000  0.4913160000000 1.0
C      1  0.4979090000000  0.4706170000000  0.5812570000000 1.0
C      1  0.4870900000000  0.5967340000000  0.5220060000000 1.0
C      1  0.4752780000000  0.4674360000000  0.5575490000000 1.0
C      1  0.5172350000000  0.4262640000000  0.4734780000000 1.0
C      1  0.5845160000000  0.4768910000000  0.4976350000000 1.0
C      1  0.5765980000000  0.4086630000000  0.4359800000000 1.0
C      1  0.5110850000000  0.5592970000000  0.3974610000000 1.0
C      1  0.4702700000000  0.4757320000000  0.5963130000000 1.0
C      1  0.5292270000000  0.4346820000000  0.5692570000000 1.0
C      1  0.4511590000000  0.5068190000000  0.5320070000000 1.0
C      1  0.4061970000000  0.4731800000000  0.5138330000000 1.0
C      1  0.5652770000000  0.4934880000000  0.5281280000000 1.0
C      1  0.4908410000000  0.5245590000000  0.5645750000000 1.0
C      1  0.4206680000000  0.4622050000000  0.4631330000000 1.0
C      1  0.5037080000000  0.5383640000000  0.4570690000000 1.0
C      1  0.4951830000000  0.4849110000000  0.4871750000000 1.0
C      1  0.4650860000000  0.4654400000000  0.5249540000000 1.0
C      1  0.4661780000000  0.4582010000000  0.4938250000000 1.0
C      1  0.5329090000000  0.5345270000000  0.4451210000000 1.0
C      1  0.5653060000000  0.4619770000000  0.4749850000000 1.0
C      1  0.5017210000000  0.5917110000000  0.4682930000000 1.0
C      1  0.4563420000000  0.4548700000000  0.4240040000000 1.0
C      1  0.4597390000000  0.4367150000000  0.4511700000000 1.0
C      1  0.4700570000000  0.5076740000000  0.5937810000000 1.0
C      1  0.4777460000000  0.4656530000000  0.4491820000000 1.0
C      1  0.5625670000000  0.4313620000000  0.4405360000000 1.0
C      1  0.5074870000000  0.4965230000000  0.5673800000000 1.0
C      1  0.5289040000000  0.5886630000000  0.4525650000000 1.0
C      1  0.4476760000000  0.4623100000000  0.5889980000000 1.0
C      1  0.4672390000000  0.5255040000000  0.4802730000000 1.0
C      1  0.4637760000000  0.4128250000000  0.5006750000000 1.0
C      1  0.5753010000000  0.4592180000000  0.5551340000000 1.0
C      1  0.4360330000000  0.4203090000000  0.4896180000000 1.0
C      1  0.4485250000000  0.5045040000000  0.4282710000000 1.0
C      1  0.4332020000000  0.4684710000000  0.5662630000000 1.0
C      1  0.4989160000000  0.6053110000000  0.4924010000000 1.0
C      1  0.5294720000000  0.5038430000000  0.4811610000000 1.0
C      1  0.4849730000000  0.4392120000000  0.5474620000000 1.0
C      1  0.4151820000000  0.4243060000000  0.5083410000000 1.0
C      1  0.5100190000000  0.5731380000000  0.5257780000000 1.0
C      1  0.5499180000000  0.5300810000000  0.5055700000000 1.0
C      1  0.4781290000000  0.5646220000000  0.5169150000000 1.0
C      1  0.4978980000000  0.4486070000000  0.4175770000000 1.0
C      1  0.4707730000000  0.5557620000000  0.4886030000000 1.0
C      1  0.5167970000000  0.5171570000000  0.5345530000000 1.0
C      1  0.5230420000000  0.4550370000000  0.4288230000000 1.0
C      1  0.4560290000000  0.5550420000000  0.5369600000000 1.0
C      1  0.5845680000000  0.5424670000000  0.4793030000000 1.0
C      1  0.5611100000000  0.5285380000000  0.5603660000000 1.0
C      1  0.5939550000000  0.5275250000000  0.5147140000000 1.0
C      1  0.5003060000000  0.5214740000000  0.5976580000000 1.0
C      1  0.4470430000000  0.5067510000000  0.4981220000000 1.0
C      1  0.5331020000000  0.4813440000000  0.4320370000000 1.0
C      1  0.4883570000000  0.4229700000000  0.4271360000000 1.0
C      1  0.4871170000000  0.4420250000000  0.4798160000000 1.0
C      1  0.5572960000000  0.4947740000000  0.5584300000000 1.0
C      1  0.5602120000000  0.5669490000000  0.5192420000000 1.0
C      1  0.4559610000000  0.4779270000000  0.4720250000000 1.0
C      1  0.5419020000000  0.4754420000000  0.5972370000000 1.0
C      1  0.5366640000000  0.4538990000000  0.4786460000000 1.0
C      1  0.4576080000000  0.5298960000000  0.4490040000000 1.0
C      1  0.5126450000000  0.4441660000000  0.5326840000000 1.0
C      1  0.5329690000000  0.6090010000000  0.4336870000000 1.0
C      1  0.4272640000000  0.5466460000000  0.5271200000000 1.0
C      1  0.5388410000000  0.5155210000000  0.3960040000000 1.0
C      1  0.5340700000000  0.4332250000000  0.4446960000000 1.0
END
