TITL C-2778432-5617-1499 -0.287485583606114 125000 -498.5134409366 0 0 88 (C1) n - 1
REM
REM in /home/nfs/bkarasulu/CARBON/AIRSS/Generating-Clusters/REBO/Only-C1/SD-CG/HFTN-CG
REM
REM
REM
REM
REM
REM ./C.cell (11c1c37f851c82e70ff6c80c92926a4b)
REM
REM compiler GCC version 9.2.1 20190827 (Red Hat 9.2.1-1)
REM options -cpp -mtune=generic -march=x86-64 -g -O0 -fpre-include=/usr/include/finclude/math-vector-fortran.h
REM seed 1018685032 -517169097 -1863970024 -837923167 1502386830 976135787 479168179 1051102372 -1664662284 474726837 -671004826 2056996939 -2121751967 -1462322630 801064837 1911060276 1949205880 -1671153181 948435137 -613799833 -135000054 -2056335402 -1105946291 1833251490 297636606 -1887644533 -691028500 1884408877 1737199410 2084556784 625559224 -344892738 -854309824
REM
CELL 1.54180   50.00000   50.00000   50.00000   90.00000   90.00000   90.00000
LATT -1
SFAC C  
C      1  0.5626670000000  0.4607510000000  0.5129520000000 1.0
C      1  0.5260340000000  0.4719200000000  0.5242080000000 1.0
C      1  0.4936940000000  0.5232670000000  0.4198240000000 1.0
C      1  0.5642030000000  0.4564050000000  0.4565820000000 1.0
C      1  0.4409690000000  0.5214330000000  0.5411170000000 1.0
C      1  0.5660860000000  0.4919010000000  0.4881910000000 1.0
C      1  0.4674460000000  0.4148300000000  0.4848100000000 1.0
C      1  0.4832970000000  0.4800770000000  0.5858640000000 1.0
C      1  0.4966280000000  0.5221010000000  0.5388960000000 1.0
C      1  0.5662140000000  0.5227030000000  0.4393360000000 1.0
C      1  0.5179640000000  0.5242970000000  0.5153150000000 1.0
C      1  0.5379250000000  0.5353190000000  0.5590780000000 1.0
C      1  0.4654780000000  0.5724800000000  0.5147550000000 1.0
C      1  0.4927770000000  0.5759040000000  0.4536330000000 1.0
C      1  0.5180150000000  0.4870630000000  0.4723670000000 1.0
C      1  0.4902570000000  0.5190900000000  0.4993400000000 1.0
C      1  0.5653300000000  0.4790010000000  0.5380210000000 1.0
C      1  0.4889080000000  0.5475030000000  0.4814930000000 1.0
C      1  0.5144180000000  0.5764270000000  0.5035970000000 1.0
C      1  0.4873970000000  0.4507410000000  0.4535820000000 1.0
C      1  0.5253330000000  0.4464010000000  0.5697930000000 1.0
C      1  0.4575350000000  0.5846270000000  0.4702390000000 1.0
C      1  0.5062750000000  0.5831630000000  0.4770210000000 1.0
C      1  0.4872690000000  0.5521230000000  0.5636050000000 1.0
C      1  0.5089600000000  0.5300980000000  0.5671180000000 1.0
C      1  0.4558460000000  0.4632480000000  0.5794500000000 1.0
C      1  0.4569500000000  0.5390510000000  0.5551790000000 1.0
C      1  0.4980920000000  0.4619980000000  0.4268580000000 1.0
C      1  0.4836990000000  0.4041170000000  0.5193640000000 1.0
C      1  0.4655480000000  0.5651550000000  0.5407660000000 1.0
C      1  0.4293520000000  0.4644700000000  0.5322040000000 1.0
C      1  0.5540400000000  0.5084870000000  0.5517730000000 1.0
C      1  0.5538390000000  0.4978890000000  0.4246680000000 1.0
C      1  0.5537850000000  0.5528060000000  0.4841950000000 1.0
C      1  0.4663920000000  0.5592760000000  0.4409510000000 1.0
C      1  0.5001170000000  0.5803790000000  0.5534400000000 1.0
C      1  0.4669990000000  0.5057730000000  0.4323330000000 1.0
C      1  0.5043400000000  0.5069050000000  0.5863050000000 1.0
C      1  0.5723490000000  0.5096470000000  0.5163720000000 1.0
C      1  0.5060100000000  0.5875800000000  0.5279510000000 1.0
C      1  0.4583650000000  0.4574640000000  0.5290780000000 1.0
C      1  0.4766770000000  0.5026130000000  0.5416050000000 1.0
C      1  0.4741640000000  0.4894080000000  0.4941630000000 1.0
C      1  0.5231990000000  0.5064440000000  0.4181310000000 1.0
C      1  0.4358150000000  0.5114390000000  0.5155570000000 1.0
C      1  0.4707450000000  0.5682060000000  0.4876210000000 1.0
C      1  0.5160660000000  0.4764750000000  0.5784290000000 1.0
C      1  0.5608170000000  0.5766410000000  0.4746770000000 1.0
C      1  0.4422910000000  0.4534410000000  0.4713620000000 1.0
C      1  0.4229540000000  0.4838190000000  0.5096580000000 1.0
C      1  0.4452430000000  0.4300310000000  0.4873370000000 1.0
C      1  0.4949710000000  0.5110970000000  0.4673040000000 1.0
C      1  0.5076220000000  0.5388420000000  0.4544130000000 1.0
C      1  0.5440480000000  0.5034920000000  0.4662790000000 1.0
C      1  0.4566100000000  0.4510010000000  0.4480550000000 1.0
C      1  0.5215890000000  0.4414840000000  0.5388580000000 1.0
C      1  0.4054170000000  0.4824230000000  0.4822010000000 1.0
C      1  0.4736210000000  0.4811870000000  0.5235470000000 1.0
C      1  0.5803310000000  0.4566510000000  0.4851020000000 1.0
C      1  0.4540220000000  0.5344230000000  0.4457480000000 1.0
C      1  0.5664440000000  0.5283770000000  0.4719370000000 1.0
C      1  0.5235070000000  0.4225710000000  0.4867240000000 1.0
C      1  0.5744030000000  0.5378910000000  0.5299090000000 1.0
C      1  0.5396190000000  0.4361320000000  0.5134960000000 1.0
C      1  0.4159250000000  0.4861510000000  0.4570660000000 1.0
C      1  0.4948290000000  0.4892370000000  0.4215020000000 1.0
C      1  0.4499940000000  0.5212740000000  0.4937530000000 1.0
C      1  0.5328920000000  0.5522170000000  0.5073860000000 1.0
C      1  0.4972100000000  0.4254890000000  0.5373750000000 1.0
C      1  0.4672720000000  0.4309590000000  0.5288900000000 1.0
C      1  0.5389930000000  0.5031770000000  0.5212030000000 1.0
C      1  0.4956210000000  0.5535770000000  0.4279210000000 1.0
C      1  0.5602330000000  0.4726230000000  0.4351230000000 1.0
C      1  0.4979350000000  0.4014090000000  0.4918440000000 1.0
C      1  0.4913840000000  0.4724040000000  0.4750130000000 1.0
C      1  0.4453230000000  0.4827990000000  0.4839050000000 1.0
C      1  0.5325220000000  0.5249270000000  0.4444250000000 1.0
C      1  0.5911580000000  0.5145830000000  0.4884800000000 1.0
C      1  0.4655740000000  0.5001670000000  0.5678610000000 1.0
C      1  0.5380650000000  0.4747250000000  0.4932320000000 1.0
C      1  0.4634640000000  0.5191830000000  0.4697290000000 1.0
C      1  0.5493930000000  0.5488900000000  0.5351590000000 1.0
C      1  0.4428700000000  0.5106730000000  0.5795580000000 1.0
C      1  0.4440930000000  0.4904300000000  0.4504930000000 1.0
C      1  0.5521090000000  0.4378890000000  0.4819180000000 1.0
C      1  0.5356920000000  0.4815950000000  0.5546820000000 1.0
C      1  0.4950920000000  0.4258400000000  0.4682380000000 1.0
C      1  0.4353760000000  0.4618250000000  0.5615030000000 1.0
END
