TITL C-2778432-5617-733 -0.00266662889016407 125000 -1083.82313641513 0 0 187 (C1) n - 1
REM
REM in /home/nfs/bkarasulu/CARBON/AIRSS/Generating-Clusters/REBO/Only-C1/SD-CG/HFTN-CG
REM
REM
REM
REM
REM
REM ./C.cell (11c1c37f851c82e70ff6c80c92926a4b)
REM
REM compiler GCC version 9.2.1 20190827 (Red Hat 9.2.1-1)
REM options -cpp -mtune=generic -march=x86-64 -g -O0 -fpre-include=/usr/include/finclude/math-vector-fortran.h
REM seed -2025256385 -384531960 -859285678 329707782 2138888426 156323710 1937395502 -1171453248 1740596298 -1098751330 1880715710 -2050895478 -1807142819 1820639509 2118387911 1854331837 1469076113 34983898 -1365481837 -476577228 -648932422 -2138414891 -367762507 -1474359956 233352183 1874299608 1165177833 -1296229672 -549553125 -1957200996 -1394244105 606944329 -1671265540
REM
CELL 1.54180   50.00000   50.00000   50.00000   90.00000   90.00000   90.00000
LATT -1
SFAC C  
C      1  0.4144000000000  0.4941490000000  0.5610570000000 1.0
C      1  0.4635990000000  0.5469050000000  0.5347090000000 1.0
C      1  0.4986750000000  0.4487910000000  0.4574430000000 1.0
C      1  0.4865460000000  0.5700370000000  0.5248790000000 1.0
C      1  0.6015620000000  0.4632930000000  0.5022970000000 1.0
C      1  0.5494970000000  0.5709700000000  0.5041250000000 1.0
C      1  0.5310320000000  0.5505310000000  0.4604060000000 1.0
C      1  0.4331960000000  0.5196630000000  0.5376640000000 1.0
C      1  0.5325390000000  0.4527020000000  0.4573460000000 1.0
C      1  0.5900890000000  0.4553330000000  0.4584000000000 1.0
C      1  0.4852240000000  0.4553500000000  0.4869850000000 1.0
C      1  0.5016880000000  0.4905430000000  0.5356910000000 1.0
C      1  0.4871620000000  0.4064150000000  0.5308160000000 1.0
C      1  0.4604340000000  0.5309030000000  0.4111240000000 1.0
C      1  0.4724060000000  0.4642480000000  0.5574030000000 1.0
C      1  0.4962000000000  0.5785850000000  0.4958790000000 1.0
C      1  0.4157720000000  0.4340990000000  0.4686150000000 1.0
C      1  0.5525810000000  0.4817640000000  0.5108150000000 1.0
C      1  0.5347760000000  0.5259890000000  0.5348050000000 1.0
C      1  0.4359150000000  0.4742990000000  0.5429080000000 1.0
C      1  0.6027030000000  0.5282150000000  0.5327870000000 1.0
C      1  0.5186960000000  0.4371440000000  0.5772850000000 1.0
C      1  0.4446570000000  0.4726830000000  0.5758700000000 1.0
C      1  0.4648700000000  0.4936760000000  0.6031800000000 1.0
C      1  0.5469350000000  0.5873580000000  0.5339520000000 1.0
C      1  0.5143140000000  0.5974230000000  0.5337580000000 1.0
C      1  0.5230090000000  0.5961120000000  0.4459390000000 1.0
C      1  0.4434990000000  0.5581790000000  0.4869570000000 1.0
C      1  0.4831700000000  0.4339310000000  0.5130590000000 1.0
C      1  0.5386930000000  0.5191990000000  0.5879580000000 1.0
C      1  0.4027770000000  0.5217420000000  0.4375260000000 1.0
C      1  0.4541200000000  0.4077890000000  0.5208580000000 1.0
C      1  0.4668950000000  0.5234580000000  0.5170070000000 1.0
C      1  0.5076370000000  0.5351570000000  0.5164850000000 1.0
C      1  0.5127820000000  0.5582420000000  0.5414750000000 1.0
C      1  0.5830600000000  0.4801730000000  0.5216700000000 1.0
C      1  0.4702260000000  0.4169380000000  0.5654860000000 1.0
C      1  0.3833630000000  0.5185720000000  0.5188630000000 1.0
C      1  0.4661130000000  0.4344120000000  0.4195180000000 1.0
C      1  0.5405820000000  0.5203190000000  0.4683020000000 1.0
C      1  0.4892780000000  0.5230630000000  0.4385010000000 1.0
C      1  0.5521250000000  0.4956530000000  0.4049930000000 1.0
C      1  0.4746150000000  0.4965290000000  0.5644980000000 1.0
C      1  0.5102210000000  0.5175690000000  0.3892060000000 1.0
C      1  0.4846720000000  0.5019460000000  0.5166310000000 1.0
C      1  0.5188860000000  0.4828540000000  0.4608400000000 1.0
C      1  0.5344130000000  0.5246840000000  0.4057630000000 1.0
C      1  0.5627530000000  0.5612120000000  0.5493980000000 1.0
C      1  0.4917250000000  0.5287020000000  0.4867610000000 1.0
C      1  0.4723250000000  0.4830190000000  0.3938750000000 1.0
C      1  0.5656550000000  0.5108130000000  0.5724490000000 1.0
C      1  0.5356800000000  0.5445920000000  0.4995820000000 1.0
C      1  0.4530610000000  0.5090100000000  0.5528750000000 1.0
C      1  0.5307920000000  0.3886930000000  0.4893770000000 1.0
C      1  0.5890960000000  0.4477060000000  0.5458120000000 1.0
C      1  0.4825670000000  0.4583650000000  0.4076560000000 1.0
C      1  0.4096990000000  0.4745900000000  0.5089470000000 1.0
C      1  0.4943910000000  0.4971410000000  0.3721430000000 1.0
C      1  0.4492930000000  0.4784780000000  0.5116670000000 1.0
C      1  0.4724920000000  0.6167360000000  0.5049970000000 1.0
C      1  0.5457220000000  0.4797650000000  0.5573040000000 1.0
C      1  0.4395310000000  0.5810870000000  0.5118230000000 1.0
C      1  0.4306070000000  0.4416030000000  0.5475560000000 1.0
C      1  0.5766520000000  0.5697960000000  0.4889760000000 1.0
C      1  0.5957970000000  0.5127040000000  0.5029390000000 1.0
C      1  0.5002160000000  0.5961210000000  0.5649950000000 1.0
C      1  0.5119610000000  0.4207300000000  0.4692450000000 1.0
C      1  0.5665970000000  0.6075140000000  0.5183930000000 1.0
C      1  0.5332580000000  0.4709410000000  0.4158920000000 1.0
C      1  0.4972830000000  0.5188040000000  0.5671080000000 1.0
C      1  0.5237770000000  0.5051260000000  0.5536800000000 1.0
C      1  0.4126450000000  0.5642470000000  0.5126300000000 1.0
C      1  0.5428750000000  0.5120850000000  0.5072420000000 1.0
C      1  0.5550580000000  0.4281790000000  0.4934290000000 1.0
C      1  0.4240810000000  0.4624010000000  0.4825950000000 1.0
C      1  0.4311130000000  0.5517320000000  0.5374640000000 1.0
C      1  0.5794780000000  0.4752400000000  0.5605910000000 1.0
C      1  0.4705300000000  0.3937660000000  0.4969640000000 1.0
C      1  0.4494540000000  0.4207970000000  0.5485020000000 1.0
C      1  0.4288190000000  0.5935190000000  0.4638380000000 1.0
C      1  0.5017720000000  0.4146270000000  0.5605480000000 1.0
C      1  0.3947090000000  0.4776100000000  0.4787990000000 1.0
C      1  0.5174780000000  0.5021530000000  0.5971200000000 1.0
C      1  0.5932170000000  0.4373270000000  0.4873330000000 1.0
C      1  0.4437570000000  0.4418340000000  0.4412490000000 1.0
C      1  0.5660320000000  0.4344080000000  0.5779780000000 1.0
C      1  0.6068330000000  0.5356910000000  0.4814260000000 1.0
C      1  0.4774890000000  0.5532950000000  0.4464620000000 1.0
C      1  0.5599750000000  0.4734360000000  0.4370100000000 1.0
C      1  0.4006920000000  0.5352110000000  0.5313490000000 1.0
C      1  0.5148790000000  0.4932980000000  0.4309070000000 1.0
C      1  0.5077960000000  0.5543090000000  0.4818370000000 1.0
C      1  0.5620500000000  0.4417750000000  0.4452810000000 1.0
C      1  0.4305360000000  0.5655390000000  0.4618750000000 1.0
C      1  0.5163110000000  0.4660500000000  0.4969740000000 1.0
C      1  0.4805400000000  0.6021080000000  0.5310990000000 1.0
C      1  0.4442500000000  0.5115370000000  0.4714690000000 1.0
C      1  0.5307550000000  0.5517540000000  0.4262780000000 1.0
C      1  0.4087530000000  0.4312320000000  0.5020790000000 1.0
C      1  0.4186500000000  0.5177470000000  0.4884590000000 1.0
C      1  0.5730870000000  0.5197840000000  0.4280850000000 1.0
C      1  0.5660910000000  0.4864190000000  0.4678630000000 1.0
C      1  0.5693640000000  0.5071260000000  0.5385380000000 1.0
C      1  0.5472810000000  0.4661130000000  0.4834260000000 1.0
C      1  0.4899520000000  0.5482760000000  0.4147220000000 1.0
C      1  0.4774630000000  0.5961110000000  0.4786570000000 1.0
C      1  0.5822780000000  0.4907810000000  0.4197820000000 1.0
C      1  0.4527270000000  0.5852850000000  0.5393450000000 1.0
C      1  0.4282450000000  0.5443150000000  0.4373020000000 1.0
C      1  0.4534720000000  0.5615350000000  0.4233320000000 1.0
C      1  0.4061370000000  0.5448510000000  0.4918190000000 1.0
C      1  0.5052990000000  0.5498960000000  0.5989420000000 1.0
C      1  0.6007280000000  0.4968760000000  0.5455590000000 1.0
C      1  0.5786940000000  0.6001590000000  0.4974610000000 1.0
C      1  0.5142760000000  0.5791290000000  0.4254610000000 1.0
C      1  0.5138230000000  0.4211850000000  0.4200260000000 1.0
C      1  0.5316780000000  0.5834460000000  0.4694420000000 1.0
C      1  0.5333990000000  0.4394930000000  0.6003900000000 1.0
C      1  0.3962660000000  0.4752690000000  0.5479180000000 1.0
C      1  0.5009080000000  0.3872000000000  0.5059780000000 1.0
C      1  0.4720760000000  0.5457260000000  0.5931290000000 1.0
C      1  0.5150380000000  0.4326950000000  0.5194840000000 1.0
C      1  0.5349750000000  0.5627840000000  0.5628650000000 1.0
C      1  0.4858720000000  0.5150170000000  0.5986240000000 1.0
C      1  0.5954010000000  0.4871380000000  0.4844480000000 1.0
C      1  0.4831820000000  0.5732540000000  0.5755330000000 1.0
C      1  0.5711030000000  0.5182190000000  0.4796730000000 1.0
C      1  0.5292290000000  0.4105780000000  0.4427540000000 1.0
C      1  0.5048960000000  0.4589980000000  0.5347200000000 1.0
C      1  0.4849580000000  0.4895050000000  0.4896470000000 1.0
C      1  0.4815470000000  0.5807290000000  0.4180800000000 1.0
C      1  0.5985370000000  0.4796000000000  0.4456000000000 1.0
C      1  0.5926930000000  0.5509840000000  0.5089610000000 1.0
C      1  0.5457140000000  0.3995970000000  0.4670240000000 1.0
C      1  0.4861880000000  0.5093600000000  0.4088400000000 1.0
C      1  0.5683360000000  0.4816660000000  0.5900070000000 1.0
C      1  0.4361700000000  0.4804530000000  0.4343010000000 1.0
C      1  0.5943540000000  0.5313350000000  0.4499410000000 1.0
C      1  0.5290710000000  0.4284500000000  0.4924120000000 1.0
C      1  0.4415940000000  0.5451100000000  0.5778220000000 1.0
C      1  0.5175900000000  0.4638750000000  0.5626700000000 1.0
C      1  0.5276370000000  0.4007380000000  0.5209710000000 1.0
C      1  0.4530390000000  0.5708980000000  0.5646940000000 1.0
C      1  0.4250040000000  0.5213630000000  0.5783810000000 1.0
C      1  0.3821270000000  0.5037220000000  0.4966800000000 1.0
C      1  0.4387120000000  0.4248910000000  0.5000590000000 1.0
C      1  0.5239890000000  0.4980040000000  0.4880960000000 1.0
C      1  0.3992510000000  0.4890210000000  0.4470810000000 1.0
C      1  0.4138590000000  0.4583390000000  0.4443480000000 1.0
C      1  0.4875410000000  0.5457910000000  0.5564520000000 1.0
C      1  0.4895130000000  0.4710530000000  0.4366430000000 1.0
C      1  0.4740930000000  0.4649630000000  0.5915150000000 1.0
C      1  0.5618490000000  0.5493200000000  0.4357370000000 1.0
C      1  0.4366180000000  0.4983170000000  0.5936840000000 1.0
C      1  0.5749010000000  0.4375980000000  0.5167310000000 1.0
C      1  0.4563380000000  0.4850820000000  0.4788790000000 1.0
C      1  0.5292430000000  0.5453190000000  0.5864730000000 1.0
C      1  0.4856390000000  0.4144400000000  0.4272490000000 1.0
C      1  0.5526870000000  0.4573340000000  0.5337300000000 1.0
C      1  0.5247360000000  0.5927830000000  0.5014720000000 1.0
C      1  0.4778490000000  0.5862950000000  0.4513940000000 1.0
C      1  0.5006700000000  0.4812320000000  0.5801860000000 1.0
C      1  0.5405230000000  0.5147720000000  0.4377820000000 1.0
C      1  0.4463740000000  0.6027190000000  0.4887190000000 1.0
C      1  0.5653470000000  0.5385620000000  0.5256390000000 1.0
C      1  0.4638900000000  0.4023960000000  0.4708480000000 1.0
C      1  0.4478610000000  0.4994920000000  0.4104360000000 1.0
C      1  0.5288960000000  0.5923640000000  0.5706400000000 1.0
C      1  0.4952550000000  0.5075700000000  0.4626940000000 1.0
C      1  0.4245410000000  0.5018550000000  0.5145190000000 1.0
C      1  0.5715690000000  0.4205470000000  0.4670860000000 1.0
C      1  0.5142210000000  0.4482110000000  0.4093090000000 1.0
C      1  0.4050430000000  0.4499770000000  0.5286040000000 1.0
C      1  0.5594290000000  0.4556800000000  0.5990970000000 1.0
C      1  0.5724780000000  0.5499270000000  0.4669030000000 1.0
C      1  0.4525530000000  0.4461500000000  0.4846660000000 1.0
C      1  0.5840580000000  0.5368050000000  0.5601450000000 1.0
C      1  0.4411500000000  0.4157950000000  0.4613160000000 1.0
C      1  0.4590370000000  0.5329470000000  0.4878520000000 1.0
C      1  0.4863690000000  0.4068670000000  0.4548420000000 1.0
C      1  0.6108390000000  0.5062390000000  0.4630860000000 1.0
C      1  0.3930280000000  0.5155640000000  0.4678380000000 1.0
C      1  0.4399850000000  0.5136300000000  0.4408100000000 1.0
C      1  0.5520850000000  0.4314860000000  0.5534250000000 1.0
C      1  0.4604720000000  0.4691150000000  0.4524750000000 1.0
C      1  0.5317470000000  0.4120060000000  0.5492450000000 1.0
C      1  0.4712030000000  0.4607620000000  0.5270160000000 1.0
END
