TITL C-2778436-5916-533 -0.00416203781371315 125000 -661.624905082788 0 0 114 (C1) n - 1
REM
REM in /home/nfs/bkarasulu/CARBON/AIRSS/Generating-Clusters/REBO/Only-C1/SD-CG/HFTN-CG
REM
REM
REM
REM
REM
REM ./C.cell (11c1c37f851c82e70ff6c80c92926a4b)
REM
REM compiler GCC version 9.2.1 20190827 (Red Hat 9.2.1-1)
REM options -cpp -mtune=generic -march=x86-64 -g -O0 -fpre-include=/usr/include/finclude/math-vector-fortran.h
REM seed -214444916 -1748665349 -518802615 696162580 -2138920482 1137835194 -1804503729 -1510973341 -388939110 462940972 1751414133 -1089259052 -627448528 -1827435861 494153340 1442326965 -1292625267 -679115510 1265100948 1655664154 1469121674 -2115314490 596315089 1033262332 -1169571102 1200058689 -252861896 1690185894 2086824318 -1663713864 1465305983 -1909381774 -334543611
REM
CELL 1.54180   50.00000   50.00000   50.00000   90.00000   90.00000   90.00000
LATT -1
SFAC C  
C      1  0.5134380000000  0.4718070000000  0.4917170000000 1.0
C      1  0.4811930000000  0.5082200000000  0.4988170000000 1.0
C      1  0.5299850000000  0.4259870000000  0.5464970000000 1.0
C      1  0.5416320000000  0.5137040000000  0.5745560000000 1.0
C      1  0.5243050000000  0.4479130000000  0.5701020000000 1.0
C      1  0.5582200000000  0.4434810000000  0.5505750000000 1.0
C      1  0.5518660000000  0.4649390000000  0.5716260000000 1.0
C      1  0.5177860000000  0.5233610000000  0.5150270000000 1.0
C      1  0.4709620000000  0.4881170000000  0.5786440000000 1.0
C      1  0.5639180000000  0.4918890000000  0.5703180000000 1.0
C      1  0.4104360000000  0.4985030000000  0.4314200000000 1.0
C      1  0.5102850000000  0.4805750000000  0.5423370000000 1.0
C      1  0.4418430000000  0.4918000000000  0.4241270000000 1.0
C      1  0.5343690000000  0.4336050000000  0.4419010000000 1.0
C      1  0.5902890000000  0.5294600000000  0.5306320000000 1.0
C      1  0.4142620000000  0.5549540000000  0.5116920000000 1.0
C      1  0.4716630000000  0.5353490000000  0.5675590000000 1.0
C      1  0.5978050000000  0.5046770000000  0.4776230000000 1.0
C      1  0.5860300000000  0.4884610000000  0.5000420000000 1.0
C      1  0.5577740000000  0.5462100000000  0.4430240000000 1.0
C      1  0.4837370000000  0.4624710000000  0.5388710000000 1.0
C      1  0.4698520000000  0.5494060000000  0.5376180000000 1.0
C      1  0.4305760000000  0.4874840000000  0.4557800000000 1.0
C      1  0.4846900000000  0.4575910000000  0.4312270000000 1.0
C      1  0.4388050000000  0.5609400000000  0.4724450000000 1.0
C      1  0.5095300000000  0.4819230000000  0.4609420000000 1.0
C      1  0.5174600000000  0.5307190000000  0.4683290000000 1.0
C      1  0.4231050000000  0.5377260000000  0.4678020000000 1.0
C      1  0.4679000000000  0.4778050000000  0.4934230000000 1.0
C      1  0.4698650000000  0.5160620000000  0.4379040000000 1.0
C      1  0.4324750000000  0.5635680000000  0.5369420000000 1.0
C      1  0.4396180000000  0.5142630000000  0.4838510000000 1.0
C      1  0.5103350000000  0.5816380000000  0.5380690000000 1.0
C      1  0.5731630000000  0.4435240000000  0.4732300000000 1.0
C      1  0.5794940000000  0.5274970000000  0.4614830000000 1.0
C      1  0.4409000000000  0.4326210000000  0.5340510000000 1.0
C      1  0.4659030000000  0.4438000000000  0.4561370000000 1.0
C      1  0.4901690000000  0.5341050000000  0.4856770000000 1.0
C      1  0.5770140000000  0.4514120000000  0.5314050000000 1.0
C      1  0.4461120000000  0.4336180000000  0.4779790000000 1.0
C      1  0.4901470000000  0.5831590000000  0.5105820000000 1.0
C      1  0.5852040000000  0.4800940000000  0.5271730000000 1.0
C      1  0.5063090000000  0.4928330000000  0.5117250000000 1.0
C      1  0.5397040000000  0.4876630000000  0.5326110000000 1.0
C      1  0.4632140000000  0.4858060000000  0.5395370000000 1.0
C      1  0.5133560000000  0.4735340000000  0.4221820000000 1.0
C      1  0.4818040000000  0.5772140000000  0.4579340000000 1.0
C      1  0.5243970000000  0.4251200000000  0.5139340000000 1.0
C      1  0.4683300000000  0.5535310000000  0.4682270000000 1.0
C      1  0.4242840000000  0.4812410000000  0.5474900000000 1.0
C      1  0.5014640000000  0.4902550000000  0.5735850000000 1.0
C      1  0.5007740000000  0.4126480000000  0.5350340000000 1.0
C      1  0.4352970000000  0.5717190000000  0.4982940000000 1.0
C      1  0.5601050000000  0.5694800000000  0.4825490000000 1.0
C      1  0.4421810000000  0.4660090000000  0.5123060000000 1.0
C      1  0.5441050000000  0.5137220000000  0.5436440000000 1.0
C      1  0.4946660000000  0.4570240000000  0.5704210000000 1.0
C      1  0.5092530000000  0.4339680000000  0.4296690000000 1.0
C      1  0.4080460000000  0.5039880000000  0.5280890000000 1.0
C      1  0.4811610000000  0.5383110000000  0.4240760000000 1.0
C      1  0.4155870000000  0.5259560000000  0.5049650000000 1.0
C      1  0.5826120000000  0.4964020000000  0.4490750000000 1.0
C      1  0.4686560000000  0.4158890000000  0.5404720000000 1.0
C      1  0.4741750000000  0.4866710000000  0.4227690000000 1.0
C      1  0.4560510000000  0.4293630000000  0.5049870000000 1.0
C      1  0.5323310000000  0.5600040000000  0.4704480000000 1.0
C      1  0.4010020000000  0.4973320000000  0.4949100000000 1.0
C      1  0.4076890000000  0.4661650000000  0.4950300000000 1.0
C      1  0.5738360000000  0.5596060000000  0.5267540000000 1.0
C      1  0.4058570000000  0.5096980000000  0.4633980000000 1.0
C      1  0.5589850000000  0.4840540000000  0.4806910000000 1.0
C      1  0.4372620000000  0.4730180000000  0.4792910000000 1.0
C      1  0.5410360000000  0.5272500000000  0.5002240000000 1.0
C      1  0.4973180000000  0.5944260000000  0.4792870000000 1.0
C      1  0.4992300000000  0.5389890000000  0.5765450000000 1.0
C      1  0.6080820000000  0.5238300000000  0.5093040000000 1.0
C      1  0.5101570000000  0.5383570000000  0.4214990000000 1.0
C      1  0.5637680000000  0.5402030000000  0.4849520000000 1.0
C      1  0.5646940000000  0.4676070000000  0.4527570000000 1.0
C      1  0.5293570000000  0.5779290000000  0.5154320000000 1.0
C      1  0.4597330000000  0.5227970000000  0.4626650000000 1.0
C      1  0.4318220000000  0.5076460000000  0.5598520000000 1.0
C      1  0.5498850000000  0.4709690000000  0.5096410000000 1.0
C      1  0.4884820000000  0.4210670000000  0.4467400000000 1.0
C      1  0.5273960000000  0.5590940000000  0.4369160000000 1.0
C      1  0.5412810000000  0.4704610000000  0.4281210000000 1.0
C      1  0.4605960000000  0.4610430000000  0.5713590000000 1.0
C      1  0.5577070000000  0.5771870000000  0.5103400000000 1.0
C      1  0.5023170000000  0.5052630000000  0.4172300000000 1.0
C      1  0.5817650000000  0.5007560000000  0.5471460000000 1.0
C      1  0.5147280000000  0.5069560000000  0.4464270000000 1.0
C      1  0.4486270000000  0.5286350000000  0.5302770000000 1.0
C      1  0.5095840000000  0.5598890000000  0.4944010000000 1.0
C      1  0.5144870000000  0.5152050000000  0.5821160000000 1.0
C      1  0.4152200000000  0.4511470000000  0.5221320000000 1.0
C      1  0.5455130000000  0.5168260000000  0.4435050000000 1.0
C      1  0.4385400000000  0.4579120000000  0.5538810000000 1.0
C      1  0.5446790000000  0.4363520000000  0.4676190000000 1.0
C      1  0.4603810000000  0.5754250000000  0.5206910000000 1.0
C      1  0.4193780000000  0.5326630000000  0.5440830000000 1.0
C      1  0.5106860000000  0.5852460000000  0.4492600000000 1.0
C      1  0.5019030000000  0.5416760000000  0.5291650000000 1.0
C      1  0.5325310000000  0.4458020000000  0.4949750000000 1.0
C      1  0.5097530000000  0.5576840000000  0.5560810000000 1.0
C      1  0.4594140000000  0.5051730000000  0.5212450000000 1.0
C      1  0.5428440000000  0.5078310000000  0.4746560000000 1.0
C      1  0.5595190000000  0.4954720000000  0.4252850000000 1.0
C      1  0.4794660000000  0.4524210000000  0.5112310000000 1.0
C      1  0.5583410000000  0.5348990000000  0.5354510000000 1.0
C      1  0.4975060000000  0.4202520000000  0.4768320000000 1.0
C      1  0.5756370000000  0.4498670000000  0.5002790000000 1.0
C      1  0.4959730000000  0.4531170000000  0.4692580000000 1.0
C      1  0.4874520000000  0.4204830000000  0.5055440000000 1.0
C      1  0.4566010000000  0.5115290000000  0.5723410000000 1.0
END
