TITL C-2778430-5657-1218 -0.00482352196427995 125000 -383.037712235345 0 0 67 (C1) n - 1
REM
REM in /home/nfs/bkarasulu/CARBON/AIRSS/Generating-Clusters/REBO/Only-C1/SD-CG/HFTN-CG
REM
REM
REM
REM
REM
REM ./C.cell (11c1c37f851c82e70ff6c80c92926a4b)
REM
REM compiler GCC version 9.2.1 20190827 (Red Hat 9.2.1-1)
REM options -cpp -mtune=generic -march=x86-64 -g -O0 -fpre-include=/usr/include/finclude/math-vector-fortran.h
REM seed 720987867 -1153283080 1718321290 -1714920520 1301074396 -1781994815 1040873414 73316516 -1905263517 292208631 1054321232 1674898667 341686248 1941776341 -1794087854 -933140997 -1663085352 1697739181 763715872 1668945813 580325338 -1600206267 936981897 -629026568 -401732666 2094545855 -1632791506 -1431896390 -1185465392 -1609481513 2072507952 1096227520 113886398
REM
CELL 1.54180   50.00000   50.00000   50.00000   90.00000   90.00000   90.00000
LATT -1
SFAC C  
C      1  0.4991340000000  0.4899680000000  0.5256670000000 1.0
C      1  0.5155210000000  0.5485950000000  0.4943890000000 1.0
C      1  0.5117880000000  0.5243920000000  0.5412240000000 1.0
C      1  0.5560230000000  0.5188490000000  0.5158150000000 1.0
C      1  0.4898570000000  0.5433570000000  0.5412850000000 1.0
C      1  0.4405960000000  0.5274610000000  0.5298770000000 1.0
C      1  0.4736650000000  0.5030730000000  0.5608220000000 1.0
C      1  0.5014680000000  0.5660690000000  0.5273010000000 1.0
C      1  0.4724980000000  0.5231020000000  0.5013880000000 1.0
C      1  0.5149810000000  0.4477200000000  0.5606730000000 1.0
C      1  0.5369720000000  0.4320480000000  0.5543420000000 1.0
C      1  0.4348630000000  0.5106320000000  0.5061440000000 1.0
C      1  0.5386630000000  0.4274410000000  0.5270430000000 1.0
C      1  0.5413740000000  0.5429510000000  0.4482050000000 1.0
C      1  0.5293720000000  0.5670130000000  0.5270710000000 1.0
C      1  0.5100080000000  0.4729610000000  0.5060830000000 1.0
C      1  0.5147120000000  0.4415430000000  0.5113010000000 1.0
C      1  0.4668870000000  0.5491040000000  0.5090470000000 1.0
C      1  0.5190380000000  0.4800000000000  0.5999310000000 1.0
C      1  0.5614320000000  0.4740370000000  0.5355440000000 1.0
C      1  0.4744010000000  0.4529050000000  0.4617110000000 1.0
C      1  0.4249420000000  0.4810980000000  0.5134310000000 1.0
C      1  0.4630550000000  0.4571950000000  0.5438620000000 1.0
C      1  0.5064040000000  0.4760320000000  0.4491400000000 1.0
C      1  0.5195420000000  0.4421090000000  0.4803050000000 1.0
C      1  0.4909870000000  0.5634280000000  0.4665050000000 1.0
C      1  0.4486970000000  0.5310160000000  0.4454580000000 1.0
C      1  0.5130770000000  0.5091400000000  0.4893430000000 1.0
C      1  0.5060750000000  0.5002830000000  0.4175460000000 1.0
C      1  0.5794070000000  0.5410850000000  0.5201720000000 1.0
C      1  0.5050270000000  0.4973050000000  0.5564100000000 1.0
C      1  0.5378700000000  0.4650700000000  0.4402250000000 1.0
C      1  0.5479000000000  0.4702950000000  0.5584360000000 1.0
C      1  0.4729450000000  0.4996770000000  0.5179690000000 1.0
C      1  0.5113050000000  0.4466080000000  0.4304880000000 1.0
C      1  0.4965630000000  0.5196170000000  0.4439000000000 1.0
C      1  0.5610990000000  0.4892070000000  0.5121250000000 1.0
C      1  0.4688280000000  0.5448070000000  0.4574860000000 1.0
C      1  0.5516790000000  0.5541850000000  0.5093550000000 1.0
C      1  0.4530790000000  0.4816800000000  0.5267150000000 1.0
C      1  0.6037940000000  0.5453850000000  0.5271760000000 1.0
C      1  0.4985840000000  0.4807470000000  0.4771840000000 1.0
C      1  0.5169220000000  0.5618960000000  0.4567820000000 1.0
C      1  0.4739410000000  0.5059250000000  0.4276500000000 1.0
C      1  0.4673540000000  0.4240610000000  0.5393040000000 1.0
C      1  0.4382990000000  0.4604420000000  0.4963200000000 1.0
C      1  0.4470210000000  0.4962540000000  0.4808800000000 1.0
C      1  0.5348760000000  0.4954860000000  0.4289040000000 1.0
C      1  0.4653440000000  0.4689390000000  0.4388430000000 1.0
C      1  0.4020700000000  0.5625920000000  0.5450860000000 1.0
C      1  0.4992970000000  0.4384010000000  0.4600510000000 1.0
C      1  0.4206610000000  0.5456400000000  0.5377470000000 1.0
C      1  0.5195660000000  0.4768780000000  0.5722190000000 1.0
C      1  0.5252360000000  0.5246340000000  0.5145800000000 1.0
C      1  0.4657040000000  0.5270810000000  0.5461800000000 1.0
C      1  0.4493410000000  0.4975570000000  0.4480050000000 1.0
C      1  0.5421320000000  0.4577720000000  0.4712500000000 1.0
C      1  0.4902230000000  0.4706960000000  0.4189740000000 1.0
C      1  0.5523000000000  0.4804910000000  0.4861380000000 1.0
C      1  0.4597960000000  0.4800810000000  0.5660110000000 1.0
C      1  0.4942160000000  0.4449810000000  0.5376820000000 1.0
C      1  0.4888640000000  0.5692310000000  0.4976810000000 1.0
C      1  0.5430010000000  0.5582660000000  0.4783700000000 1.0
C      1  0.4673380000000  0.4706220000000  0.4860700000000 1.0
C      1  0.5399710000000  0.5038820000000  0.4744160000000 1.0
C      1  0.5425580000000  0.5147630000000  0.4483310000000 1.0
C      1  0.4898550000000  0.5242410000000  0.4744300000000 1.0
END
