TITL C-2778427-5640-676 0.000569402827443231 125000 -1079.19874155005 0 0 183 (C1) n - 1
REM
REM in /home/nfs/bkarasulu/CARBON/AIRSS/Generating-Clusters/REBO/Only-C1/SD-CG/HFTN-CG
REM
REM
REM
REM
REM
REM ./C.cell (11c1c37f851c82e70ff6c80c92926a4b)
REM
REM compiler GCC version 9.2.1 20190827 (Red Hat 9.2.1-1)
REM options -cpp -mtune=generic -march=x86-64 -g -O0 -fpre-include=/usr/include/finclude/math-vector-fortran.h
REM seed -1755415295 -786568831 -1246873136 1527313 23195629 -2039889410 1919314026 111424009 274605082 1879190965 617903307 -2090313097 -553778860 -670501014 1323113311 -1504065832 -287587188 1410261997 1943516464 86753064 -1695280705 1897820900 -751283363 -544303710 1947050905 -1569553457 -2049310492 -196527567 1817604529 -553519325 1922292781 305408994 157842402
REM
CELL 1.54180   50.00000   50.00000   50.00000   90.00000   90.00000   90.00000
LATT -1
SFAC C  
C      1  0.4848110000000  0.5697310000000  0.4896440000000 1.0
C      1  0.4620330000000  0.4717250000000  0.4028890000000 1.0
C      1  0.4407950000000  0.4947910000000  0.5244470000000 1.0
C      1  0.4892830000000  0.5644070000000  0.5468470000000 1.0
C      1  0.5965360000000  0.4942980000000  0.4697450000000 1.0
C      1  0.4416680000000  0.5471840000000  0.4559400000000 1.0
C      1  0.5711590000000  0.4728910000000  0.4785810000000 1.0
C      1  0.5804940000000  0.4880660000000  0.4428270000000 1.0
C      1  0.4963710000000  0.6000880000000  0.4663380000000 1.0
C      1  0.4719030000000  0.5183310000000  0.4209960000000 1.0
C      1  0.5695300000000  0.5128220000000  0.4278360000000 1.0
C      1  0.5669730000000  0.4873640000000  0.6106460000000 1.0
C      1  0.5136450000000  0.4884520000000  0.6004200000000 1.0
C      1  0.5533560000000  0.4938840000000  0.4957160000000 1.0
C      1  0.6009540000000  0.5213790000000  0.5585330000000 1.0
C      1  0.4644020000000  0.4625250000000  0.4546460000000 1.0
C      1  0.6043690000000  0.5187910000000  0.5021340000000 1.0
C      1  0.4533550000000  0.5711700000000  0.5001890000000 1.0
C      1  0.4051150000000  0.4993880000000  0.4454330000000 1.0
C      1  0.5352010000000  0.5068260000000  0.3942770000000 1.0
C      1  0.4951960000000  0.5162030000000  0.6090770000000 1.0
C      1  0.4724960000000  0.5707780000000  0.5909180000000 1.0
C      1  0.5208100000000  0.5058160000000  0.4380590000000 1.0
C      1  0.4692230000000  0.4196910000000  0.4393610000000 1.0
C      1  0.4979660000000  0.5004730000000  0.3841540000000 1.0
C      1  0.5082960000000  0.5421070000000  0.4485710000000 1.0
C      1  0.4832350000000  0.3894070000000  0.4737650000000 1.0
C      1  0.5498960000000  0.5049630000000  0.5676930000000 1.0
C      1  0.4388060000000  0.5231570000000  0.5117800000000 1.0
C      1  0.5046150000000  0.6031270000000  0.4992310000000 1.0
C      1  0.5116900000000  0.3894920000000  0.4620180000000 1.0
C      1  0.4848240000000  0.4716910000000  0.4373430000000 1.0
C      1  0.5714520000000  0.5607880000000  0.5062530000000 1.0
C      1  0.4859220000000  0.4573810000000  0.5173390000000 1.0
C      1  0.4579950000000  0.4211860000000  0.5502460000000 1.0
C      1  0.4767990000000  0.4808710000000  0.5879630000000 1.0
C      1  0.4140600000000  0.4742120000000  0.4624590000000 1.0
C      1  0.5674990000000  0.5548240000000  0.4650680000000 1.0
C      1  0.5570120000000  0.5017130000000  0.5345470000000 1.0
C      1  0.5591770000000  0.5617650000000  0.4258730000000 1.0
C      1  0.4503380000000  0.4961680000000  0.5951220000000 1.0
C      1  0.4449070000000  0.5214930000000  0.4345840000000 1.0
C      1  0.4890440000000  0.4278950000000  0.5260950000000 1.0
C      1  0.5086930000000  0.4305820000000  0.4848320000000 1.0
C      1  0.4696190000000  0.4235040000000  0.4122060000000 1.0
C      1  0.5115190000000  0.5890010000000  0.4413370000000 1.0
C      1  0.4619030000000  0.4531930000000  0.5408120000000 1.0
C      1  0.4378540000000  0.4627010000000  0.5236010000000 1.0
C      1  0.5375230000000  0.6034720000000  0.5042100000000 1.0
C      1  0.4277330000000  0.4350380000000  0.5505640000000 1.0
C      1  0.5587760000000  0.5336840000000  0.5225870000000 1.0
C      1  0.4774040000000  0.5395690000000  0.5668610000000 1.0
C      1  0.5933050000000  0.4538620000000  0.4935130000000 1.0
C      1  0.4952100000000  0.5723680000000  0.4232700000000 1.0
C      1  0.5279090000000  0.5222030000000  0.5205890000000 1.0
C      1  0.4647600000000  0.6020450000000  0.5436120000000 1.0
C      1  0.5088590000000  0.4799910000000  0.5155060000000 1.0
C      1  0.5710100000000  0.5788960000000  0.5449710000000 1.0
C      1  0.3819670000000  0.4614350000000  0.5053340000000 1.0
C      1  0.5782090000000  0.5396640000000  0.4298630000000 1.0
C      1  0.5486730000000  0.4782740000000  0.4462450000000 1.0
C      1  0.5091780000000  0.4467810000000  0.3981180000000 1.0
C      1  0.5487180000000  0.5368580000000  0.5799670000000 1.0
C      1  0.4890570000000  0.4997500000000  0.4961590000000 1.0
C      1  0.4429480000000  0.5003730000000  0.5556430000000 1.0
C      1  0.4901270000000  0.6175140000000  0.5471640000000 1.0
C      1  0.4520370000000  0.5259420000000  0.5849670000000 1.0
C      1  0.5972280000000  0.5427550000000  0.4537070000000 1.0
C      1  0.5544240000000  0.5206120000000  0.4806900000000 1.0
C      1  0.5577390000000  0.4473810000000  0.4225500000000 1.0
C      1  0.5249780000000  0.4659330000000  0.4937160000000 1.0
C      1  0.5386440000000  0.5367680000000  0.4628590000000 1.0
C      1  0.5029930000000  0.3968890000000  0.5264010000000 1.0
C      1  0.4416320000000  0.4125570000000  0.5031190000000 1.0
C      1  0.4800310000000  0.4474920000000  0.4010360000000 1.0
C      1  0.5424780000000  0.5092930000000  0.4217630000000 1.0
C      1  0.6114370000000  0.5227200000000  0.4686930000000 1.0
C      1  0.5241880000000  0.4135040000000  0.4410890000000 1.0
C      1  0.5303660000000  0.5616940000000  0.5247080000000 1.0
C      1  0.5106070000000  0.6031810000000  0.5330840000000 1.0
C      1  0.5461190000000  0.4323090000000  0.5608770000000 1.0
C      1  0.4699270000000  0.4521110000000  0.5725500000000 1.0
C      1  0.5328260000000  0.4883380000000  0.4713990000000 1.0
C      1  0.5652850000000  0.5379620000000  0.5516000000000 1.0
C      1  0.4919120000000  0.4771920000000  0.5513460000000 1.0
C      1  0.4053540000000  0.5076220000000  0.5654390000000 1.0
C      1  0.4260890000000  0.4836250000000  0.5788260000000 1.0
C      1  0.5700560000000  0.4891050000000  0.5832820000000 1.0
C      1  0.4750210000000  0.5986690000000  0.5154400000000 1.0
C      1  0.4344730000000  0.4582530000000  0.4456840000000 1.0
C      1  0.3921950000000  0.4583700000000  0.4748850000000 1.0
C      1  0.4640310000000  0.4046730000000  0.5219810000000 1.0
C      1  0.5050550000000  0.4599740000000  0.4697170000000 1.0
C      1  0.5807150000000  0.4559630000000  0.4377930000000 1.0
C      1  0.4728140000000  0.4975340000000  0.3960080000000 1.0
C      1  0.4256460000000  0.5836010000000  0.5000130000000 1.0
C      1  0.5091200000000  0.4534000000000  0.4383170000000 1.0
C      1  0.5317520000000  0.3959970000000  0.5149250000000 1.0
C      1  0.4938490000000  0.4965640000000  0.4297800000000 1.0
C      1  0.3990750000000  0.4344270000000  0.4974630000000 1.0
C      1  0.4495360000000  0.5158610000000  0.4676180000000 1.0
C      1  0.5844190000000  0.4649110000000  0.5665170000000 1.0
C      1  0.5618980000000  0.5845900000000  0.4585590000000 1.0
C      1  0.4820410000000  0.3826300000000  0.5061050000000 1.0
C      1  0.5922840000000  0.4440760000000  0.4608400000000 1.0
C      1  0.5497480000000  0.5809100000000  0.5672400000000 1.0
C      1  0.5324630000000  0.5860120000000  0.4753450000000 1.0
C      1  0.5084050000000  0.5459660000000  0.4147320000000 1.0
C      1  0.5206650000000  0.5560110000000  0.5007970000000 1.0
C      1  0.5310690000000  0.3846440000000  0.4831760000000 1.0
C      1  0.4978160000000  0.5233840000000  0.5151020000000 1.0
C      1  0.4345970000000  0.5464630000000  0.4881810000000 1.0
C      1  0.5467960000000  0.4237380000000  0.4622290000000 1.0
C      1  0.4530890000000  0.5480700000000  0.5235720000000 1.0
C      1  0.4438020000000  0.4593720000000  0.4921730000000 1.0
C      1  0.4996810000000  0.4573630000000  0.5981800000000 1.0
C      1  0.4755830000000  0.4530000000000  0.4853770000000 1.0
C      1  0.4843970000000  0.5527150000000  0.5172760000000 1.0
C      1  0.5038950000000  0.5048680000000  0.4677540000000 1.0
C      1  0.4526570000000  0.4044810000000  0.4723390000000 1.0
C      1  0.4002340000000  0.4816870000000  0.5486080000000 1.0
C      1  0.5911980000000  0.5603460000000  0.5314240000000 1.0
C      1  0.4605230000000  0.5755520000000  0.5605680000000 1.0
C      1  0.4681640000000  0.5090200000000  0.6177890000000 1.0
C      1  0.4528150000000  0.5687700000000  0.3985860000000 1.0
C      1  0.5392620000000  0.5838460000000  0.4360340000000 1.0
C      1  0.4158590000000  0.4576400000000  0.5621100000000 1.0
C      1  0.5252880000000  0.5424570000000  0.5480900000000 1.0
C      1  0.4380110000000  0.4745850000000  0.4189960000000 1.0
C      1  0.4796870000000  0.5244720000000  0.4540670000000 1.0
C      1  0.6000470000000  0.4861120000000  0.5026620000000 1.0
C      1  0.4727770000000  0.4956930000000  0.5481920000000 1.0
C      1  0.4683020000000  0.5872510000000  0.4668250000000 1.0
C      1  0.5724130000000  0.4773780000000  0.5181560000000 1.0
C      1  0.5301700000000  0.4298860000000  0.4138990000000 1.0
C      1  0.5182850000000  0.5134430000000  0.5583950000000 1.0
C      1  0.4778530000000  0.4195510000000  0.4876790000000 1.0
C      1  0.4013480000000  0.5620470000000  0.5037190000000 1.0
C      1  0.3932540000000  0.4825820000000  0.5203660000000 1.0
C      1  0.5983390000000  0.4937740000000  0.5657880000000 1.0
C      1  0.4973340000000  0.5066310000000  0.5777040000000 1.0
C      1  0.4576310000000  0.5496230000000  0.6049560000000 1.0
C      1  0.5316390000000  0.4686320000000  0.4223720000000 1.0
C      1  0.4937740000000  0.4302280000000  0.5780900000000 1.0
C      1  0.5208700000000  0.4767660000000  0.3913130000000 1.0
C      1  0.4407950000000  0.4267710000000  0.4516560000000 1.0
C      1  0.3975680000000  0.5233650000000  0.4585770000000 1.0
C      1  0.4826440000000  0.5216840000000  0.5423360000000 1.0
C      1  0.4594640000000  0.4897620000000  0.4961420000000 1.0
C      1  0.4060730000000  0.5021330000000  0.5037990000000 1.0
C      1  0.5173930000000  0.5804600000000  0.5572780000000 1.0
C      1  0.5460040000000  0.5845340000000  0.5278150000000 1.0
C      1  0.4254550000000  0.5006140000000  0.4248880000000 1.0
C      1  0.5412120000000  0.4227530000000  0.5337950000000 1.0
C      1  0.5830550000000  0.5383830000000  0.5782740000000 1.0
C      1  0.4965610000000  0.5460420000000  0.5927490000000 1.0
C      1  0.5120630000000  0.5282070000000  0.3923310000000 1.0
C      1  0.4298040000000  0.5310800000000  0.5630200000000 1.0
C      1  0.5352850000000  0.4389030000000  0.5043800000000 1.0
C      1  0.5275420000000  0.4885150000000  0.5389060000000 1.0
C      1  0.4285260000000  0.4351250000000  0.4803870000000 1.0
C      1  0.4034740000000  0.5437120000000  0.4749900000000 1.0
C      1  0.5714500000000  0.4406670000000  0.5662260000000 1.0
C      1  0.4064880000000  0.5311170000000  0.5121880000000 1.0
C      1  0.5235160000000  0.4442840000000  0.5762770000000 1.0
C      1  0.5519190000000  0.4507310000000  0.4648090000000 1.0
C      1  0.6036190000000  0.5339970000000  0.5325620000000 1.0
C      1  0.4128400000000  0.5690350000000  0.5349850000000 1.0
C      1  0.5678570000000  0.4441480000000  0.5130360000000 1.0
C      1  0.4363990000000  0.5569230000000  0.5481340000000 1.0
C      1  0.4963970000000  0.4251400000000  0.4528800000000 1.0
C      1  0.4543130000000  0.5728940000000  0.4473940000000 1.0
C      1  0.5525630000000  0.4047290000000  0.4819850000000 1.0
C      1  0.5630820000000  0.4111640000000  0.5106060000000 1.0
C      1  0.5224220000000  0.5543760000000  0.5788500000000 1.0
C      1  0.4895150000000  0.4098480000000  0.5549770000000 1.0
C      1  0.5201800000000  0.4751240000000  0.5693360000000 1.0
C      1  0.4664000000000  0.5730880000000  0.4216930000000 1.0
C      1  0.5106330000000  0.5634780000000  0.4720530000000 1.0
C      1  0.5627040000000  0.5842610000000  0.4916760000000 1.0
C      1  0.4284830000000  0.4950350000000  0.4826100000000 1.0
C      1  0.5802380000000  0.5356570000000  0.4891940000000 1.0
C      1  0.4218830000000  0.4327350000000  0.5194330000000 1.0
END
