TITL C-2778423-5760-321 -0.122736907436507 125000 -932.313939104944 0 0 157 (C1) n - 1
REM
REM in /home/nfs/bkarasulu/CARBON/AIRSS/Generating-Clusters/REBO/Only-C1/SD-CG/HFTN-CG
REM
REM
REM
REM
REM
REM ./C.cell (11c1c37f851c82e70ff6c80c92926a4b)
REM
REM compiler GCC version 9.2.1 20190827 (Red Hat 9.2.1-1)
REM options -cpp -mtune=generic -march=x86-64 -g -O0 -fpre-include=/usr/include/finclude/math-vector-fortran.h
REM seed 1293553952 799379216 -1890408044 1236840643 -179828283 -188531088 71873553 1403247237 1081748303 550011750 -92927575 975327653 83518927 -1401965425 -2099222361 -1628421902 299226270 754211071 1470665877 -686243234 2010251746 649524762 952819695 839488631 -2033333427 1900558578 -1030852834 -589594827 -583110705 723029923 -1725710049 -1179825239 -1656251433
REM
CELL 1.54180   50.00000   50.00000   50.00000   90.00000   90.00000   90.00000
LATT -1
SFAC C  
C      1  0.4617040000000  0.5552850000000  0.4230540000000 1.0
C      1  0.4865910000000  0.4847580000000  0.4169650000000 1.0
C      1  0.5784590000000  0.5431200000000  0.4325640000000 1.0
C      1  0.5609120000000  0.4904480000000  0.4260140000000 1.0
C      1  0.5148780000000  0.3820260000000  0.5089700000000 1.0
C      1  0.4187380000000  0.5288480000000  0.4706830000000 1.0
C      1  0.4727630000000  0.5345670000000  0.5240400000000 1.0
C      1  0.4950000000000  0.5012950000000  0.4911090000000 1.0
C      1  0.5029600000000  0.3950830000000  0.5305910000000 1.0
C      1  0.6121410000000  0.5130270000000  0.5119940000000 1.0
C      1  0.4329950000000  0.4404420000000  0.4642180000000 1.0
C      1  0.5410360000000  0.4771810000000  0.4850990000000 1.0
C      1  0.5493440000000  0.5796100000000  0.4443090000000 1.0
C      1  0.4284270000000  0.4902520000000  0.4667330000000 1.0
C      1  0.3994830000000  0.5010980000000  0.4756220000000 1.0
C      1  0.4327010000000  0.5665590000000  0.5304670000000 1.0
C      1  0.5787600000000  0.4729340000000  0.5460200000000 1.0
C      1  0.5759750000000  0.5064910000000  0.5847910000000 1.0
C      1  0.5554060000000  0.4316360000000  0.4618250000000 1.0
C      1  0.4728300000000  0.4087470000000  0.5342310000000 1.0
C      1  0.5125910000000  0.4508320000000  0.4947100000000 1.0
C      1  0.4916670000000  0.4345650000000  0.5840110000000 1.0
C      1  0.3883810000000  0.5319640000000  0.5423370000000 1.0
C      1  0.5293470000000  0.6008920000000  0.5351540000000 1.0
C      1  0.4388220000000  0.5181650000000  0.4931730000000 1.0
C      1  0.4779580000000  0.3991720000000  0.4801740000000 1.0
C      1  0.4352540000000  0.4495960000000  0.5496070000000 1.0
C      1  0.5637730000000  0.4704200000000  0.4602650000000 1.0
C      1  0.4506130000000  0.5889910000000  0.5424020000000 1.0
C      1  0.4455820000000  0.5618140000000  0.4492360000000 1.0
C      1  0.6015380000000  0.5355550000000  0.4886300000000 1.0
C      1  0.5474100000000  0.5151100000000  0.5879950000000 1.0
C      1  0.4506610000000  0.4674570000000  0.4183090000000 1.0
C      1  0.4291970000000  0.4228520000000  0.5084200000000 1.0
C      1  0.4911330000000  0.4856870000000  0.5961940000000 1.0
C      1  0.4925070000000  0.5304910000000  0.5463290000000 1.0
C      1  0.4696160000000  0.4826560000000  0.5622990000000 1.0
C      1  0.4710890000000  0.5844780000000  0.5620560000000 1.0
C      1  0.5739260000000  0.4416470000000  0.5408950000000 1.0
C      1  0.5060970000000  0.4699260000000  0.4478730000000 1.0
C      1  0.5549660000000  0.5363370000000  0.4641540000000 1.0
C      1  0.5898220000000  0.4779620000000  0.4664400000000 1.0
C      1  0.4922100000000  0.4163130000000  0.5618740000000 1.0
C      1  0.5698870000000  0.5096660000000  0.4527300000000 1.0
C      1  0.4716730000000  0.5198500000000  0.4952490000000 1.0
C      1  0.5087880000000  0.5715060000000  0.4031360000000 1.0
C      1  0.5495650000000  0.4150230000000  0.5026760000000 1.0
C      1  0.4952910000000  0.5982090000000  0.5557930000000 1.0
C      1  0.5136110000000  0.5325060000000  0.4100950000000 1.0
C      1  0.5463450000000  0.4830070000000  0.5489440000000 1.0
C      1  0.4997260000000  0.4100060000000  0.4623550000000 1.0
C      1  0.4901680000000  0.4529140000000  0.4230790000000 1.0
C      1  0.5325060000000  0.5407590000000  0.5271990000000 1.0
C      1  0.5334750000000  0.4978900000000  0.4118770000000 1.0
C      1  0.5480260000000  0.4357140000000  0.5876080000000 1.0
C      1  0.4606120000000  0.5310370000000  0.4075870000000 1.0
C      1  0.5647930000000  0.4641350000000  0.5014330000000 1.0
C      1  0.4477970000000  0.5409730000000  0.5398240000000 1.0
C      1  0.4825810000000  0.5517990000000  0.4993760000000 1.0
C      1  0.5025280000000  0.5307930000000  0.4411380000000 1.0
C      1  0.3924500000000  0.5165720000000  0.5193450000000 1.0
C      1  0.5695080000000  0.5106090000000  0.5240230000000 1.0
C      1  0.4696340000000  0.6015660000000  0.4968870000000 1.0
C      1  0.4317060000000  0.5679820000000  0.4987410000000 1.0
C      1  0.5246550000000  0.5548310000000  0.5042210000000 1.0
C      1  0.5805050000000  0.4793020000000  0.5769310000000 1.0
C      1  0.4701160000000  0.4508800000000  0.4741780000000 1.0
C      1  0.4764990000000  0.4594020000000  0.5839900000000 1.0
C      1  0.4396330000000  0.5109780000000  0.5976840000000 1.0
C      1  0.5037110000000  0.5373090000000  0.5926200000000 1.0
C      1  0.5565130000000  0.5603830000000  0.4245250000000 1.0
C      1  0.5098660000000  0.5000180000000  0.4329520000000 1.0
C      1  0.5275120000000  0.5799370000000  0.4601780000000 1.0
C      1  0.4735060000000  0.5189310000000  0.4539130000000 1.0
C      1  0.5836330000000  0.5329370000000  0.5346310000000 1.0
C      1  0.5170260000000  0.4121840000000  0.4399080000000 1.0
C      1  0.4225090000000  0.5100130000000  0.5152190000000 1.0
C      1  0.5411830000000  0.4850960000000  0.5800640000000 1.0
C      1  0.5199440000000  0.4394960000000  0.5943490000000 1.0
C      1  0.5757870000000  0.4341680000000  0.5111140000000 1.0
C      1  0.4591250000000  0.4348740000000  0.5501270000000 1.0
C      1  0.5617580000000  0.4605710000000  0.5911560000000 1.0
C      1  0.4094100000000  0.5242690000000  0.5651440000000 1.0
C      1  0.5320940000000  0.4454360000000  0.5400250000000 1.0
C      1  0.5001170000000  0.6130670000000  0.4903610000000 1.0
C      1  0.5322790000000  0.4569960000000  0.4606570000000 1.0
C      1  0.5140350000000  0.5074110000000  0.3870620000000 1.0
C      1  0.5814920000000  0.4888040000000  0.5040680000000 1.0
C      1  0.4832410000000  0.4503720000000  0.5430260000000 1.0
C      1  0.5571670000000  0.4566020000000  0.4298080000000 1.0
C      1  0.4770990000000  0.4700200000000  0.5204940000000 1.0
C      1  0.5914220000000  0.5060240000000  0.4785150000000 1.0
C      1  0.5862310000000  0.5447000000000  0.4623270000000 1.0
C      1  0.4997850000000  0.4782900000000  0.3798930000000 1.0
C      1  0.5405320000000  0.4272940000000  0.4353030000000 1.0
C      1  0.4492320000000  0.4124830000000  0.4733010000000 1.0
C      1  0.4557060000000  0.6086290000000  0.5234740000000 1.0
C      1  0.4256030000000  0.5037500000000  0.5751860000000 1.0
C      1  0.4349910000000  0.4752840000000  0.4950830000000 1.0
C      1  0.4752760000000  0.4985570000000  0.3900190000000 1.0
C      1  0.5059890000000  0.6212170000000  0.5377990000000 1.0
C      1  0.5827710000000  0.5150770000000  0.4215740000000 1.0
C      1  0.4174390000000  0.4479820000000  0.4894280000000 1.0
C      1  0.4578860000000  0.4080310000000  0.5063470000000 1.0
C      1  0.4263660000000  0.5577520000000  0.4698650000000 1.0
C      1  0.5257360000000  0.4956760000000  0.5028280000000 1.0
C      1  0.5352350000000  0.5463050000000  0.4802280000000 1.0
C      1  0.5375410000000  0.3921080000000  0.4975620000000 1.0
C      1  0.5212980000000  0.4088030000000  0.5514880000000 1.0
C      1  0.4774030000000  0.5129880000000  0.5652090000000 1.0
C      1  0.4749330000000  0.5522610000000  0.4605250000000 1.0
C      1  0.5096920000000  0.4578840000000  0.3980200000000 1.0
C      1  0.4179060000000  0.4429910000000  0.5288470000000 1.0
C      1  0.4597250000000  0.4973840000000  0.4555700000000 1.0
C      1  0.4886420000000  0.5673500000000  0.4232800000000 1.0
C      1  0.5255040000000  0.5913070000000  0.4879460000000 1.0
C      1  0.4535660000000  0.4641130000000  0.4505450000000 1.0
C      1  0.5218710000000  0.4863880000000  0.5337030000000 1.0
C      1  0.4273390000000  0.4818280000000  0.5273560000000 1.0
C      1  0.4875770000000  0.5288060000000  0.3895590000000 1.0
C      1  0.5093260000000  0.4545570000000  0.5543740000000 1.0
C      1  0.4383880000000  0.4813130000000  0.5568810000000 1.0
C      1  0.5216590000000  0.5787420000000  0.5567640000000 1.0
C      1  0.4964710000000  0.5801500000000  0.5001170000000 1.0
C      1  0.5432650000000  0.5164390000000  0.5193430000000 1.0
C      1  0.4525850000000  0.5317980000000  0.5661710000000 1.0
C      1  0.5500000000000  0.4257170000000  0.5583330000000 1.0
C      1  0.4606730000000  0.5718490000000  0.4847970000000 1.0
C      1  0.3891340000000  0.4933390000000  0.5008730000000 1.0
C      1  0.4985680000000  0.5559830000000  0.5579930000000 1.0
C      1  0.4635170000000  0.4661730000000  0.4967060000000 1.0
C      1  0.6026290000000  0.4891640000000  0.5290530000000 1.0
C      1  0.5148920000000  0.4698370000000  0.5827380000000 1.0
C      1  0.5298970000000  0.5356810000000  0.5812390000000 1.0
C      1  0.4629240000000  0.4381940000000  0.4216870000000 1.0
C      1  0.4646230000000  0.5318390000000  0.5979620000000 1.0
C      1  0.4004180000000  0.4664240000000  0.5126040000000 1.0
C      1  0.5375340000000  0.4451870000000  0.5101030000000 1.0
C      1  0.4943710000000  0.4883550000000  0.5394020000000 1.0
C      1  0.4487920000000  0.4991760000000  0.4097720000000 1.0
C      1  0.4272190000000  0.4943760000000  0.4327340000000 1.0
C      1  0.4936880000000  0.4357510000000  0.4771680000000 1.0
C      1  0.5765550000000  0.4310000000000  0.4781410000000 1.0
C      1  0.5902800000000  0.5536830000000  0.5117950000000 1.0
C      1  0.5440220000000  0.5918050000000  0.5124790000000 1.0
C      1  0.4901730000000  0.5121530000000  0.6029560000000 1.0
C      1  0.4116440000000  0.5174940000000  0.4416810000000 1.0
C      1  0.5663900000000  0.5751710000000  0.5174200000000 1.0
C      1  0.4788420000000  0.5593900000000  0.5837680000000 1.0
C      1  0.5657920000000  0.5565720000000  0.5426900000000 1.0
C      1  0.5382030000000  0.5526450000000  0.5569350000000 1.0
C      1  0.5041670000000  0.5629950000000  0.4518540000000 1.0
C      1  0.4502010000000  0.4230300000000  0.4413950000000 1.0
C      1  0.5016590000000  0.4747790000000  0.4789280000000 1.0
C      1  0.4110580000000  0.5533950000000  0.5493110000000 1.0
C      1  0.5349650000000  0.5556750000000  0.4063040000000 1.0
C      1  0.5359290000000  0.4658130000000  0.4074170000000 1.0
END
