TITL C-2778431-5191-341 0.00523527309687204 125000 -988.65672458321 0 0 172 (C1) n - 1
REM
REM in /home/nfs/bkarasulu/CARBON/AIRSS/Generating-Clusters/REBO/Only-C1/SD-CG/HFTN-CG
REM
REM
REM
REM
REM
REM ./C.cell (11c1c37f851c82e70ff6c80c92926a4b)
REM
REM compiler GCC version 9.2.1 20190827 (Red Hat 9.2.1-1)
REM options -cpp -mtune=generic -march=x86-64 -g -O0 -fpre-include=/usr/include/finclude/math-vector-fortran.h
REM seed -294671971 -689782898 1921398105 -1483690187 662589151 1775094979 429269853 -1578274349 -1826413183 -461044428 -244904516 -915640793 2018269090 -1564772784 -793063797 1976289514 883870402 467830139 -1211960247 -844651129 -293321486 2006599527 1997446730 -324081096 -295345719 1506153923 -657271580 -998853578 1294081535 -1450067909 421429762 -702973255 1506363191
REM
CELL 1.54180   50.00000   50.00000   50.00000   90.00000   90.00000   90.00000
LATT -1
SFAC C  
C      1  0.4767160000000  0.5110690000000  0.4976030000000 1.0
C      1  0.5249980000000  0.4370580000000  0.5276100000000 1.0
C      1  0.4561100000000  0.4416230000000  0.5794260000000 1.0
C      1  0.5379060000000  0.4631210000000  0.5390260000000 1.0
C      1  0.4947580000000  0.4669720000000  0.5939690000000 1.0
C      1  0.5531960000000  0.4226090000000  0.4686430000000 1.0
C      1  0.4737620000000  0.5256280000000  0.3995890000000 1.0
C      1  0.5038880000000  0.5718620000000  0.6003060000000 1.0
C      1  0.5352280000000  0.5075060000000  0.4091270000000 1.0
C      1  0.4761390000000  0.6076640000000  0.4629220000000 1.0
C      1  0.4437990000000  0.4695510000000  0.5944420000000 1.0
C      1  0.5678130000000  0.4917980000000  0.4631780000000 1.0
C      1  0.4957120000000  0.4442810000000  0.4479190000000 1.0
C      1  0.5826440000000  0.4893130000000  0.5381490000000 1.0
C      1  0.5522040000000  0.4418290000000  0.5975360000000 1.0
C      1  0.5670540000000  0.5155060000000  0.4953050000000 1.0
C      1  0.5303700000000  0.4933480000000  0.5306330000000 1.0
C      1  0.5511580000000  0.4648600000000  0.5825420000000 1.0
C      1  0.4379500000000  0.5350890000000  0.5654140000000 1.0
C      1  0.5120540000000  0.4699410000000  0.4360050000000 1.0
C      1  0.5173780000000  0.5744370000000  0.4568180000000 1.0
C      1  0.4493630000000  0.5807250000000  0.4247030000000 1.0
C      1  0.4874410000000  0.4393940000000  0.5883070000000 1.0
C      1  0.4543810000000  0.5122700000000  0.5460000000000 1.0
C      1  0.4187830000000  0.5729500000000  0.4600590000000 1.0
C      1  0.4353200000000  0.4223130000000  0.5630260000000 1.0
C      1  0.4898730000000  0.4990530000000  0.3907720000000 1.0
C      1  0.5503790000000  0.5360840000000  0.4505250000000 1.0
C      1  0.4717580000000  0.4835590000000  0.5898880000000 1.0
C      1  0.4782150000000  0.3758100000000  0.4973310000000 1.0
C      1  0.5752360000000  0.5139850000000  0.5513020000000 1.0
C      1  0.5663460000000  0.4644120000000  0.5529590000000 1.0
C      1  0.5072380000000  0.5913440000000  0.5624320000000 1.0
C      1  0.5494350000000  0.4767100000000  0.4062480000000 1.0
C      1  0.5123560000000  0.5186880000000  0.3923950000000 1.0
C      1  0.4855590000000  0.5979540000000  0.5299140000000 1.0
C      1  0.5680740000000  0.4453860000000  0.4845180000000 1.0
C      1  0.5888980000000  0.4652860000000  0.4420110000000 1.0
C      1  0.4744090000000  0.4830080000000  0.4345790000000 1.0
C      1  0.4714770000000  0.5477500000000  0.5125680000000 1.0
C      1  0.5588710000000  0.5339230000000  0.5389810000000 1.0
C      1  0.5867990000000  0.5149290000000  0.4144990000000 1.0
C      1  0.4001650000000  0.4773660000000  0.4863420000000 1.0
C      1  0.6035370000000  0.5258610000000  0.5129940000000 1.0
C      1  0.5101830000000  0.6122840000000  0.5106100000000 1.0
C      1  0.4590480000000  0.4830040000000  0.5034500000000 1.0
C      1  0.4791810000000  0.4316030000000  0.3937430000000 1.0
C      1  0.5121200000000  0.4714060000000  0.5583750000000 1.0
C      1  0.5093330000000  0.4222990000000  0.5816330000000 1.0
C      1  0.5090370000000  0.5753700000000  0.4954710000000 1.0
C      1  0.4236220000000  0.5759500000000  0.4324460000000 1.0
C      1  0.5303250000000  0.3881180000000  0.5011350000000 1.0
C      1  0.5592590000000  0.4905590000000  0.5033850000000 1.0
C      1  0.4661220000000  0.4116360000000  0.4622820000000 1.0
C      1  0.4824980000000  0.6068560000000  0.4914440000000 1.0
C      1  0.5541890000000  0.5594740000000  0.5678670000000 1.0
C      1  0.5898820000000  0.4288380000000  0.5266120000000 1.0
C      1  0.4220840000000  0.4219930000000  0.5420190000000 1.0
C      1  0.4592660000000  0.5211300000000  0.5846830000000 1.0
C      1  0.4767510000000  0.5508260000000  0.5465300000000 1.0
C      1  0.5944270000000  0.4884410000000  0.4845870000000 1.0
C      1  0.5484300000000  0.4669270000000  0.4948620000000 1.0
C      1  0.4891870000000  0.5395230000000  0.4843850000000 1.0
C      1  0.4272550000000  0.6056990000000  0.4974060000000 1.0
C      1  0.5089330000000  0.4973080000000  0.4536940000000 1.0
C      1  0.5090510000000  0.5364930000000  0.5196820000000 1.0
C      1  0.4846470000000  0.5301140000000  0.5801920000000 1.0
C      1  0.5311530000000  0.4302460000000  0.4363420000000 1.0
C      1  0.4492310000000  0.5213200000000  0.4812710000000 1.0
C      1  0.5865450000000  0.5543320000000  0.4721140000000 1.0
C      1  0.4976510000000  0.4181470000000  0.4658200000000 1.0
C      1  0.4767950000000  0.4637800000000  0.5212420000000 1.0
C      1  0.5431810000000  0.4444140000000  0.4155200000000 1.0
C      1  0.5180110000000  0.5490660000000  0.4776350000000 1.0
C      1  0.5657810000000  0.5050500000000  0.3972960000000 1.0
C      1  0.5513300000000  0.4170840000000  0.5499090000000 1.0
C      1  0.4371640000000  0.4951510000000  0.4687140000000 1.0
C      1  0.4516050000000  0.4424190000000  0.5245940000000 1.0
C      1  0.5291890000000  0.5098760000000  0.5960710000000 1.0
C      1  0.4423020000000  0.5370990000000  0.5172030000000 1.0
C      1  0.4049950000000  0.5256870000000  0.5252120000000 1.0
C      1  0.5511590000000  0.5728580000000  0.5366480000000 1.0
C      1  0.5898560000000  0.5485970000000  0.5020270000000 1.0
C      1  0.4142740000000  0.5572060000000  0.5160300000000 1.0
C      1  0.4225530000000  0.4705470000000  0.4412510000000 1.0
C      1  0.4983150000000  0.4860640000000  0.5309270000000 1.0
C      1  0.5799530000000  0.5160770000000  0.5811710000000 1.0
C      1  0.5928610000000  0.5207370000000  0.4737540000000 1.0
C      1  0.4592120000000  0.3927500000000  0.4855160000000 1.0
C      1  0.5422090000000  0.4761160000000  0.4509700000000 1.0
C      1  0.4847720000000  0.5149550000000  0.5307970000000 1.0
C      1  0.4127470000000  0.5194400000000  0.5545290000000 1.0
C      1  0.4206990000000  0.4856190000000  0.5911670000000 1.0
C      1  0.5502050000000  0.5290590000000  0.5784820000000 1.0
C      1  0.4853350000000  0.4542540000000  0.5514020000000 1.0
C      1  0.4779110000000  0.5751320000000  0.4979660000000 1.0
C      1  0.4111330000000  0.5341920000000  0.4923650000000 1.0
C      1  0.5249510000000  0.5657670000000  0.4186340000000 1.0
C      1  0.5904190000000  0.4598380000000  0.4706060000000 1.0
C      1  0.4118500000000  0.4606300000000  0.4666130000000 1.0
C      1  0.4569390000000  0.6053690000000  0.5131910000000 1.0
C      1  0.5723820000000  0.4228930000000  0.5058390000000 1.0
C      1  0.5224570000000  0.5102050000000  0.5025260000000 1.0
C      1  0.4853840000000  0.4200730000000  0.4982590000000 1.0
C      1  0.5488370000000  0.5641020000000  0.4352140000000 1.0
C      1  0.5324490000000  0.4488180000000  0.4630000000000 1.0
C      1  0.5709130000000  0.4573050000000  0.4229580000000 1.0
C      1  0.4739700000000  0.5132550000000  0.4373250000000 1.0
C      1  0.5382590000000  0.5833990000000  0.5069620000000 1.0
C      1  0.5464170000000  0.5392900000000  0.4841400000000 1.0
C      1  0.4397170000000  0.5057200000000  0.5167390000000 1.0
C      1  0.5559260000000  0.5924080000000  0.4811880000000 1.0
C      1  0.4347850000000  0.5502700000000  0.4738190000000 1.0
C      1  0.5970750000000  0.4972140000000  0.5143660000000 1.0
C      1  0.5612480000000  0.5511740000000  0.5123510000000 1.0
C      1  0.5749730000000  0.4346540000000  0.5504070000000 1.0
C      1  0.4799880000000  0.4683030000000  0.4617500000000 1.0
C      1  0.5369300000000  0.5024540000000  0.4726040000000 1.0
C      1  0.5182600000000  0.4154940000000  0.5531010000000 1.0
C      1  0.4744010000000  0.5879490000000  0.5605870000000 1.0
C      1  0.4151310000000  0.5963230000000  0.4754730000000 1.0
C      1  0.4973810000000  0.5288270000000  0.4324460000000 1.0
C      1  0.5218410000000  0.4031010000000  0.4462890000000 1.0
C      1  0.5007880000000  0.4907630000000  0.4842360000000 1.0
C      1  0.4124990000000  0.5176360000000  0.4662810000000 1.0
C      1  0.5309780000000  0.5115550000000  0.5564350000000 1.0
C      1  0.4493060000000  0.5668610000000  0.5703760000000 1.0
C      1  0.4514850000000  0.4230550000000  0.4976220000000 1.0
C      1  0.5450890000000  0.4112750000000  0.5178970000000 1.0
C      1  0.4532660000000  0.4385720000000  0.4608500000000 1.0
C      1  0.4653440000000  0.5600600000000  0.4711450000000 1.0
C      1  0.4111230000000  0.4926890000000  0.5650480000000 1.0
C      1  0.4253570000000  0.5039360000000  0.4378400000000 1.0
C      1  0.4718640000000  0.5799250000000  0.4458440000000 1.0
C      1  0.4100660000000  0.4981510000000  0.5095300000000 1.0
C      1  0.4456670000000  0.4592250000000  0.5518440000000 1.0
C      1  0.5174540000000  0.5992760000000  0.4735870000000 1.0
C      1  0.5274740000000  0.5416810000000  0.5446810000000 1.0
C      1  0.4485150000000  0.5197990000000  0.4216180000000 1.0
C      1  0.4460800000000  0.5633090000000  0.5386510000000 1.0
C      1  0.5164470000000  0.4624150000000  0.4882330000000 1.0
C      1  0.5356030000000  0.6186490000000  0.4888180000000 1.0
C      1  0.5040290000000  0.3727160000000  0.5050300000000 1.0
C      1  0.4862640000000  0.5610550000000  0.5779840000000 1.0
C      1  0.5001890000000  0.5469240000000  0.4047950000000 1.0
C      1  0.4672600000000  0.4097530000000  0.4109410000000 1.0
C      1  0.5238230000000  0.4804850000000  0.5864050000000 1.0
C      1  0.4597900000000  0.4861870000000  0.5618790000000 1.0
C      1  0.4311060000000  0.5852120000000  0.5223030000000 1.0
C      1  0.4939660000000  0.4119510000000  0.5294200000000 1.0
C      1  0.5430390000000  0.3899590000000  0.4694630000000 1.0
C      1  0.4237460000000  0.4362610000000  0.4825620000000 1.0
C      1  0.4929090000000  0.4778540000000  0.4094670000000 1.0
C      1  0.4520630000000  0.4691990000000  0.4764360000000 1.0
C      1  0.4165680000000  0.4713890000000  0.5470670000000 1.0
C      1  0.4988710000000  0.5736510000000  0.4341010000000 1.0
C      1  0.5281800000000  0.5187640000000  0.4373340000000 1.0
C      1  0.5318170000000  0.4233750000000  0.5992820000000 1.0
C      1  0.5001550000000  0.5173540000000  0.5607650000000 1.0
C      1  0.5254020000000  0.5954440000000  0.5361340000000 1.0
C      1  0.5933770000000  0.4962170000000  0.4409410000000 1.0
C      1  0.5233080000000  0.5668240000000  0.5644410000000 1.0
C      1  0.4736020000000  0.4394540000000  0.4264610000000 1.0
C      1  0.5782230000000  0.5259520000000  0.4452660000000 1.0
C      1  0.4047110000000  0.4666850000000  0.5184030000000 1.0
C      1  0.5020770000000  0.4450400000000  0.5083550000000 1.0
C      1  0.4502830000000  0.4594870000000  0.4357470000000 1.0
C      1  0.4801830000000  0.4270080000000  0.5510260000000 1.0
C      1  0.5659760000000  0.5725280000000  0.4620880000000 1.0
C      1  0.5247070000000  0.4158730000000  0.4840630000000 1.0
C      1  0.5000630000000  0.5672290000000  0.5316520000000 1.0
C      1  0.4193180000000  0.4395530000000  0.5143100000000 1.0
END
