TITL C-2778425-5191-1152 -0.00484187408478319 125000 -876.675863129988 0 0 151 (C1) n - 1
REM
REM in /home/nfs/bkarasulu/CARBON/AIRSS/Generating-Clusters/REBO/Only-C1/SD-CG/HFTN-CG
REM
REM
REM
REM
REM
REM ./C.cell (11c1c37f851c82e70ff6c80c92926a4b)
REM
REM compiler GCC version 9.2.1 20190827 (Red Hat 9.2.1-1)
REM options -cpp -mtune=generic -march=x86-64 -g -O0 -fpre-include=/usr/include/finclude/math-vector-fortran.h
REM seed -1017611311 383265476 1253871068 1232509280 14772184 -357141455 -1950699262 516590561 1761968241 -2112869075 1988625669 -283512274 1214606129 553328817 -7353758 1691937480 -1139892925 -1451944328 690107387 1128173819 -1734088125 545796885 1923560092 327890448 -273738675 -1637887670 -1893377289 1384475301 -916983219 -96086486 1396482678 515288091 -1022805803
REM
CELL 1.54180   50.00000   50.00000   50.00000   90.00000   90.00000   90.00000
LATT -1
SFAC C  
C      1  0.5118690000000  0.4877310000000  0.5293770000000 1.0
C      1  0.4170130000000  0.4562250000000  0.4584680000000 1.0
C      1  0.6122080000000  0.5201880000000  0.5018910000000 1.0
C      1  0.5552900000000  0.3974130000000  0.4148100000000 1.0
C      1  0.4435640000000  0.4301580000000  0.5349750000000 1.0
C      1  0.5460860000000  0.5811020000000  0.4832160000000 1.0
C      1  0.4171920000000  0.5051120000000  0.5682180000000 1.0
C      1  0.5067700000000  0.5489090000000  0.5839210000000 1.0
C      1  0.5010420000000  0.5214950000000  0.5528510000000 1.0
C      1  0.5598640000000  0.4215890000000  0.4549750000000 1.0
C      1  0.4372630000000  0.4615620000000  0.4246630000000 1.0
C      1  0.4656290000000  0.5143990000000  0.5954530000000 1.0
C      1  0.4756980000000  0.5844320000000  0.5260370000000 1.0
C      1  0.4790560000000  0.5874900000000  0.4266190000000 1.0
C      1  0.4946560000000  0.5786690000000  0.4782320000000 1.0
C      1  0.4439910000000  0.4401060000000  0.4949740000000 1.0
C      1  0.5267900000000  0.3880300000000  0.4506620000000 1.0
C      1  0.4919640000000  0.4317320000000  0.5520610000000 1.0
C      1  0.4795460000000  0.4447080000000  0.4093470000000 1.0
C      1  0.4211640000000  0.4762430000000  0.5508000000000 1.0
C      1  0.4750000000000  0.4724840000000  0.4819630000000 1.0
C      1  0.5075760000000  0.4921130000000  0.4501640000000 1.0
C      1  0.5438910000000  0.5145910000000  0.6017300000000 1.0
C      1  0.4692180000000  0.4549610000000  0.5055160000000 1.0
C      1  0.4430540000000  0.5352460000000  0.4426720000000 1.0
C      1  0.5073460000000  0.5751820000000  0.4311120000000 1.0
C      1  0.4857480000000  0.5078140000000  0.4638420000000 1.0
C      1  0.5411110000000  0.4085420000000  0.4371310000000 1.0
C      1  0.5388460000000  0.5371550000000  0.5811930000000 1.0
C      1  0.5834320000000  0.4596910000000  0.5362640000000 1.0
C      1  0.4938990000000  0.3952660000000  0.4709880000000 1.0
C      1  0.5147600000000  0.5929120000000  0.5246770000000 1.0
C      1  0.5048480000000  0.6057230000000  0.4949810000000 1.0
C      1  0.4401770000000  0.5624200000000  0.4582550000000 1.0
C      1  0.5423660000000  0.5810100000000  0.5290900000000 1.0
C      1  0.5235320000000  0.5133490000000  0.3984980000000 1.0
C      1  0.4393800000000  0.5288300000000  0.5790490000000 1.0
C      1  0.4577250000000  0.5013410000000  0.4821070000000 1.0
C      1  0.5503850000000  0.5004170000000  0.4069470000000 1.0
C      1  0.4312700000000  0.5830040000000  0.5045910000000 1.0
C      1  0.4363460000000  0.5470320000000  0.5427240000000 1.0
C      1  0.5718830000000  0.5177690000000  0.4859400000000 1.0
C      1  0.5490610000000  0.4955290000000  0.4921090000000 1.0
C      1  0.5209020000000  0.5979370000000  0.4478080000000 1.0
C      1  0.5248640000000  0.5377120000000  0.4623540000000 1.0
C      1  0.5322800000000  0.4754690000000  0.4060880000000 1.0
C      1  0.5485140000000  0.5399620000000  0.4424000000000 1.0
C      1  0.4712810000000  0.5384110000000  0.4849880000000 1.0
C      1  0.4802140000000  0.4330410000000  0.5806460000000 1.0
C      1  0.5222210000000  0.5155410000000  0.4860780000000 1.0
C      1  0.5180300000000  0.4141770000000  0.5498630000000 1.0
C      1  0.4919670000000  0.5174570000000  0.4961050000000 1.0
C      1  0.4582850000000  0.5059420000000  0.5325780000000 1.0
C      1  0.5080620000000  0.4985270000000  0.6008240000000 1.0
C      1  0.5301190000000  0.5552110000000  0.4206550000000 1.0
C      1  0.4257610000000  0.5682570000000  0.4810580000000 1.0
C      1  0.4492060000000  0.4219040000000  0.4707190000000 1.0
C      1  0.4364630000000  0.4358860000000  0.4471570000000 1.0
C      1  0.5003150000000  0.5452200000000  0.4452730000000 1.0
C      1  0.4573310000000  0.5981900000000  0.5047880000000 1.0
C      1  0.5349880000000  0.4252680000000  0.5774980000000 1.0
C      1  0.5157110000000  0.4646210000000  0.4672760000000 1.0
C      1  0.4838900000000  0.5527010000000  0.5240920000000 1.0
C      1  0.5967960000000  0.4967040000000  0.4887610000000 1.0
C      1  0.5398710000000  0.4928540000000  0.4533750000000 1.0
C      1  0.4267210000000  0.4992450000000  0.5290720000000 1.0
C      1  0.4541950000000  0.5566890000000  0.5680220000000 1.0
C      1  0.5885700000000  0.5076750000000  0.4437780000000 1.0
C      1  0.5543780000000  0.5138980000000  0.5396430000000 1.0
C      1  0.5130300000000  0.4961330000000  0.5683610000000 1.0
C      1  0.4224440000000  0.4856970000000  0.4268290000000 1.0
C      1  0.5956850000000  0.5414630000000  0.5077950000000 1.0
C      1  0.5068620000000  0.5671100000000  0.5051780000000 1.0
C      1  0.4432240000000  0.5781530000000  0.5361510000000 1.0
C      1  0.5494980000000  0.4272520000000  0.5476190000000 1.0
C      1  0.5666660000000  0.4461720000000  0.4835570000000 1.0
C      1  0.5921240000000  0.4653130000000  0.4760920000000 1.0
C      1  0.4949700000000  0.4369900000000  0.4318850000000 1.0
C      1  0.5790630000000  0.5365590000000  0.5336970000000 1.0
C      1  0.4726670000000  0.5260220000000  0.4399070000000 1.0
C      1  0.4699350000000  0.5981970000000  0.4044860000000 1.0
C      1  0.5924130000000  0.5110330000000  0.5512030000000 1.0
C      1  0.5518530000000  0.4603570000000  0.5434070000000 1.0
C      1  0.4842140000000  0.4829990000000  0.5574650000000 1.0
C      1  0.5192760000000  0.4494170000000  0.4937680000000 1.0
C      1  0.5105790000000  0.4122580000000  0.4838470000000 1.0
C      1  0.5436360000000  0.4129390000000  0.5191780000000 1.0
C      1  0.5406760000000  0.4257680000000  0.4896990000000 1.0
C      1  0.4882800000000  0.4548970000000  0.4555030000000 1.0
C      1  0.4361530000000  0.4787140000000  0.4711130000000 1.0
C      1  0.4883780000000  0.5097080000000  0.5250450000000 1.0
C      1  0.4671290000000  0.4841310000000  0.5839260000000 1.0
C      1  0.5320210000000  0.5541630000000  0.4894170000000 1.0
C      1  0.4139130000000  0.5274830000000  0.5369230000000 1.0
C      1  0.4739800000000  0.6039550000000  0.4798130000000 1.0
C      1  0.4755700000000  0.4951840000000  0.4261060000000 1.0
C      1  0.4588240000000  0.5365320000000  0.5227690000000 1.0
C      1  0.4783690000000  0.5357610000000  0.5739500000000 1.0
C      1  0.4825950000000  0.3968480000000  0.5092630000000 1.0
C      1  0.4433330000000  0.5276780000000  0.4946370000000 1.0
C      1  0.5277730000000  0.5140040000000  0.5200700000000 1.0
C      1  0.5134240000000  0.5278710000000  0.6094060000000 1.0
C      1  0.4732650000000  0.4227970000000  0.5287620000000 1.0
C      1  0.4281430000000  0.5176370000000  0.4174350000000 1.0
C      1  0.5738750000000  0.5800060000000  0.4845620000000 1.0
C      1  0.4206350000000  0.4280080000000  0.5153590000000 1.0
C      1  0.5508010000000  0.5347690000000  0.5057400000000 1.0
C      1  0.4133530000000  0.5281660000000  0.4919740000000 1.0
C      1  0.5863300000000  0.5549030000000  0.4843700000000 1.0
C      1  0.5279650000000  0.6003680000000  0.4738750000000 1.0
C      1  0.5854680000000  0.4737040000000  0.5078070000000 1.0
C      1  0.5245930000000  0.4660850000000  0.5148980000000 1.0
C      1  0.4669820000000  0.4671490000000  0.5349120000000 1.0
C      1  0.5237130000000  0.5411500000000  0.3981880000000 1.0
C      1  0.5059770000000  0.4921360000000  0.4174980000000 1.0
C      1  0.4635760000000  0.4772980000000  0.4508370000000 1.0
C      1  0.5299870000000  0.4572290000000  0.5648510000000 1.0
C      1  0.4939640000000  0.5942170000000  0.5515690000000 1.0
C      1  0.5682290000000  0.4368700000000  0.5156950000000 1.0
C      1  0.4626130000000  0.5872510000000  0.5630040000000 1.0
C      1  0.5004450000000  0.5612730000000  0.5526420000000 1.0
C      1  0.4980610000000  0.4454920000000  0.6049180000000 1.0
C      1  0.5478310000000  0.4697550000000  0.4745130000000 1.0
C      1  0.5046260000000  0.4604370000000  0.5489360000000 1.0
C      1  0.4418900000000  0.4566530000000  0.5474910000000 1.0
C      1  0.5219140000000  0.4298730000000  0.4263870000000 1.0
C      1  0.5492330000000  0.5530040000000  0.5332400000000 1.0
C      1  0.3967360000000  0.4735840000000  0.4750530000000 1.0
C      1  0.4792220000000  0.5568470000000  0.4645040000000 1.0
C      1  0.5373100000000  0.4815490000000  0.5962080000000 1.0
C      1  0.5267850000000  0.4508300000000  0.5973330000000 1.0
C      1  0.4495530000000  0.5018420000000  0.5617630000000 1.0
C      1  0.4656370000000  0.3992270000000  0.4798080000000 1.0
C      1  0.5343340000000  0.4481950000000  0.4089400000000 1.0
C      1  0.5996110000000  0.4838020000000  0.4510610000000 1.0
C      1  0.4639880000000  0.5845090000000  0.4534970000000 1.0
C      1  0.4058260000000  0.5045900000000  0.4737880000000 1.0
C      1  0.5127900000000  0.3984040000000  0.5211650000000 1.0
C      1  0.5468610000000  0.4932850000000  0.5656480000000 1.0
C      1  0.4697790000000  0.4584620000000  0.5978080000000 1.0
C      1  0.4199530000000  0.5107550000000  0.4490960000000 1.0
C      1  0.4625060000000  0.4669170000000  0.4124550000000 1.0
C      1  0.3995100000000  0.5349370000000  0.5143900000000 1.0
C      1  0.4150560000000  0.4567990000000  0.4982670000000 1.0
C      1  0.5767400000000  0.5352730000000  0.4591760000000 1.0
C      1  0.5575360000000  0.4865520000000  0.5223900000000 1.0
C      1  0.4221790000000  0.4897610000000  0.5005360000000 1.0
C      1  0.5785450000000  0.4868620000000  0.5563410000000 1.0
C      1  0.5281750000000  0.5418030000000  0.5512410000000 1.0
C      1  0.4929990000000  0.4343370000000  0.5029690000000 1.0
C      1  0.5578950000000  0.5097160000000  0.4350360000000 1.0
END
