TITL C-2778426-5645-1462 0.00577437980346268 125000 -258.008367358356 0 0 45 (C1) n - 1
REM
REM in /home/nfs/bkarasulu/CARBON/AIRSS/Generating-Clusters/REBO/Only-C1/SD-CG/HFTN-CG
REM
REM
REM
REM
REM
REM ./C.cell (11c1c37f851c82e70ff6c80c92926a4b)
REM
REM compiler GCC version 9.2.1 20190827 (Red Hat 9.2.1-1)
REM options -cpp -mtune=generic -march=x86-64 -g -O0 -fpre-include=/usr/include/finclude/math-vector-fortran.h
REM seed 558053121 2114795192 1491626867 -193667999 -202375067 -322573674 1211176247 -429182208 -916379377 112978035 -704192 -897278040 1090445075 -1734691206 -1350861956 -1301112400 -2085972494 -1410608149 2072701106 -746786927 1519982212 1266205128 -1632518451 -1274869574 2093031128 -70108044 -457003747 -33005341 1292043446 -1312618744 -410000690 -1846197605 1821895257
REM
CELL 1.54180   50.00000   50.00000   50.00000   90.00000   90.00000   90.00000
LATT -1
SFAC C  
C      1  0.5444950000000  0.5449690000000  0.5230140000000 1.0
C      1  0.5366840000000  0.5232070000000  0.5059710000000 1.0
C      1  0.4451670000000  0.5115090000000  0.5270920000000 1.0
C      1  0.5147160000000  0.5463470000000  0.4677820000000 1.0
C      1  0.5451120000000  0.4642960000000  0.4524520000000 1.0
C      1  0.5131640000000  0.5725460000000  0.4607820000000 1.0
C      1  0.4823480000000  0.5458410000000  0.5064490000000 1.0
C      1  0.5007240000000  0.4394670000000  0.4291460000000 1.0
C      1  0.5542930000000  0.4779910000000  0.5530780000000 1.0
C      1  0.5550240000000  0.5371720000000  0.5506370000000 1.0
C      1  0.4512120000000  0.4621780000000  0.4421220000000 1.0
C      1  0.5232640000000  0.5589250000000  0.5398360000000 1.0
C      1  0.4744750000000  0.4471260000000  0.4416440000000 1.0
C      1  0.4413330000000  0.4708140000000  0.5563800000000 1.0
C      1  0.5179650000000  0.5453840000000  0.5637670000000 1.0
C      1  0.5367550000000  0.5291430000000  0.4589590000000 1.0
C      1  0.5710660000000  0.4729690000000  0.5738610000000 1.0
C      1  0.4988500000000  0.4667480000000  0.5279050000000 1.0
C      1  0.3798030000000  0.5412270000000  0.5075990000000 1.0
C      1  0.4021530000000  0.5275880000000  0.5064820000000 1.0
C      1  0.4949200000000  0.5010680000000  0.4843820000000 1.0
C      1  0.4695420000000  0.4699350000000  0.5140680000000 1.0
C      1  0.5322690000000  0.5155030000000  0.4343210000000 1.0
C      1  0.5118560000000  0.4825240000000  0.4651480000000 1.0
C      1  0.5123150000000  0.5091050000000  0.5122970000000 1.0
C      1  0.5432000000000  0.4644980000000  0.5042120000000 1.0
C      1  0.5236610000000  0.4495930000000  0.4457680000000 1.0
C      1  0.5163080000000  0.4932010000000  0.4361330000000 1.0
C      1  0.5192560000000  0.4506150000000  0.5099910000000 1.0
C      1  0.5594630000000  0.4694650000000  0.5265170000000 1.0
C      1  0.4961410000000  0.4542150000000  0.4658840000000 1.0
C      1  0.4907430000000  0.4507550000000  0.4953080000000 1.0
C      1  0.4961250000000  0.5333910000000  0.4850920000000 1.0
C      1  0.4358930000000  0.4984240000000  0.4843620000000 1.0
C      1  0.4257920000000  0.5131630000000  0.5053020000000 1.0
C      1  0.4476610000000  0.4811950000000  0.4616090000000 1.0
C      1  0.5308220000000  0.4947440000000  0.5559350000000 1.0
C      1  0.4842880000000  0.5727790000000  0.5102480000000 1.0
C      1  0.5425060000000  0.4820430000000  0.4789380000000 1.0
C      1  0.5108280000000  0.4923540000000  0.5350650000000 1.0
C      1  0.5352940000000  0.5208670000000  0.5672140000000 1.0
C      1  0.4513300000000  0.4838630000000  0.5342380000000 1.0
C      1  0.5467660000000  0.5132740000000  0.4809820000000 1.0
C      1  0.4664910000000  0.5300770000000  0.5239130000000 1.0
C      1  0.4679290000000  0.4879030000000  0.4881120000000 1.0
END
