TITL C-2778436-5916-1211 -0.00152975537270154 125000 -508.794183523514 0 0 89 (C1) n - 1
REM
REM in /home/nfs/bkarasulu/CARBON/AIRSS/Generating-Clusters/REBO/Only-C1/SD-CG/HFTN-CG
REM
REM
REM
REM
REM
REM ./C.cell (11c1c37f851c82e70ff6c80c92926a4b)
REM
REM compiler GCC version 9.2.1 20190827 (Red Hat 9.2.1-1)
REM options -cpp -mtune=generic -march=x86-64 -g -O0 -fpre-include=/usr/include/finclude/math-vector-fortran.h
REM seed 1703292839 1162695585 1813987409 -1154548177 1195016485 -124955164 1882304174 183215293 1955884997 182368775 2019683217 1148374710 -1465287439 -1709475989 724299981 1884369344 1659050610 197368678 -1460352139 754150268 1759120797 -1341527668 -1948898754 -21461883 294046720 -1164520091 -1939095992 -588088815 -1940406775 -2147345787 -1917830962 -893465189 349771809
REM
CELL 1.54180   50.00000   50.00000   50.00000   90.00000   90.00000   90.00000
LATT -1
SFAC C  
C      1  0.4543270000000  0.5446040000000  0.4485360000000 1.0
C      1  0.4266760000000  0.4531060000000  0.4800020000000 1.0
C      1  0.5504110000000  0.5103360000000  0.4925870000000 1.0
C      1  0.5620210000000  0.4449140000000  0.5447520000000 1.0
C      1  0.5652090000000  0.4793290000000  0.4738570000000 1.0
C      1  0.4802370000000  0.5364040000000  0.5336930000000 1.0
C      1  0.4725320000000  0.4455910000000  0.5725260000000 1.0
C      1  0.4988220000000  0.4375730000000  0.4424370000000 1.0
C      1  0.5417130000000  0.4318180000000  0.5040030000000 1.0
C      1  0.5344550000000  0.5142070000000  0.4305880000000 1.0
C      1  0.4765490000000  0.4163750000000  0.4804880000000 1.0
C      1  0.5088630000000  0.4955550000000  0.4299620000000 1.0
C      1  0.4880040000000  0.4727420000000  0.4581070000000 1.0
C      1  0.5158750000000  0.4877040000000  0.4623900000000 1.0
C      1  0.4530200000000  0.4749380000000  0.5244750000000 1.0
C      1  0.4540860000000  0.4888050000000  0.4444440000000 1.0
C      1  0.5719660000000  0.5573450000000  0.4902150000000 1.0
C      1  0.4529850000000  0.4602630000000  0.5872710000000 1.0
C      1  0.4643610000000  0.4309270000000  0.5073760000000 1.0
C      1  0.5320930000000  0.6592960000000  0.4330360000000 1.0
C      1  0.5039760000000  0.4225940000000  0.5402190000000 1.0
C      1  0.4192910000000  0.4523670000000  0.5105280000000 1.0
C      1  0.5099220000000  0.5132660000000  0.4805010000000 1.0
C      1  0.5185390000000  0.4582490000000  0.4791650000000 1.0
C      1  0.5592050000000  0.4921420000000  0.5371180000000 1.0
C      1  0.5738660000000  0.5177150000000  0.5240140000000 1.0
C      1  0.5222670000000  0.6373220000000  0.4434030000000 1.0
C      1  0.4524970000000  0.5122520000000  0.5007510000000 1.0
C      1  0.4475530000000  0.5097100000000  0.5645690000000 1.0
C      1  0.5292200000000  0.4529490000000  0.4410170000000 1.0
C      1  0.5122830000000  0.6149940000000  0.4539360000000 1.0
C      1  0.5009680000000  0.4393490000000  0.5640810000000 1.0
C      1  0.4744330000000  0.4345550000000  0.4571910000000 1.0
C      1  0.4308490000000  0.4887610000000  0.5441810000000 1.0
C      1  0.4825870000000  0.5688810000000  0.5359720000000 1.0
C      1  0.5328050000000  0.4895840000000  0.5071770000000 1.0
C      1  0.4657410000000  0.4505750000000  0.5419680000000 1.0
C      1  0.5965200000000  0.5197510000000  0.5076130000000 1.0
C      1  0.4995530000000  0.4969930000000  0.5063200000000 1.0
C      1  0.4841400000000  0.5819190000000  0.4885660000000 1.0
C      1  0.4901100000000  0.4107240000000  0.5115310000000 1.0
C      1  0.5704000000000  0.5107680000000  0.4668090000000 1.0
C      1  0.4886190000000  0.4729120000000  0.5466250000000 1.0
C      1  0.4782800000000  0.4697620000000  0.4306930000000 1.0
C      1  0.5098780000000  0.5269300000000  0.5306380000000 1.0
C      1  0.4675120000000  0.5735600000000  0.5094120000000 1.0
C      1  0.5021260000000  0.5922790000000  0.4646530000000 1.0
C      1  0.5114530000000  0.5628940000000  0.4896810000000 1.0
C      1  0.5074510000000  0.4793050000000  0.4069190000000 1.0
C      1  0.4587420000000  0.5340110000000  0.4782850000000 1.0
C      1  0.5556740000000  0.5771210000000  0.5059930000000 1.0
C      1  0.4478700000000  0.5543990000000  0.5033560000000 1.0
C      1  0.4750610000000  0.5087630000000  0.5187270000000 1.0
C      1  0.4762150000000  0.4683810000000  0.4829300000000 1.0
C      1  0.4377380000000  0.4800950000000  0.5764390000000 1.0
C      1  0.5527190000000  0.5373590000000  0.5084390000000 1.0
C      1  0.4876120000000  0.5289440000000  0.4641850000000 1.0
C      1  0.5163080000000  0.5652430000000  0.5401040000000 1.0
C      1  0.4662720000000  0.5361220000000  0.5646340000000 1.0
C      1  0.5879970000000  0.5323040000000  0.4827250000000 1.0
C      1  0.5298140000000  0.5722720000000  0.5135000000000 1.0
C      1  0.5494420000000  0.4675650000000  0.5544380000000 1.0
C      1  0.5117330000000  0.4714090000000  0.5235700000000 1.0
C      1  0.4245350000000  0.5321930000000  0.4980820000000 1.0
C      1  0.5633050000000  0.4453800000000  0.5160210000000 1.0
C      1  0.5207640000000  0.5347470000000  0.5027910000000 1.0
C      1  0.5495110000000  0.4666140000000  0.4552950000000 1.0
C      1  0.5187670000000  0.4684040000000  0.5624900000000 1.0
C      1  0.4925740000000  0.4480650000000  0.4979830000000 1.0
C      1  0.4397190000000  0.4374480000000  0.5244530000000 1.0
C      1  0.5516800000000  0.5192000000000  0.5562930000000 1.0
C      1  0.4294190000000  0.4832840000000  0.4656160000000 1.0
C      1  0.4766220000000  0.5004510000000  0.5503840000000 1.0
C      1  0.4517210000000  0.4705680000000  0.4959940000000 1.0
C      1  0.5630630000000  0.4753930000000  0.5071070000000 1.0
C      1  0.4743620000000  0.5562080000000  0.4381610000000 1.0
C      1  0.5315380000000  0.5375540000000  0.5526850000000 1.0
C      1  0.4144290000000  0.4806420000000  0.5174030000000 1.0
C      1  0.4233450000000  0.4985600000000  0.4931840000000 1.0
C      1  0.5266040000000  0.4208210000000  0.4491420000000 1.0
C      1  0.4950320000000  0.5554240000000  0.5651320000000 1.0
C      1  0.4995130000000  0.5601260000000  0.4579390000000 1.0
C      1  0.5561520000000  0.5188750000000  0.4411490000000 1.0
C      1  0.4968690000000  0.5215960000000  0.5679660000000 1.0
C      1  0.5165310000000  0.5006700000000  0.5517090000000 1.0
C      1  0.5163070000000  0.4401230000000  0.5176530000000 1.0
C      1  0.4499670000000  0.4564140000000  0.4554420000000 1.0
C      1  0.5367740000000  0.4340700000000  0.4753230000000 1.0
C      1  0.4814480000000  0.5082880000000  0.4412810000000 1.0
END
