TITL C-2778425-5191-855 0.00166804856338893 125000 -708.288188176379 0 0 122 (C1) n - 1
REM
REM in /home/nfs/bkarasulu/CARBON/AIRSS/Generating-Clusters/REBO/Only-C1/SD-CG/HFTN-CG
REM
REM
REM
REM
REM
REM ./C.cell (11c1c37f851c82e70ff6c80c92926a4b)
REM
REM compiler GCC version 9.2.1 20190827 (Red Hat 9.2.1-1)
REM options -cpp -mtune=generic -march=x86-64 -g -O0 -fpre-include=/usr/include/finclude/math-vector-fortran.h
REM seed -496966181 -1970266277 2016099132 -877137256 581233901 1548399659 -885085796 1191149891 2115967615 856426539 -1638548522 483728590 -208583574 -234113837 203631726 135486026 257984816 -321308245 -658918301 -1196527783 1246483831 -97403662 -1245899841 364775071 -887386851 -911804372 1002059527 1178007727 1288876023 1101940321 949859344 -1367723817 1914166030
REM
CELL 1.54180   50.00000   50.00000   50.00000   90.00000   90.00000   90.00000
LATT -1
SFAC C  
C      1  0.4453950000000  0.4106210000000  0.4774040000000 1.0
C      1  0.5657180000000  0.4935490000000  0.5482900000000 1.0
C      1  0.5683080000000  0.5515950000000  0.4629370000000 1.0
C      1  0.4571050000000  0.5032720000000  0.4586180000000 1.0
C      1  0.4992430000000  0.5158520000000  0.5098120000000 1.0
C      1  0.5783770000000  0.4958810000000  0.4529270000000 1.0
C      1  0.5245150000000  0.5012040000000  0.4466340000000 1.0
C      1  0.5407420000000  0.5381260000000  0.5042310000000 1.0
C      1  0.5370600000000  0.4625170000000  0.5071780000000 1.0
C      1  0.4764290000000  0.4636120000000  0.4349960000000 1.0
C      1  0.5642500000000  0.4724610000000  0.5212940000000 1.0
C      1  0.4942390000000  0.4193330000000  0.4520250000000 1.0
C      1  0.4928470000000  0.5173550000000  0.5972640000000 1.0
C      1  0.5638730000000  0.5221180000000  0.5623820000000 1.0
C      1  0.5174760000000  0.4902840000000  0.5047630000000 1.0
C      1  0.4468350000000  0.4803350000000  0.4368690000000 1.0
C      1  0.4805160000000  0.4425840000000  0.5729990000000 1.0
C      1  0.4704620000000  0.4323470000000  0.4411210000000 1.0
C      1  0.5580770000000  0.4255130000000  0.5168600000000 1.0
C      1  0.4649940000000  0.3844980000000  0.5435200000000 1.0
C      1  0.4143730000000  0.5162100000000  0.4610300000000 1.0
C      1  0.4297560000000  0.4468100000000  0.5112410000000 1.0
C      1  0.4423410000000  0.5016150000000  0.4135260000000 1.0
C      1  0.5594010000000  0.4233470000000  0.4681570000000 1.0
C      1  0.4916040000000  0.5438510000000  0.4695860000000 1.0
C      1  0.5525180000000  0.5705550000000  0.5449630000000 1.0
C      1  0.4974340000000  0.5825600000000  0.4619900000000 1.0
C      1  0.5034590000000  0.5824490000000  0.5589350000000 1.0
C      1  0.4826690000000  0.4783230000000  0.5789120000000 1.0
C      1  0.4469770000000  0.5057520000000  0.5397640000000 1.0
C      1  0.4263250000000  0.5456840000000  0.5081310000000 1.0
C      1  0.5243310000000  0.4559370000000  0.4760580000000 1.0
C      1  0.4648470000000  0.4044970000000  0.5275430000000 1.0
C      1  0.5058770000000  0.5858210000000  0.5091530000000 1.0
C      1  0.4598750000000  0.5183210000000  0.5043370000000 1.0
C      1  0.4949930000000  0.4201240000000  0.5587390000000 1.0
C      1  0.5459500000000  0.4349990000000  0.5409810000000 1.0
C      1  0.4975420000000  0.4655560000000  0.5068410000000 1.0
C      1  0.5027520000000  0.4566370000000  0.5921210000000 1.0
C      1  0.4484880000000  0.5225710000000  0.5888310000000 1.0
C      1  0.5067160000000  0.5555020000000  0.4937790000000 1.0
C      1  0.5115810000000  0.5564500000000  0.5742790000000 1.0
C      1  0.5322570000000  0.4878110000000  0.5438200000000 1.0
C      1  0.5321630000000  0.5861580000000  0.4940740000000 1.0
C      1  0.5781710000000  0.5660680000000  0.4862620000000 1.0
C      1  0.4387740000000  0.5650040000000  0.5566310000000 1.0
C      1  0.5385480000000  0.4845670000000  0.3964380000000 1.0
C      1  0.5079430000000  0.4560490000000  0.4460010000000 1.0
C      1  0.4352850000000  0.5340260000000  0.5316560000000 1.0
C      1  0.5352650000000  0.4871280000000  0.4757360000000 1.0
C      1  0.5399870000000  0.5262380000000  0.4752980000000 1.0
C      1  0.4986450000000  0.4885020000000  0.4282890000000 1.0
C      1  0.4608970000000  0.4560490000000  0.5538890000000 1.0
C      1  0.5605360000000  0.4773280000000  0.4126910000000 1.0
C      1  0.4504540000000  0.5257630000000  0.4757150000000 1.0
C      1  0.5084370000000  0.5259630000000  0.4184640000000 1.0
C      1  0.4348700000000  0.5542650000000  0.4701890000000 1.0
C      1  0.4293830000000  0.5060830000000  0.5037820000000 1.0
C      1  0.5268790000000  0.5332440000000  0.4441100000000 1.0
C      1  0.4884800000000  0.5399060000000  0.5781950000000 1.0
C      1  0.4775240000000  0.5378520000000  0.4209540000000 1.0
C      1  0.4431480000000  0.4816990000000  0.5619750000000 1.0
C      1  0.4219380000000  0.4746410000000  0.4931850000000 1.0
C      1  0.4295970000000  0.4561440000000  0.5433720000000 1.0
C      1  0.5096350000000  0.4187580000000  0.5387320000000 1.0
C      1  0.4425870000000  0.5732280000000  0.4978480000000 1.0
C      1  0.5142280000000  0.4374250000000  0.5124950000000 1.0
C      1  0.5257430000000  0.5800500000000  0.4663580000000 1.0
C      1  0.5285710000000  0.4548320000000  0.5830750000000 1.0
C      1  0.4805880000000  0.4304480000000  0.5140130000000 1.0
C      1  0.5623240000000  0.4553610000000  0.4324460000000 1.0
C      1  0.4507270000000  0.5812330000000  0.5304540000000 1.0
C      1  0.4723500000000  0.4606860000000  0.5261890000000 1.0
C      1  0.5814150000000  0.5457030000000  0.5111010000000 1.0
C      1  0.5107300000000  0.5067430000000  0.5772140000000 1.0
C      1  0.5159650000000  0.5490550000000  0.5248350000000 1.0
C      1  0.5753760000000  0.4673080000000  0.4572420000000 1.0
C      1  0.4355060000000  0.4538800000000  0.4637660000000 1.0
C      1  0.5165030000000  0.4999450000000  0.4039890000000 1.0
C      1  0.5256490000000  0.5732300000000  0.5409290000000 1.0
C      1  0.5135440000000  0.5255580000000  0.5489950000000 1.0
C      1  0.6132930000000  0.5017120000000  0.5059350000000 1.0
C      1  0.4625280000000  0.4844650000000  0.5059950000000 1.0
C      1  0.5864880000000  0.5188990000000  0.4982690000000 1.0
C      1  0.5210190000000  0.4282310000000  0.4371660000000 1.0
C      1  0.5017710000000  0.4884570000000  0.4680520000000 1.0
C      1  0.5079030000000  0.5187440000000  0.4785030000000 1.0
C      1  0.5639920000000  0.5429130000000  0.5363710000000 1.0
C      1  0.5495420000000  0.4298360000000  0.4411010000000 1.0
C      1  0.5746270000000  0.4472930000000  0.4778000000000 1.0
C      1  0.4254890000000  0.4830680000000  0.5263050000000 1.0
C      1  0.4574010000000  0.4752480000000  0.4750880000000 1.0
C      1  0.4857130000000  0.4656190000000  0.4777830000000 1.0
C      1  0.4775690000000  0.5700780000000  0.5161970000000 1.0
C      1  0.5421570000000  0.5594420000000  0.4534080000000 1.0
C      1  0.4499310000000  0.5424590000000  0.5678650000000 1.0
C      1  0.4842760000000  0.5597710000000  0.4403750000000 1.0
C      1  0.5380090000000  0.5387730000000  0.5686550000000 1.0
C      1  0.4993810000000  0.4883770000000  0.5526600000000 1.0
C      1  0.4639130000000  0.5620000000000  0.4659440000000 1.0
C      1  0.5739970000000  0.4474370000000  0.5061770000000 1.0
C      1  0.4125390000000  0.5264990000000  0.4881270000000 1.0
C      1  0.4807710000000  0.5042810000000  0.5354870000000 1.0
C      1  0.5750790000000  0.4997890000000  0.4244960000000 1.0
C      1  0.4217780000000  0.4849340000000  0.4603980000000 1.0
C      1  0.4287870000000  0.5352000000000  0.4434830000000 1.0
C      1  0.4739090000000  0.5331730000000  0.5507870000000 1.0
C      1  0.4769000000000  0.5897650000000  0.5507560000000 1.0
C      1  0.5527880000000  0.5682620000000  0.5048850000000 1.0
C      1  0.4767920000000  0.5087050000000  0.4355530000000 1.0
C      1  0.4568470000000  0.4964530000000  0.5859780000000 1.0
C      1  0.4463930000000  0.4292160000000  0.4560990000000 1.0
C      1  0.4451800000000  0.5282190000000  0.4214620000000 1.0
C      1  0.5719640000000  0.5188230000000  0.4710960000000 1.0
C      1  0.5404440000000  0.5183130000000  0.5305360000000 1.0
C      1  0.4486680000000  0.4233370000000  0.5052420000000 1.0
C      1  0.5861100000000  0.4955830000000  0.5217850000000 1.0
C      1  0.5379900000000  0.4576380000000  0.5562690000000 1.0
C      1  0.4988420000000  0.4342170000000  0.4777480000000 1.0
C      1  0.4734150000000  0.5843510000000  0.4862820000000 1.0
C      1  0.5514520000000  0.4095180000000  0.4929870000000 1.0
C      1  0.4774610000000  0.5403410000000  0.5194670000000 1.0
END
