TITL C-2778429-3646-338 -0.00180294020553748 125000 -502.760651675102 0 0 86 (C1) n - 1
REM
REM in /home/nfs/bkarasulu/CARBON/AIRSS/Generating-Clusters/REBO/Only-C1/SD-CG/HFTN-CG
REM
REM
REM
REM
REM
REM ./C.cell (11c1c37f851c82e70ff6c80c92926a4b)
REM
REM compiler GCC version 9.2.1 20190827 (Red Hat 9.2.1-1)
REM options -cpp -mtune=generic -march=x86-64 -g -O0 -fpre-include=/usr/include/finclude/math-vector-fortran.h
REM seed 1419262831 224627896 1583287442 1234428827 746564467 159691862 387418005 -1017324072 9869135 2100957592 -725653858 -814190675 414377398 -317659268 -1659168072 -805726647 -527314834 514369988 -1372837357 -2061882476 1987666587 371491782 -494025876 866986116 -1329455680 1139660558 2105473270 1528775799 1015476284 -540767405 1142155019 1083152519 -1133133384
REM
CELL 1.54180   50.00000   50.00000   50.00000   90.00000   90.00000   90.00000
LATT -1
SFAC C  
C      1  0.5511040000000  0.4479660000000  0.4615340000000 1.0
C      1  0.4414870000000  0.5451850000000  0.4935340000000 1.0
C      1  0.4760190000000  0.4685150000000  0.5139310000000 1.0
C      1  0.4743680000000  0.4525510000000  0.5509420000000 1.0
C      1  0.4977880000000  0.4800740000000  0.5292070000000 1.0
C      1  0.4751380000000  0.4817960000000  0.5696580000000 1.0
C      1  0.4976400000000  0.5534330000000  0.4412290000000 1.0
C      1  0.5503700000000  0.5210860000000  0.5755310000000 1.0
C      1  0.4716830000000  0.5569990000000  0.4534190000000 1.0
C      1  0.5388400000000  0.4921240000000  0.5748120000000 1.0
C      1  0.4289330000000  0.5351330000000  0.4689700000000 1.0
C      1  0.4584700000000  0.5090370000000  0.4874610000000 1.0
C      1  0.5371980000000  0.5168760000000  0.4563390000000 1.0
C      1  0.5067090000000  0.4485020000000  0.4980860000000 1.0
C      1  0.5225940000000  0.5248090000000  0.5587880000000 1.0
C      1  0.5015650000000  0.6023710000000  0.5370710000000 1.0
C      1  0.5199100000000  0.4338690000000  0.4585020000000 1.0
C      1  0.5383280000000  0.5071060000000  0.5377840000000 1.0
C      1  0.5285780000000  0.4918650000000  0.4749090000000 1.0
C      1  0.5003820000000  0.6226500000000  0.5536300000000 1.0
C      1  0.4470320000000  0.5338750000000  0.5505880000000 1.0
C      1  0.5398200000000  0.5689800000000  0.4685860000000 1.0
C      1  0.5237940000000  0.4664450000000  0.4594270000000 1.0
C      1  0.4351060000000  0.4950300000000  0.5019670000000 1.0
C      1  0.4110770000000  0.5125790000000  0.4665370000000 1.0
C      1  0.4553920000000  0.5096590000000  0.5667950000000 1.0
C      1  0.4724800000000  0.5575370000000  0.4856730000000 1.0
C      1  0.4548240000000  0.4991500000000  0.5284660000000 1.0
C      1  0.4643350000000  0.4279490000000  0.4830590000000 1.0
C      1  0.4921570000000  0.4972130000000  0.4158310000000 1.0
C      1  0.4942350000000  0.5155360000000  0.5600680000000 1.0
C      1  0.5700210000000  0.4645210000000  0.5058350000000 1.0
C      1  0.4762440000000  0.5274600000000  0.5011810000000 1.0
C      1  0.4764730000000  0.4590250000000  0.4569330000000 1.0
C      1  0.5688900000000  0.5168820000000  0.5268130000000 1.0
C      1  0.4632600000000  0.5132100000000  0.4243610000000 1.0
C      1  0.4667660000000  0.5550540000000  0.5548890000000 1.0
C      1  0.4181410000000  0.4873930000000  0.4784790000000 1.0
C      1  0.5028120000000  0.5810030000000  0.5196230000000 1.0
C      1  0.4788310000000  0.5190530000000  0.5316040000000 1.0
C      1  0.5315800000000  0.4140790000000  0.5227220000000 1.0
C      1  0.4861420000000  0.4289270000000  0.4567780000000 1.0
C      1  0.4264150000000  0.4781480000000  0.5290530000000 1.0
C      1  0.4495330000000  0.5382010000000  0.4432620000000 1.0
C      1  0.5450760000000  0.5582990000000  0.5430610000000 1.0
C      1  0.5486830000000  0.4786870000000  0.5495180000000 1.0
C      1  0.5620800000000  0.5363140000000  0.5507210000000 1.0
C      1  0.5133570000000  0.4242670000000  0.5423460000000 1.0
C      1  0.5768700000000  0.4976020000000  0.5016950000000 1.0
C      1  0.4856060000000  0.4305900000000  0.5352540000000 1.0
C      1  0.5323480000000  0.5403430000000  0.4806210000000 1.0
C      1  0.5604510000000  0.4796170000000  0.4524240000000 1.0
C      1  0.5171880000000  0.5020080000000  0.5118220000000 1.0
C      1  0.4909390000000  0.5495600000000  0.5408500000000 1.0
C      1  0.5730850000000  0.4998340000000  0.4690650000000 1.0
C      1  0.4490450000000  0.4594830000000  0.5135480000000 1.0
C      1  0.5489910000000  0.4602050000000  0.5289350000000 1.0
C      1  0.4880240000000  0.5115330000000  0.4606470000000 1.0
C      1  0.5069420000000  0.5270450000000  0.4462180000000 1.0
C      1  0.4452570000000  0.4635630000000  0.4466990000000 1.0
C      1  0.5160450000000  0.5746000000000  0.4457820000000 1.0
C      1  0.5226540000000  0.4461060000000  0.5580400000000 1.0
C      1  0.5246520000000  0.4530610000000  0.5170710000000 1.0
C      1  0.4866110000000  0.4690890000000  0.4840770000000 1.0
C      1  0.4280820000000  0.4619510000000  0.4689770000000 1.0
C      1  0.4421980000000  0.4456790000000  0.4892180000000 1.0
C      1  0.4796110000000  0.4213070000000  0.5088680000000 1.0
C      1  0.5455200000000  0.4871740000000  0.4996210000000 1.0
C      1  0.4930380000000  0.5798290000000  0.4933070000000 1.0
C      1  0.5186400000000  0.5548600000000  0.5272460000000 1.0
C      1  0.5121110000000  0.5878060000000  0.4740660000000 1.0
C      1  0.5497540000000  0.4201020000000  0.5031380000000 1.0
C      1  0.5687590000000  0.5280290000000  0.4593690000000 1.0
C      1  0.5184740000000  0.4926180000000  0.4156110000000 1.0
C      1  0.5684350000000  0.5552970000000  0.4625120000000 1.0
C      1  0.5032500000000  0.4194030000000  0.4844830000000 1.0
C      1  0.5412400000000  0.4933370000000  0.4322690000000 1.0
C      1  0.4688550000000  0.4805300000000  0.4320000000000 1.0
C      1  0.4499710000000  0.4740190000000  0.5506650000000 1.0
C      1  0.5062290000000  0.4905420000000  0.5778880000000 1.0
C      1  0.5627280000000  0.4396920000000  0.4887780000000 1.0
C      1  0.4379840000000  0.5363670000000  0.5217590000000 1.0
C      1  0.4568940000000  0.5092940000000  0.4570560000000 1.0
C      1  0.5097890000000  0.4707320000000  0.5532980000000 1.0
C      1  0.5228980000000  0.5345820000000  0.5045610000000 1.0
C      1  0.4991760000000  0.4961920000000  0.4830510000000 1.0
END
