TITL C-2778430-5657-157 0.0011947972224133 125000 -730.051471294772 0 0 124 (C1) n - 1
REM
REM in /home/nfs/bkarasulu/CARBON/AIRSS/Generating-Clusters/REBO/Only-C1/SD-CG/HFTN-CG
REM
REM
REM
REM
REM
REM ./C.cell (11c1c37f851c82e70ff6c80c92926a4b)
REM
REM compiler GCC version 9.2.1 20190827 (Red Hat 9.2.1-1)
REM options -cpp -mtune=generic -march=x86-64 -g -O0 -fpre-include=/usr/include/finclude/math-vector-fortran.h
REM seed 1211428966 347994193 928761895 -605225532 -651108495 686827273 -269378132 1427392361 -187660771 1429043017 -357890159 1776887933 1977579330 1174986248 1553307032 556562213 -1131747925 -876025892 1712441534 -2107332765 -471366221 976154016 1451673430 -1141092530 -2140199609 2135013736 -1172115193 1412171254 1757574290 -1914663006 -1091316666 1241098196 926420615
REM
CELL 1.54180   50.00000   50.00000   50.00000   90.00000   90.00000   90.00000
LATT -1
SFAC C  
C      1  0.4223500000000  0.4746270000000  0.5037820000000 1.0
C      1  0.4229900000000  0.5282990000000  0.5503280000000 1.0
C      1  0.4782680000000  0.5491350000000  0.4062730000000 1.0
C      1  0.4349470000000  0.4634380000000  0.4318590000000 1.0
C      1  0.4442870000000  0.4444640000000  0.5180760000000 1.0
C      1  0.4837530000000  0.5969770000000  0.4447990000000 1.0
C      1  0.4035770000000  0.5485630000000  0.5494750000000 1.0
C      1  0.5151370000000  0.5078650000000  0.4685070000000 1.0
C      1  0.4774610000000  0.4236530000000  0.5456580000000 1.0
C      1  0.4716360000000  0.4537390000000  0.4862180000000 1.0
C      1  0.4835320000000  0.5001280000000  0.5975840000000 1.0
C      1  0.4974220000000  0.4718950000000  0.5565390000000 1.0
C      1  0.4918710000000  0.5205630000000  0.4492560000000 1.0
C      1  0.4171980000000  0.5002360000000  0.4819750000000 1.0
C      1  0.4756280000000  0.5603030000000  0.5786130000000 1.0
C      1  0.5248670000000  0.5574390000000  0.5516480000000 1.0
C      1  0.4796780000000  0.5206740000000  0.4989840000000 1.0
C      1  0.4927740000000  0.5930300000000  0.5184700000000 1.0
C      1  0.4602860000000  0.4196430000000  0.5227560000000 1.0
C      1  0.4458310000000  0.4976600000000  0.4491200000000 1.0
C      1  0.5339060000000  0.5035840000000  0.5098930000000 1.0
C      1  0.5174700000000  0.5619190000000  0.4666120000000 1.0
C      1  0.4710660000000  0.5459760000000  0.5284600000000 1.0
C      1  0.5089460000000  0.4872800000000  0.5847620000000 1.0
C      1  0.4405160000000  0.5202290000000  0.5299130000000 1.0
C      1  0.5033500000000  0.4146890000000  0.5394070000000 1.0
C      1  0.5454410000000  0.4778710000000  0.5245530000000 1.0
C      1  0.5339380000000  0.4144300000000  0.4949240000000 1.0
C      1  0.5297210000000  0.4498150000000  0.5685860000000 1.0
C      1  0.5901290000000  0.4970410000000  0.5010740000000 1.0
C      1  0.4760630000000  0.4934350000000  0.4538710000000 1.0
C      1  0.5063650000000  0.5488990000000  0.5781600000000 1.0
C      1  0.4875360000000  0.5500780000000  0.4584130000000 1.0
C      1  0.5332070000000  0.5046320000000  0.5808650000000 1.0
C      1  0.4834100000000  0.4952490000000  0.5183070000000 1.0
C      1  0.5412450000000  0.5210800000000  0.4415400000000 1.0
C      1  0.4297650000000  0.5289910000000  0.4811800000000 1.0
C      1  0.5614860000000  0.4764280000000  0.4279770000000 1.0
C      1  0.5157000000000  0.4574180000000  0.5073260000000 1.0
C      1  0.5032680000000  0.5265980000000  0.4870220000000 1.0
C      1  0.5205130000000  0.5530960000000  0.5179580000000 1.0
C      1  0.5681000000000  0.5325910000000  0.4250400000000 1.0
C      1  0.4470460000000  0.4849260000000  0.4819200000000 1.0
C      1  0.5355460000000  0.4926000000000  0.4376590000000 1.0
C      1  0.5405360000000  0.5477930000000  0.4119050000000 1.0
C      1  0.5747130000000  0.4831900000000  0.5510670000000 1.0
C      1  0.5413520000000  0.4267470000000  0.4451330000000 1.0
C      1  0.4920730000000  0.5658750000000  0.5178260000000 1.0
C      1  0.4266600000000  0.4428700000000  0.4922780000000 1.0
C      1  0.5079170000000  0.5811620000000  0.4400330000000 1.0
C      1  0.4501770000000  0.4597470000000  0.4604610000000 1.0
C      1  0.4296920000000  0.5109550000000  0.5766670000000 1.0
C      1  0.5124140000000  0.4581200000000  0.4152140000000 1.0
C      1  0.5530470000000  0.4333770000000  0.4750350000000 1.0
C      1  0.5210640000000  0.4614340000000  0.5391680000000 1.0
C      1  0.5285730000000  0.4232610000000  0.5484010000000 1.0
C      1  0.4888530000000  0.5208040000000  0.5377780000000 1.0
C      1  0.5038250000000  0.4085540000000  0.5083500000000 1.0
C      1  0.4816340000000  0.5295630000000  0.5916430000000 1.0
C      1  0.4512630000000  0.5361590000000  0.5775070000000 1.0
C      1  0.4067080000000  0.4930250000000  0.5596890000000 1.0
C      1  0.5467090000000  0.4787010000000  0.5644770000000 1.0
C      1  0.4732460000000  0.5205430000000  0.4057500000000 1.0
C      1  0.4183710000000  0.4782210000000  0.4558760000000 1.0
C      1  0.4641670000000  0.4168990000000  0.4730400000000 1.0
C      1  0.5779950000000  0.4678710000000  0.5255620000000 1.0
C      1  0.4452750000000  0.4605350000000  0.5469310000000 1.0
C      1  0.5910870000000  0.4657380000000  0.4987570000000 1.0
C      1  0.4924960000000  0.4401750000000  0.4222180000000 1.0
C      1  0.4796500000000  0.4983990000000  0.5579340000000 1.0
C      1  0.4566710000000  0.5581640000000  0.5520690000000 1.0
C      1  0.4101490000000  0.5751400000000  0.5469050000000 1.0
C      1  0.5981760000000  0.5125580000000  0.5233310000000 1.0
C      1  0.5843070000000  0.5094720000000  0.5481620000000 1.0
C      1  0.4281020000000  0.5409710000000  0.4569270000000 1.0
C      1  0.4750220000000  0.4674200000000  0.5892800000000 1.0
C      1  0.5377980000000  0.5373240000000  0.5760270000000 1.0
C      1  0.5081290000000  0.5593450000000  0.4137900000000 1.0
C      1  0.5772030000000  0.5487030000000  0.5088580000000 1.0
C      1  0.5111450000000  0.4861430000000  0.4196400000000 1.0
C      1  0.5094500000000  0.4867210000000  0.5019590000000 1.0
C      1  0.5648430000000  0.5329050000000  0.5554020000000 1.0
C      1  0.5678120000000  0.5309180000000  0.4597310000000 1.0
C      1  0.4507040000000  0.5338290000000  0.5037090000000 1.0
C      1  0.4932220000000  0.5070960000000  0.4204560000000 1.0
C      1  0.5229890000000  0.4774210000000  0.4631660000000 1.0
C      1  0.5769470000000  0.5034590000000  0.4407150000000 1.0
C      1  0.4714550000000  0.4506820000000  0.5601750000000 1.0
C      1  0.5450100000000  0.4659020000000  0.4815610000000 1.0
C      1  0.5200770000000  0.5240020000000  0.5302360000000 1.0
C      1  0.4934610000000  0.4637640000000  0.4542830000000 1.0
C      1  0.4552530000000  0.4940740000000  0.5806460000000 1.0
C      1  0.5609990000000  0.5449930000000  0.4857860000000 1.0
C      1  0.4368620000000  0.5810920000000  0.5470870000000 1.0
C      1  0.4732710000000  0.4087170000000  0.4991180000000 1.0
C      1  0.4994260000000  0.4378400000000  0.4914510000000 1.0
C      1  0.5406730000000  0.4498880000000  0.4216190000000 1.0
C      1  0.4394820000000  0.4809930000000  0.4113420000000 1.0
C      1  0.5627290000000  0.6177740000000  0.5223940000000 1.0
C      1  0.5064050000000  0.4538530000000  0.5907050000000 1.0
C      1  0.5466440000000  0.4485750000000  0.5108990000000 1.0
C      1  0.5161160000000  0.4216880000000  0.4663920000000 1.0
C      1  0.4459630000000  0.4912820000000  0.5312780000000 1.0
C      1  0.4450530000000  0.5123820000000  0.4184500000000 1.0
C      1  0.5419550000000  0.5091090000000  0.5486170000000 1.0
C      1  0.5587260000000  0.4954760000000  0.4912290000000 1.0
C      1  0.5154270000000  0.6074290000000  0.5240340000000 1.0
C      1  0.4647960000000  0.4708790000000  0.5139460000000 1.0
C      1  0.5425890000000  0.6005920000000  0.5287280000000 1.0
C      1  0.5811220000000  0.4522310000000  0.4713680000000 1.0
C      1  0.5476280000000  0.5745630000000  0.5380030000000 1.0
C      1  0.5686910000000  0.4472440000000  0.4413360000000 1.0
C      1  0.4172040000000  0.4771820000000  0.5373550000000 1.0
C      1  0.4574000000000  0.5600740000000  0.4236850000000 1.0
C      1  0.5768970000000  0.4842430000000  0.4663560000000 1.0
C      1  0.4370880000000  0.5407070000000  0.4301170000000 1.0
C      1  0.5222700000000  0.5444690000000  0.4400060000000 1.0
C      1  0.5685290000000  0.5555120000000  0.5351740000000 1.0
C      1  0.5467000000000  0.4217990000000  0.5257310000000 1.0
C      1  0.4362850000000  0.4249240000000  0.4737780000000 1.0
C      1  0.4867540000000  0.4309730000000  0.4542510000000 1.0
C      1  0.5339340000000  0.5545630000000  0.4901230000000 1.0
C      1  0.4702010000000  0.5702060000000  0.4474580000000 1.0
C      1  0.4875320000000  0.4818350000000  0.4811160000000 1.0
END
