TITL C-2778424-3986-142 0.00453673731371717 125000 -1067.41638456354 0 0 184 (C1) n - 1
REM
REM in /home/nfs/bkarasulu/CARBON/AIRSS/Generating-Clusters/REBO/Only-C1/SD-CG/HFTN-CG
REM
REM
REM
REM
REM
REM ./C.cell (11c1c37f851c82e70ff6c80c92926a4b)
REM
REM compiler GCC version 9.2.1 20190827 (Red Hat 9.2.1-1)
REM options -cpp -mtune=generic -march=x86-64 -g -O0 -fpre-include=/usr/include/finclude/math-vector-fortran.h
REM seed -1746945388 1605559580 -1616458029 832393296 -438536272 -1674860645 732875426 -590722036 -1549467107 1973684755 -713817998 -1676552862 167134989 -397235699 -199412192 2098623243 -2133003152 -761560926 -1140602467 1360655659 1408158791 1056549336 -296638901 1229105251 1484003756 695199116 265191747 1086767131 1528980798 832336651 1600782198 -1995105178 41711695
REM
CELL 1.54180   50.00000   50.00000   50.00000   90.00000   90.00000   90.00000
LATT -1
SFAC C  
C      1  0.4603920000000  0.5511280000000  0.5457570000000 1.0
C      1  0.5634940000000  0.5395220000000  0.4840280000000 1.0
C      1  0.3869380000000  0.4607000000000  0.4981150000000 1.0
C      1  0.4538170000000  0.6046570000000  0.4976140000000 1.0
C      1  0.4136600000000  0.5148550000000  0.5606020000000 1.0
C      1  0.5550680000000  0.5310360000000  0.5241010000000 1.0
C      1  0.4905090000000  0.4289530000000  0.4860560000000 1.0
C      1  0.5599810000000  0.4470840000000  0.5793320000000 1.0
C      1  0.5589460000000  0.4208070000000  0.5306260000000 1.0
C      1  0.5088680000000  0.5876640000000  0.4490000000000 1.0
C      1  0.5404840000000  0.4815650000000  0.5423930000000 1.0
C      1  0.4879210000000  0.5083870000000  0.4299990000000 1.0
C      1  0.5993310000000  0.5230390000000  0.4469390000000 1.0
C      1  0.5235020000000  0.3860400000000  0.5242420000000 1.0
C      1  0.4896950000000  0.6045800000000  0.5388310000000 1.0
C      1  0.5337350000000  0.5442370000000  0.5758020000000 1.0
C      1  0.4650960000000  0.5615180000000  0.5204260000000 1.0
C      1  0.5266500000000  0.4844870000000  0.4855240000000 1.0
C      1  0.5172830000000  0.4185440000000  0.4348550000000 1.0
C      1  0.4632790000000  0.5033020000000  0.5600550000000 1.0
C      1  0.4070470000000  0.5556340000000  0.4885070000000 1.0
C      1  0.4925540000000  0.5690130000000  0.5873690000000 1.0
C      1  0.4204980000000  0.5707050000000  0.5486220000000 1.0
C      1  0.4980600000000  0.5594180000000  0.4775500000000 1.0
C      1  0.5121970000000  0.4924610000000  0.5503590000000 1.0
C      1  0.4505180000000  0.5206700000000  0.5130120000000 1.0
C      1  0.5281560000000  0.4348310000000  0.5822210000000 1.0
C      1  0.5904400000000  0.4541460000000  0.4586470000000 1.0
C      1  0.5658050000000  0.5959830000000  0.5325870000000 1.0
C      1  0.4481760000000  0.5251530000000  0.4244340000000 1.0
C      1  0.4501250000000  0.5465050000000  0.5846660000000 1.0
C      1  0.5244060000000  0.4548630000000  0.5558530000000 1.0
C      1  0.4324450000000  0.4632520000000  0.4237080000000 1.0
C      1  0.4452300000000  0.5877460000000  0.5496570000000 1.0
C      1  0.5053490000000  0.4562620000000  0.5956460000000 1.0
C      1  0.4825370000000  0.5187830000000  0.5005840000000 1.0
C      1  0.5430760000000  0.4592120000000  0.4336940000000 1.0
C      1  0.4699000000000  0.4607030000000  0.5316340000000 1.0
C      1  0.5810580000000  0.4320980000000  0.4838480000000 1.0
C      1  0.5722780000000  0.4063760000000  0.5510690000000 1.0
C      1  0.5814030000000  0.4974490000000  0.5208640000000 1.0
C      1  0.4923620000000  0.5731780000000  0.5143150000000 1.0
C      1  0.5252280000000  0.4402740000000  0.4187010000000 1.0
C      1  0.3996700000000  0.5362880000000  0.4608200000000 1.0
C      1  0.5531200000000  0.4132260000000  0.4892490000000 1.0
C      1  0.4539810000000  0.4702210000000  0.5808570000000 1.0
C      1  0.4901450000000  0.4685300000000  0.4890090000000 1.0
C      1  0.5462680000000  0.3890970000000  0.5098110000000 1.0
C      1  0.4839990000000  0.4787180000000  0.5560440000000 1.0
C      1  0.5929150000000  0.5425250000000  0.5299850000000 1.0
C      1  0.3880740000000  0.4922500000000  0.5036080000000 1.0
C      1  0.4748240000000  0.4338960000000  0.4216520000000 1.0
C      1  0.4848260000000  0.4360410000000  0.5175000000000 1.0
C      1  0.4326470000000  0.4936190000000  0.5219840000000 1.0
C      1  0.5169860000000  0.4993590000000  0.5114520000000 1.0
C      1  0.5477300000000  0.5686370000000  0.5566570000000 1.0
C      1  0.5515470000000  0.5597970000000  0.5038190000000 1.0
C      1  0.4585080000000  0.4724270000000  0.4521830000000 1.0
C      1  0.5675600000000  0.5349470000000  0.4422220000000 1.0
C      1  0.4372790000000  0.5788710000000  0.4443600000000 1.0
C      1  0.5749240000000  0.5116790000000  0.5682030000000 1.0
C      1  0.5886820000000  0.5475100000000  0.4661710000000 1.0
C      1  0.4196930000000  0.4574010000000  0.5567240000000 1.0
C      1  0.5552340000000  0.5443450000000  0.4131190000000 1.0
C      1  0.6012530000000  0.5400420000000  0.4970990000000 1.0
C      1  0.5382800000000  0.5958940000000  0.5447750000000 1.0
C      1  0.4517850000000  0.4912640000000  0.4244230000000 1.0
C      1  0.4391520000000  0.5418890000000  0.4594850000000 1.0
C      1  0.4744600000000  0.4939080000000  0.4816670000000 1.0
C      1  0.5251360000000  0.5801830000000  0.4763440000000 1.0
C      1  0.4811220000000  0.3917060000000  0.4955500000000 1.0
C      1  0.4481280000000  0.4405920000000  0.5648560000000 1.0
C      1  0.6054270000000  0.4785310000000  0.4779490000000 1.0
C      1  0.5293250000000  0.4806120000000  0.3879120000000 1.0
C      1  0.5581490000000  0.4909230000000  0.4743960000000 1.0
C      1  0.3974730000000  0.5300830000000  0.5175370000000 1.0
C      1  0.4617510000000  0.6025840000000  0.5309120000000 1.0
C      1  0.4071470000000  0.4388310000000  0.5146410000000 1.0
C      1  0.6052550000000  0.5125370000000  0.4762230000000 1.0
C      1  0.4648210000000  0.5602130000000  0.4700790000000 1.0
C      1  0.4696240000000  0.5162550000000  0.4569760000000 1.0
C      1  0.4684880000000  0.4947500000000  0.3978310000000 1.0
C      1  0.6003680000000  0.5202910000000  0.5471860000000 1.0
C      1  0.4851730000000  0.5971400000000  0.4959630000000 1.0
C      1  0.5626900000000  0.4338210000000  0.4568740000000 1.0
C      1  0.5119570000000  0.5207760000000  0.4211370000000 1.0
C      1  0.5210300000000  0.4850300000000  0.6052080000000 1.0
C      1  0.4203920000000  0.4836070000000  0.4475450000000 1.0
C      1  0.4729420000000  0.4443320000000  0.4612090000000 1.0
C      1  0.5896740000000  0.5039020000000  0.4258730000000 1.0
C      1  0.3844490000000  0.5227730000000  0.4881190000000 1.0
C      1  0.5055790000000  0.5200250000000  0.5331640000000 1.0
C      1  0.5290070000000  0.5559130000000  0.4128770000000 1.0
C      1  0.5383770000000  0.4732570000000  0.5812210000000 1.0
C      1  0.5651110000000  0.5862680000000  0.5058820000000 1.0
C      1  0.6134630000000  0.4972760000000  0.5280010000000 1.0
C      1  0.5168760000000  0.6062070000000  0.5267890000000 1.0
C      1  0.4438060000000  0.4865160000000  0.4937370000000 1.0
C      1  0.4993740000000  0.6090930000000  0.4713750000000 1.0
C      1  0.4258600000000  0.4278620000000  0.5304870000000 1.0
C      1  0.5182140000000  0.5438030000000  0.5467390000000 1.0
C      1  0.4615110000000  0.4141240000000  0.5090650000000 1.0
C      1  0.5232440000000  0.6082570000000  0.4958980000000 1.0
C      1  0.5396420000000  0.5195370000000  0.4715340000000 1.0
C      1  0.5122830000000  0.4433070000000  0.5301380000000 1.0
C      1  0.4896150000000  0.4142160000000  0.4359620000000 1.0
C      1  0.5810410000000  0.4324450000000  0.5617200000000 1.0
C      1  0.4485280000000  0.5589830000000  0.4210470000000 1.0
C      1  0.4204830000000  0.5171640000000  0.4418040000000 1.0
C      1  0.5680340000000  0.5567860000000  0.5399440000000 1.0
C      1  0.5362580000000  0.4119360000000  0.4602220000000 1.0
C      1  0.3960970000000  0.4709990000000  0.5500180000000 1.0
C      1  0.4790060000000  0.5173190000000  0.3919250000000 1.0
C      1  0.5051650000000  0.4703940000000  0.5156700000000 1.0
C      1  0.4842990000000  0.4826610000000  0.5902620000000 1.0
C      1  0.5318120000000  0.5254440000000  0.5038710000000 1.0
C      1  0.4997010000000  0.5141830000000  0.5716020000000 1.0
C      1  0.4013120000000  0.5002860000000  0.5335090000000 1.0
C      1  0.4385170000000  0.5344200000000  0.5485310000000 1.0
C      1  0.5652950000000  0.4684060000000  0.4162380000000 1.0
C      1  0.5861970000000  0.4762220000000  0.5465380000000 1.0
C      1  0.4093180000000  0.5617170000000  0.5221560000000 1.0
C      1  0.4406260000000  0.5132070000000  0.4750900000000 1.0
C      1  0.4448220000000  0.5750060000000  0.5075450000000 1.0
C      1  0.5799280000000  0.5143520000000  0.4976480000000 1.0
C      1  0.4466280000000  0.4343250000000  0.4894140000000 1.0
C      1  0.4861080000000  0.4095410000000  0.5472830000000 1.0
C      1  0.4754770000000  0.5425560000000  0.4121790000000 1.0
C      1  0.4440740000000  0.4732300000000  0.5422290000000 1.0
C      1  0.4264760000000  0.4169050000000  0.4685100000000 1.0
C      1  0.4105820000000  0.5036550000000  0.4805150000000 1.0
C      1  0.3983520000000  0.4749410000000  0.4695970000000 1.0
C      1  0.4942020000000  0.5397310000000  0.4533770000000 1.0
C      1  0.5467960000000  0.4586620000000  0.4941060000000 1.0
C      1  0.4342070000000  0.4927580000000  0.5684540000000 1.0
C      1  0.4867850000000  0.4781240000000  0.4384970000000 1.0
C      1  0.4290860000000  0.5385270000000  0.5072380000000 1.0
C      1  0.5540530000000  0.6047640000000  0.4886720000000 1.0
C      1  0.4990390000000  0.5619260000000  0.4287750000000 1.0
C      1  0.5097450000000  0.5387370000000  0.3962220000000 1.0
C      1  0.5058330000000  0.4507010000000  0.4670920000000 1.0
C      1  0.5545590000000  0.4893160000000  0.3986030000000 1.0
C      1  0.4992180000000  0.5108710000000  0.6034120000000 1.0
C      1  0.5130110000000  0.4591070000000  0.3978670000000 1.0
C      1  0.5772580000000  0.4709800000000  0.4917810000000 1.0
C      1  0.4143880000000  0.5658860000000  0.4584480000000 1.0
C      1  0.5872430000000  0.4455780000000  0.5121560000000 1.0
C      1  0.4080080000000  0.4399440000000  0.4815110000000 1.0
C      1  0.5696470000000  0.4795360000000  0.5729190000000 1.0
C      1  0.4185430000000  0.5463850000000  0.5724270000000 1.0
C      1  0.6250720000000  0.4865060000000  0.5045960000000 1.0
C      1  0.5178120000000  0.5542050000000  0.5043240000000 1.0
C      1  0.4743320000000  0.5157470000000  0.5336680000000 1.0
C      1  0.5591370000000  0.5048680000000  0.5409500000000 1.0
C      1  0.4964100000000  0.3939280000000  0.5257540000000 1.0
C      1  0.4998160000000  0.5863790000000  0.5632750000000 1.0
C      1  0.5082700000000  0.4896080000000  0.4588090000000 1.0
C      1  0.5895190000000  0.4494550000000  0.5396300000000 1.0
C      1  0.5087020000000  0.5694360000000  0.5401570000000 1.0
C      1  0.4532620000000  0.4198130000000  0.4522290000000 1.0
C      1  0.5678280000000  0.5142920000000  0.4080170000000 1.0
C      1  0.5505110000000  0.4536840000000  0.5257440000000 1.0
C      1  0.5327420000000  0.4265130000000  0.5129070000000 1.0
C      1  0.4455360000000  0.4380950000000  0.4257960000000 1.0
C      1  0.4559030000000  0.4195600000000  0.5421610000000 1.0
C      1  0.5389060000000  0.4873690000000  0.4478010000000 1.0
C      1  0.5445920000000  0.5078620000000  0.6072620000000 1.0
C      1  0.5346650000000  0.4514540000000  0.4647150000000 1.0
C      1  0.4691140000000  0.5251350000000  0.5816910000000 1.0
C      1  0.4590500000000  0.5928250000000  0.4661350000000 1.0
C      1  0.4773700000000  0.3993220000000  0.4623930000000 1.0
C      1  0.4601010000000  0.4609110000000  0.4987710000000 1.0
C      1  0.4761770000000  0.4444160000000  0.5829460000000 1.0
C      1  0.5379720000000  0.5183340000000  0.4376930000000 1.0
C      1  0.5879990000000  0.4753870000000  0.4321740000000 1.0
C      1  0.5050840000000  0.5184350000000  0.4750320000000 1.0
C      1  0.4982510000000  0.4247110000000  0.5693670000000 1.0
C      1  0.4638020000000  0.5721210000000  0.5724320000000 1.0
C      1  0.5543430000000  0.5246540000000  0.5871190000000 1.0
C      1  0.5068670000000  0.5434470000000  0.5951090000000 1.0
C      1  0.4334180000000  0.4579880000000  0.4677290000000 1.0
C      1  0.4705420000000  0.5802250000000  0.4361940000000 1.0
C      1  0.4894920000000  0.4580050000000  0.4161410000000 1.0
C      1  0.5081230000000  0.4023650000000  0.4767460000000 1.0
END
