TITL C-2778422-5617-1460 -0.000972299167177078 125000 -554.368309119058 0 0 95 (C1) n - 1
REM
REM in /home/nfs/bkarasulu/CARBON/AIRSS/Generating-Clusters/REBO/Only-C1/SD-CG/HFTN-CG
REM
REM
REM
REM
REM
REM ./C.cell (11c1c37f851c82e70ff6c80c92926a4b)
REM
REM compiler GCC version 9.2.1 20190827 (Red Hat 9.2.1-1)
REM options -cpp -mtune=generic -march=x86-64 -g -O0 -fpre-include=/usr/include/finclude/math-vector-fortran.h
REM seed 1512749903 1961552590 -1572076986 600259487 -446073237 1271385007 -639405890 -2002995029 -270873253 -405801144 2145959515 -1574178510 1554964454 479737647 1043518617 -1540000047 24961056 -123965946 633427525 1867394530 -1553337575 -2089049268 -511281776 -1138506816 -279403596 -2003230824 -1715484267 404269168 -2031872548 1374574723 1044484353 1399736504 156240579
REM
CELL 1.54180   50.00000   50.00000   50.00000   90.00000   90.00000   90.00000
LATT -1
SFAC C  
C      1  0.5332800000000  0.5566740000000  0.5399210000000 1.0
C      1  0.5147470000000  0.4132470000000  0.5115540000000 1.0
C      1  0.4409420000000  0.5240820000000  0.4173230000000 1.0
C      1  0.4295360000000  0.4522220000000  0.5025270000000 1.0
C      1  0.5871870000000  0.5340270000000  0.5652210000000 1.0
C      1  0.4846360000000  0.5789100000000  0.4602850000000 1.0
C      1  0.5901480000000  0.4864780000000  0.5154920000000 1.0
C      1  0.4553350000000  0.4315570000000  0.5113020000000 1.0
C      1  0.4632960000000  0.4805950000000  0.4497930000000 1.0
C      1  0.5338910000000  0.4949360000000  0.4755990000000 1.0
C      1  0.4866530000000  0.5354270000000  0.5893070000000 1.0
C      1  0.5425490000000  0.5308420000000  0.5400330000000 1.0
C      1  0.5116700000000  0.4967360000000  0.5685480000000 1.0
C      1  0.4598820000000  0.5482150000000  0.4255240000000 1.0
C      1  0.5055920000000  0.5272120000000  0.4007060000000 1.0
C      1  0.6205330000000  0.4784970000000  0.5592970000000 1.0
C      1  0.5284960000000  0.4610180000000  0.5310050000000 1.0
C      1  0.5035880000000  0.4452500000000  0.4606800000000 1.0
C      1  0.5638270000000  0.4745330000000  0.5102440000000 1.0
C      1  0.4258860000000  0.5226550000000  0.4646320000000 1.0
C      1  0.4802320000000  0.4396370000000  0.4811920000000 1.0
C      1  0.4722900000000  0.5263880000000  0.5103850000000 1.0
C      1  0.4209600000000  0.5179680000000  0.5258860000000 1.0
C      1  0.5080270000000  0.5138920000000  0.4738880000000 1.0
C      1  0.5132540000000  0.5673010000000  0.4496920000000 1.0
C      1  0.5417130000000  0.4737420000000  0.4501350000000 1.0
C      1  0.4140510000000  0.5410490000000  0.5121420000000 1.0
C      1  0.4521200000000  0.4348630000000  0.4656310000000 1.0
C      1  0.4407990000000  0.5464230000000  0.4725270000000 1.0
C      1  0.4972350000000  0.4523770000000  0.4341680000000 1.0
C      1  0.4565550000000  0.4078910000000  0.4792340000000 1.0
C      1  0.4596050000000  0.5540400000000  0.5178800000000 1.0
C      1  0.5122780000000  0.5254880000000  0.5822920000000 1.0
C      1  0.4823080000000  0.4121070000000  0.5012580000000 1.0
C      1  0.5966880000000  0.5018240000000  0.4921490000000 1.0
C      1  0.4879950000000  0.5393840000000  0.5495280000000 1.0
C      1  0.4821060000000  0.4757100000000  0.4293920000000 1.0
C      1  0.5639580000000  0.4485900000000  0.4920180000000 1.0
C      1  0.4606590000000  0.5315160000000  0.5773170000000 1.0
C      1  0.4558270000000  0.5102870000000  0.4880520000000 1.0
C      1  0.4828370000000  0.4586600000000  0.5679640000000 1.0
C      1  0.5703020000000  0.5693860000000  0.4379220000000 1.0
C      1  0.5596590000000  0.4930330000000  0.5742650000000 1.0
C      1  0.5603370000000  0.5451080000000  0.4595630000000 1.0
C      1  0.4217700000000  0.4584070000000  0.4343500000000 1.0
C      1  0.5062170000000  0.5628550000000  0.5419520000000 1.0
C      1  0.4470380000000  0.5080450000000  0.5268470000000 1.0
C      1  0.5365160000000  0.5377250000000  0.5789660000000 1.0
C      1  0.6057610000000  0.4823770000000  0.5380000000000 1.0
C      1  0.5437200000000  0.4937480000000  0.5022670000000 1.0
C      1  0.5362030000000  0.4788890000000  0.5747070000000 1.0
C      1  0.5617420000000  0.5227350000000  0.5646280000000 1.0
C      1  0.4273280000000  0.4710320000000  0.4822760000000 1.0
C      1  0.5424090000000  0.4244660000000  0.4998530000000 1.0
C      1  0.5136290000000  0.4879460000000  0.5362630000000 1.0
C      1  0.4399200000000  0.4611870000000  0.4556250000000 1.0
C      1  0.5638500000000  0.5163420000000  0.4541790000000 1.0
C      1  0.5269270000000  0.5116540000000  0.5218880000000 1.0
C      1  0.4821420000000  0.4499260000000  0.5137220000000 1.0
C      1  0.4781020000000  0.5750520000000  0.5360780000000 1.0
C      1  0.4450620000000  0.4020420000000  0.5588020000000 1.0
C      1  0.4885270000000  0.4791390000000  0.5172980000000 1.0
C      1  0.5265530000000  0.4509010000000  0.5054340000000 1.0
C      1  0.5032070000000  0.5256790000000  0.5054950000000 1.0
C      1  0.4727270000000  0.5243280000000  0.4063780000000 1.0
C      1  0.4541360000000  0.5038700000000  0.5747120000000 1.0
C      1  0.4954060000000  0.5406490000000  0.4610050000000 1.0
C      1  0.5244680000000  0.5107730000000  0.4211070000000 1.0
C      1  0.5477610000000  0.5844800000000  0.4911940000000 1.0
C      1  0.5785590000000  0.4977340000000  0.4704790000000 1.0
C      1  0.5004190000000  0.4323510000000  0.5305670000000 1.0
C      1  0.5231530000000  0.5982180000000  0.4919690000000 1.0
C      1  0.4358300000000  0.5544450000000  0.4992430000000 1.0
C      1  0.5139340000000  0.5507150000000  0.4878230000000 1.0
C      1  0.4648400000000  0.5535320000000  0.4548210000000 1.0
C      1  0.4568450000000  0.5530930000000  0.5519350000000 1.0
C      1  0.5440610000000  0.5033850000000  0.4380730000000 1.0
C      1  0.4970960000000  0.4861000000000  0.4883280000000 1.0
C      1  0.5443950000000  0.5574590000000  0.4843510000000 1.0
C      1  0.4226780000000  0.5166370000000  0.4369680000000 1.0
C      1  0.4656040000000  0.4791860000000  0.5723080000000 1.0
C      1  0.4874070000000  0.5120400000000  0.5540900000000 1.0
C      1  0.4405950000000  0.4199630000000  0.5390810000000 1.0
C      1  0.4719730000000  0.4964500000000  0.5367960000000 1.0
C      1  0.4929530000000  0.4990650000000  0.4155680000000 1.0
C      1  0.5013130000000  0.5802520000000  0.4855410000000 1.0
C      1  0.5393630000000  0.5678820000000  0.4445800000000 1.0
C      1  0.5327810000000  0.4539040000000  0.5608060000000 1.0
C      1  0.5657690000000  0.4713580000000  0.4704890000000 1.0
C      1  0.5369790000000  0.4522770000000  0.4339220000000 1.0
C      1  0.4727370000000  0.4952080000000  0.4718660000000 1.0
C      1  0.4208120000000  0.4405090000000  0.5289650000000 1.0
C      1  0.5135600000000  0.4615120000000  0.4831350000000 1.0
C      1  0.4276280000000  0.4997520000000  0.4848670000000 1.0
C      1  0.5041260000000  0.4429460000000  0.5569280000000 1.0
END
