TITL C-2778430-5657-502 -0.00297622035423177 125000 -1103.68166957757 0 0 189 (C1) n - 1
REM
REM in /home/nfs/bkarasulu/CARBON/AIRSS/Generating-Clusters/REBO/Only-C1/SD-CG/HFTN-CG
REM
REM
REM
REM
REM
REM ./C.cell (11c1c37f851c82e70ff6c80c92926a4b)
REM
REM compiler GCC version 9.2.1 20190827 (Red Hat 9.2.1-1)
REM options -cpp -mtune=generic -march=x86-64 -g -O0 -fpre-include=/usr/include/finclude/math-vector-fortran.h
REM seed 246657447 537802367 -646795193 477655395 60909885 1704835937 -738824688 71664947 1796572727 -1932469031 -76952657 -792447625 1555224865 1836576091 212929404 1308995268 830195533 849209441 325962941 -1100605524 -658787715 102701970 653917708 -1582492161 317389099 1634263034 -202652118 -1301470932 1358820271 -1542855430 2097822877 -1939314415 -703145117
REM
CELL 1.54180   50.00000   50.00000   50.00000   90.00000   90.00000   90.00000
LATT -1
SFAC C  
C      1  0.4641730000000  0.4096880000000  0.4212110000000 1.0
C      1  0.5021550000000  0.5079190000000  0.6276830000000 1.0
C      1  0.5365870000000  0.4562770000000  0.5832930000000 1.0
C      1  0.5036750000000  0.4086230000000  0.4636170000000 1.0
C      1  0.5576830000000  0.4809010000000  0.5037550000000 1.0
C      1  0.5081930000000  0.4451920000000  0.3911500000000 1.0
C      1  0.5377710000000  0.5244540000000  0.5953840000000 1.0
C      1  0.4804860000000  0.4312520000000  0.5173230000000 1.0
C      1  0.4502470000000  0.5490570000000  0.3987480000000 1.0
C      1  0.5349920000000  0.5336690000000  0.4938620000000 1.0
C      1  0.4223890000000  0.4841610000000  0.5153600000000 1.0
C      1  0.4847060000000  0.5636620000000  0.4371080000000 1.0
C      1  0.4754950000000  0.5071890000000  0.6451550000000 1.0
C      1  0.5615140000000  0.5837040000000  0.4828500000000 1.0
C      1  0.4067950000000  0.5460990000000  0.4727730000000 1.0
C      1  0.4803010000000  0.4961590000000  0.3936890000000 1.0
C      1  0.5430920000000  0.4861050000000  0.4621950000000 1.0
C      1  0.3892690000000  0.4945720000000  0.4784980000000 1.0
C      1  0.4437110000000  0.4658110000000  0.5712400000000 1.0
C      1  0.4572650000000  0.4081800000000  0.5128070000000 1.0
C      1  0.4316870000000  0.5447790000000  0.4190460000000 1.0
C      1  0.4563500000000  0.5418730000000  0.5680580000000 1.0
C      1  0.4832850000000  0.6141550000000  0.4975860000000 1.0
C      1  0.5262440000000  0.5407120000000  0.4641550000000 1.0
C      1  0.4778360000000  0.4538040000000  0.4239270000000 1.0
C      1  0.5492620000000  0.5708560000000  0.4289350000000 1.0
C      1  0.4738200000000  0.3824460000000  0.5030330000000 1.0
C      1  0.5687950000000  0.4872060000000  0.5537120000000 1.0
C      1  0.5522480000000  0.4563830000000  0.4555100000000 1.0
C      1  0.4948200000000  0.4242030000000  0.5476820000000 1.0
C      1  0.5940540000000  0.4549360000000  0.5498180000000 1.0
C      1  0.4431930000000  0.5885250000000  0.5097720000000 1.0
C      1  0.4992210000000  0.3774950000000  0.5198520000000 1.0
C      1  0.5552960000000  0.4572850000000  0.4870350000000 1.0
C      1  0.4247520000000  0.4897930000000  0.4715320000000 1.0
C      1  0.5746740000000  0.5179410000000  0.4083720000000 1.0
C      1  0.5409730000000  0.4362620000000  0.4999930000000 1.0
C      1  0.4061260000000  0.5160940000000  0.4595480000000 1.0
C      1  0.4433840000000  0.5395520000000  0.5147960000000 1.0
C      1  0.5470440000000  0.4802600000000  0.4229600000000 1.0
C      1  0.4065440000000  0.5284510000000  0.5485990000000 1.0
C      1  0.5523250000000  0.5328080000000  0.4087510000000 1.0
C      1  0.4701490000000  0.5706930000000  0.5749940000000 1.0
C      1  0.4618950000000  0.5061000000000  0.4134450000000 1.0
C      1  0.5238590000000  0.4300030000000  0.4458800000000 1.0
C      1  0.4891120000000  0.5372870000000  0.5628760000000 1.0
C      1  0.4293110000000  0.5879070000000  0.4828000000000 1.0
C      1  0.5371750000000  0.5664750000000  0.5449260000000 1.0
C      1  0.5224170000000  0.5461890000000  0.5850240000000 1.0
C      1  0.5319820000000  0.5284610000000  0.4338290000000 1.0
C      1  0.5194460000000  0.5431340000000  0.5518380000000 1.0
C      1  0.4621660000000  0.5629270000000  0.5110630000000 1.0
C      1  0.5342580000000  0.4387490000000  0.3973390000000 1.0
C      1  0.4126070000000  0.4950010000000  0.4337870000000 1.0
C      1  0.6074570000000  0.5332860000000  0.5213230000000 1.0
C      1  0.5803430000000  0.5135000000000  0.4995690000000 1.0
C      1  0.4382490000000  0.5301550000000  0.5429850000000 1.0
C      1  0.5636800000000  0.4664070000000  0.5782190000000 1.0
C      1  0.5424730000000  0.4030460000000  0.4556920000000 1.0
C      1  0.5330970000000  0.5007120000000  0.5029530000000 1.0
C      1  0.4809910000000  0.4899270000000  0.4738100000000 1.0
C      1  0.4938740000000  0.4454270000000  0.4522370000000 1.0
C      1  0.5647250000000  0.5961230000000  0.5205440000000 1.0
C      1  0.4064750000000  0.5063160000000  0.5033550000000 1.0
C      1  0.5236940000000  0.3927990000000  0.4315080000000 1.0
C      1  0.4642500000000  0.4574110000000  0.5210780000000 1.0
C      1  0.5642910000000  0.4252940000000  0.4540190000000 1.0
C      1  0.5231640000000  0.5946620000000  0.5549250000000 1.0
C      1  0.4169350000000  0.4626840000000  0.4437720000000 1.0
C      1  0.4534260000000  0.4738970000000  0.4320420000000 1.0
C      1  0.4517430000000  0.4785130000000  0.4610130000000 1.0
C      1  0.4832260000000  0.5190770000000  0.5060060000000 1.0
C      1  0.4169210000000  0.4399940000000  0.5218590000000 1.0
C      1  0.5772230000000  0.5274030000000  0.5613020000000 1.0
C      1  0.4260790000000  0.4463610000000  0.5542850000000 1.0
C      1  0.5107040000000  0.5471260000000  0.5131340000000 1.0
C      1  0.4894180000000  0.5677110000000  0.5292990000000 1.0
C      1  0.4679930000000  0.4219770000000  0.4521790000000 1.0
C      1  0.5876100000000  0.4405580000000  0.4648070000000 1.0
C      1  0.4470590000000  0.4259260000000  0.4859160000000 1.0
C      1  0.5644890000000  0.5380200000000  0.5089180000000 1.0
C      1  0.5044070000000  0.5728110000000  0.5739040000000 1.0
C      1  0.5297090000000  0.5747280000000  0.4918560000000 1.0
C      1  0.4764440000000  0.4749400000000  0.5670190000000 1.0
C      1  0.5801610000000  0.4899470000000  0.5241030000000 1.0
C      1  0.5229360000000  0.4337740000000  0.5648780000000 1.0
C      1  0.5243360000000  0.5032710000000  0.6110830000000 1.0
C      1  0.3897720000000  0.5178280000000  0.5239820000000 1.0
C      1  0.5865190000000  0.4418470000000  0.5198450000000 1.0
C      1  0.4687390000000  0.6113370000000  0.5436430000000 1.0
C      1  0.5959200000000  0.4933990000000  0.4456200000000 1.0
C      1  0.4627370000000  0.6120730000000  0.5155850000000 1.0
C      1  0.4881020000000  0.4284560000000  0.4064680000000 1.0
C      1  0.4574070000000  0.5479710000000  0.4493920000000 1.0
C      1  0.5102240000000  0.5043780000000  0.5550350000000 1.0
C      1  0.4273060000000  0.4949750000000  0.5783190000000 1.0
C      1  0.5165200000000  0.4486560000000  0.5070650000000 1.0
C      1  0.5741170000000  0.5317720000000  0.4597130000000 1.0
C      1  0.5576470000000  0.4239880000000  0.5223800000000 1.0
C      1  0.5458270000000  0.6109270000000  0.4959780000000 1.0
C      1  0.4453040000000  0.4783790000000  0.5400460000000 1.0
C      1  0.6120420000000  0.5126640000000  0.4587930000000 1.0
C      1  0.6111190000000  0.5240960000000  0.4908930000000 1.0
C      1  0.4942310000000  0.3912550000000  0.5492970000000 1.0
C      1  0.5638500000000  0.5509300000000  0.4423220000000 1.0
C      1  0.5422070000000  0.4480210000000  0.4255760000000 1.0
C      1  0.4834150000000  0.5155350000000  0.5378400000000 1.0
C      1  0.4367630000000  0.5169670000000  0.4338590000000 1.0
C      1  0.4055780000000  0.5723600000000  0.4792580000000 1.0
C      1  0.4917880000000  0.5922990000000  0.5494840000000 1.0
C      1  0.4823710000000  0.5518650000000  0.5994470000000 1.0
C      1  0.4630180000000  0.4533960000000  0.4812300000000 1.0
C      1  0.4894020000000  0.4317880000000  0.4844500000000 1.0
C      1  0.5761290000000  0.4943630000000  0.4246030000000 1.0
C      1  0.5581980000000  0.5797740000000  0.5683060000000 1.0
C      1  0.4992900000000  0.4928950000000  0.5817890000000 1.0
C      1  0.4042990000000  0.4658260000000  0.4840880000000 1.0
C      1  0.5926400000000  0.5448610000000  0.4760610000000 1.0
C      1  0.5618490000000  0.4497220000000  0.5419960000000 1.0
C      1  0.4967740000000  0.4054310000000  0.4300390000000 1.0
C      1  0.4066870000000  0.4681310000000  0.5386460000000 1.0
C      1  0.6116520000000  0.4630390000000  0.5665480000000 1.0
C      1  0.4579240000000  0.5060260000000  0.4893210000000 1.0
C      1  0.4601090000000  0.4990840000000  0.5846410000000 1.0
C      1  0.4251420000000  0.5282630000000  0.4925420000000 1.0
C      1  0.5261090000000  0.3825570000000  0.5404060000000 1.0
C      1  0.5397550000000  0.5922620000000  0.4431000000000 1.0
C      1  0.4325830000000  0.5796410000000  0.5402040000000 1.0
C      1  0.5636420000000  0.5171130000000  0.5837810000000 1.0
C      1  0.5754840000000  0.5779310000000  0.5438820000000 1.0
C      1  0.5811960000000  0.5498220000000  0.5358680000000 1.0
C      1  0.5348090000000  0.6092750000000  0.5282810000000 1.0
C      1  0.5249970000000  0.3799730000000  0.5007460000000 1.0
C      1  0.4528900000000  0.5903140000000  0.5582530000000 1.0
C      1  0.4957290000000  0.5921600000000  0.4791040000000 1.0
C      1  0.5369980000000  0.4650430000000  0.5444350000000 1.0
C      1  0.5729440000000  0.4913530000000  0.5931460000000 1.0
C      1  0.4175020000000  0.4381040000000  0.4904680000000 1.0
C      1  0.5238120000000  0.4995590000000  0.4392970000000 1.0
C      1  0.5268300000000  0.5990210000000  0.4701980000000 1.0
C      1  0.4051670000000  0.4955120000000  0.5561730000000 1.0
C      1  0.5132320000000  0.5560850000000  0.4371300000000 1.0
C      1  0.5121920000000  0.4714770000000  0.4623440000000 1.0
C      1  0.4740700000000  0.5839470000000  0.4578510000000 1.0
C      1  0.5416680000000  0.4124100000000  0.5454090000000 1.0
C      1  0.5129820000000  0.4569570000000  0.5339430000000 1.0
C      1  0.4957640000000  0.5102950000000  0.4535000000000 1.0
C      1  0.5493280000000  0.5657260000000  0.5163770000000 1.0
C      1  0.4252230000000  0.4717450000000  0.4122990000000 1.0
C      1  0.5292330000000  0.5573240000000  0.4066700000000 1.0
C      1  0.4662050000000  0.4330410000000  0.5545670000000 1.0
C      1  0.5672900000000  0.5022590000000  0.4717040000000 1.0
C      1  0.4718670000000  0.5043370000000  0.6123210000000 1.0
C      1  0.4875810000000  0.4867580000000  0.5078090000000 1.0
C      1  0.5954520000000  0.5131440000000  0.5405730000000 1.0
C      1  0.5216650000000  0.4760610000000  0.5965420000000 1.0
C      1  0.5048710000000  0.5406340000000  0.3953070000000 1.0
C      1  0.4563220000000  0.5055620000000  0.5513150000000 1.0
C      1  0.5196740000000  0.4007010000000  0.5688390000000 1.0
C      1  0.5865990000000  0.4740570000000  0.4687470000000 1.0
C      1  0.4457500000000  0.4448540000000  0.4165830000000 1.0
C      1  0.4861500000000  0.4721550000000  0.5385420000000 1.0
C      1  0.5376540000000  0.3884240000000  0.4817620000000 1.0
C      1  0.4435940000000  0.4243700000000  0.5361670000000 1.0
C      1  0.4978930000000  0.5311820000000  0.4791850000000 1.0
C      1  0.4937550000000  0.3806280000000  0.4757760000000 1.0
C      1  0.5384630000000  0.4925400000000  0.5529900000000 1.0
C      1  0.4135790000000  0.5612490000000  0.5465380000000 1.0
C      1  0.4891750000000  0.5615470000000  0.4903050000000 1.0
C      1  0.5219680000000  0.5192860000000  0.5282910000000 1.0
C      1  0.5132890000000  0.4763750000000  0.4929660000000 1.0
C      1  0.5140310000000  0.5864600000000  0.5169240000000 1.0
C      1  0.4373960000000  0.4222430000000  0.4382650000000 1.0
C      1  0.4193220000000  0.4392780000000  0.4564810000000 1.0
C      1  0.5074570000000  0.5127490000000  0.3915880000000 1.0
C      1  0.4764910000000  0.5247260000000  0.4349600000000 1.0
C      1  0.4333190000000  0.5281830000000  0.5826060000000 1.0
C      1  0.5031040000000  0.4732190000000  0.3908060000000 1.0
C      1  0.4493240000000  0.4777840000000  0.5005900000000 1.0
C      1  0.4320600000000  0.5670920000000  0.4393820000000 1.0
C      1  0.4459520000000  0.5848340000000  0.4598140000000 1.0
C      1  0.5942870000000  0.4521950000000  0.4937230000000 1.0
C      1  0.4447170000000  0.5238190000000  0.4662220000000 1.0
C      1  0.4662530000000  0.4006090000000  0.4749470000000 1.0
C      1  0.5849260000000  0.5711850000000  0.4814260000000 1.0
C      1  0.5280510000000  0.4911190000000  0.3992770000000 1.0
C      1  0.4792550000000  0.5472080000000  0.4093320000000 1.0
C      1  0.4904190000000  0.5235700000000  0.5928920000000 1.0
C      1  0.4636840000000  0.5091780000000  0.6692050000000 1.0
END
