TITL C-2778426-5645-480 -0.00425856248044068 125000 -799.897971385479 0 0 139 (C1) n - 1
REM
REM in /home/nfs/bkarasulu/CARBON/AIRSS/Generating-Clusters/REBO/Only-C1/SD-CG/HFTN-CG
REM
REM
REM
REM
REM
REM ./C.cell (11c1c37f851c82e70ff6c80c92926a4b)
REM
REM compiler GCC version 9.2.1 20190827 (Red Hat 9.2.1-1)
REM options -cpp -mtune=generic -march=x86-64 -g -O0 -fpre-include=/usr/include/finclude/math-vector-fortran.h
REM seed -81471984 499604783 1320302932 -631682789 968253070 -700092566 -130755458 -217123405 -354050452 -2069633804 1435515577 953900942 1398909891 1704251706 -1234998320 -2145749202 -564747192 -627999292 965698448 -1933554987 -320994452 -984887253 -2012514938 -1133854568 -1481067236 -240240363 65452886 40875233 -1908561859 917494963 -2026571554 -1254919692 -1438007928
REM
CELL 1.54180   50.00000   50.00000   50.00000   90.00000   90.00000   90.00000
LATT -1
SFAC C  
C      1  0.5127590000000  0.4962740000000  0.5976530000000 1.0
C      1  0.5135540000000  0.5216530000000  0.5013810000000 1.0
C      1  0.5676960000000  0.5316220000000  0.4665380000000 1.0
C      1  0.4197520000000  0.4815290000000  0.4925210000000 1.0
C      1  0.5188500000000  0.5192790000000  0.5589500000000 1.0
C      1  0.4652850000000  0.4329660000000  0.4358550000000 1.0
C      1  0.5395590000000  0.4518450000000  0.5664120000000 1.0
C      1  0.5469130000000  0.5675110000000  0.4963060000000 1.0
C      1  0.4528440000000  0.5132670000000  0.5871290000000 1.0
C      1  0.4793500000000  0.5964280000000  0.5046550000000 1.0
C      1  0.4589720000000  0.4197500000000  0.5149630000000 1.0
C      1  0.4750240000000  0.4084480000000  0.4915130000000 1.0
C      1  0.6206150000000  0.4930880000000  0.4653550000000 1.0
C      1  0.5563890000000  0.4974240000000  0.5273330000000 1.0
C      1  0.4076740000000  0.5291830000000  0.5491670000000 1.0
C      1  0.4685020000000  0.4788960000000  0.5743230000000 1.0
C      1  0.4288310000000  0.4756470000000  0.4319180000000 1.0
C      1  0.5587460000000  0.4956780000000  0.5794590000000 1.0
C      1  0.4876130000000  0.5875480000000  0.5298900000000 1.0
C      1  0.5647180000000  0.4679290000000  0.5716050000000 1.0
C      1  0.6005280000000  0.5287000000000  0.4970420000000 1.0
C      1  0.5246130000000  0.4847990000000  0.4560970000000 1.0
C      1  0.4766950000000  0.4457960000000  0.5051080000000 1.0
C      1  0.4630830000000  0.5500960000000  0.4231530000000 1.0
C      1  0.5657740000000  0.4851100000000  0.4814800000000 1.0
C      1  0.4343870000000  0.4215060000000  0.5384130000000 1.0
C      1  0.4957140000000  0.4723720000000  0.5095690000000 1.0
C      1  0.4958440000000  0.4189510000000  0.4411240000000 1.0
C      1  0.4597500000000  0.5576370000000  0.5634980000000 1.0
C      1  0.6038700000000  0.5150740000000  0.5213780000000 1.0
C      1  0.4785140000000  0.4313390000000  0.5595970000000 1.0
C      1  0.5380560000000  0.5112320000000  0.5927170000000 1.0
C      1  0.4064210000000  0.5094880000000  0.5000080000000 1.0
C      1  0.4990850000000  0.4018870000000  0.4698660000000 1.0
C      1  0.5235720000000  0.4638310000000  0.5387470000000 1.0
C      1  0.4617420000000  0.5008910000000  0.4797000000000 1.0
C      1  0.5253860000000  0.4280920000000  0.5099670000000 1.0
C      1  0.4428690000000  0.5280340000000  0.5019400000000 1.0
C      1  0.5053610000000  0.4386480000000  0.5429170000000 1.0
C      1  0.5183480000000  0.6017890000000  0.4727920000000 1.0
C      1  0.5141350000000  0.5735300000000  0.5382420000000 1.0
C      1  0.5286980000000  0.5593960000000  0.4475630000000 1.0
C      1  0.4656750000000  0.5846250000000  0.5467440000000 1.0
C      1  0.5558560000000  0.5467950000000  0.4414400000000 1.0
C      1  0.4700000000000  0.4297470000000  0.4691660000000 1.0
C      1  0.4632720000000  0.4088030000000  0.5457990000000 1.0
C      1  0.5147940000000  0.4662390000000  0.5853610000000 1.0
C      1  0.4380700000000  0.4954070000000  0.4558480000000 1.0
C      1  0.5373360000000  0.5415900000000  0.5770710000000 1.0
C      1  0.4150670000000  0.5155880000000  0.4472530000000 1.0
C      1  0.4389540000000  0.5626870000000  0.4424860000000 1.0
C      1  0.4869820000000  0.5590670000000  0.4926190000000 1.0
C      1  0.4871390000000  0.4584940000000  0.4620180000000 1.0
C      1  0.5008610000000  0.4926310000000  0.4010220000000 1.0
C      1  0.4173860000000  0.5422300000000  0.4582420000000 1.0
C      1  0.4674720000000  0.4528710000000  0.4131550000000 1.0
C      1  0.5714200000000  0.4631000000000  0.5138980000000 1.0
C      1  0.5215260000000  0.4718420000000  0.4874310000000 1.0
C      1  0.5861060000000  0.4665770000000  0.5539790000000 1.0
C      1  0.5443090000000  0.5764090000000  0.5284750000000 1.0
C      1  0.5052180000000  0.4417200000000  0.4859420000000 1.0
C      1  0.4003820000000  0.5099860000000  0.5278740000000 1.0
C      1  0.5661770000000  0.5510850000000  0.5269030000000 1.0
C      1  0.4086700000000  0.4608200000000  0.4460280000000 1.0
C      1  0.4587530000000  0.4704250000000  0.4945390000000 1.0
C      1  0.5389850000000  0.4735440000000  0.5149010000000 1.0
C      1  0.5254040000000  0.4213640000000  0.4669960000000 1.0
C      1  0.4361440000000  0.5713560000000  0.5429210000000 1.0
C      1  0.5007140000000  0.4992050000000  0.5216400000000 1.0
C      1  0.4987480000000  0.5231250000000  0.3997470000000 1.0
C      1  0.5523930000000  0.4706930000000  0.4613210000000 1.0
C      1  0.4232500000000  0.4930240000000  0.5434020000000 1.0
C      1  0.4389010000000  0.4378310000000  0.4580060000000 1.0
C      1  0.5325750000000  0.5791090000000  0.4702260000000 1.0
C      1  0.4286790000000  0.5641720000000  0.5107670000000 1.0
C      1  0.4465170000000  0.5348800000000  0.5333960000000 1.0
C      1  0.4606950000000  0.4549210000000  0.5567530000000 1.0
C      1  0.5175910000000  0.4087180000000  0.5347640000000 1.0
C      1  0.4951150000000  0.5303510000000  0.5291510000000 1.0
C      1  0.4961600000000  0.5823720000000  0.4457790000000 1.0
C      1  0.4505610000000  0.4758340000000  0.4139330000000 1.0
C      1  0.4530620000000  0.4841150000000  0.5982990000000 1.0
C      1  0.5052430000000  0.4357120000000  0.5779120000000 1.0
C      1  0.5093410000000  0.4788210000000  0.4310550000000 1.0
C      1  0.5049270000000  0.5368980000000  0.4515650000000 1.0
C      1  0.5265980000000  0.4506090000000  0.4097660000000 1.0
C      1  0.5257780000000  0.5414010000000  0.5339310000000 1.0
C      1  0.6190330000000  0.4663080000000  0.4681400000000 1.0
C      1  0.5808050000000  0.4381430000000  0.4927350000000 1.0
C      1  0.4702940000000  0.4755210000000  0.5322330000000 1.0
C      1  0.5178090000000  0.5532940000000  0.4967450000000 1.0
C      1  0.5156050000000  0.4875420000000  0.5588620000000 1.0
C      1  0.4478750000000  0.5425640000000  0.4714270000000 1.0
C      1  0.5544520000000  0.5598660000000  0.5567400000000 1.0
C      1  0.4843570000000  0.4999810000000  0.5528410000000 1.0
C      1  0.5315960000000  0.4187160000000  0.5642730000000 1.0
C      1  0.5069970000000  0.5663610000000  0.4227050000000 1.0
C      1  0.5694180000000  0.5084190000000  0.5552820000000 1.0
C      1  0.4720570000000  0.5421470000000  0.4512590000000 1.0
C      1  0.5525530000000  0.4361810000000  0.5109210000000 1.0
C      1  0.4747540000000  0.5274210000000  0.4952430000000 1.0
C      1  0.4171230000000  0.4584120000000  0.4751720000000 1.0
C      1  0.4853760000000  0.4904670000000  0.4604360000000 1.0
C      1  0.5945150000000  0.5200420000000  0.5493590000000 1.0
C      1  0.4993250000000  0.5301810000000  0.5814980000000 1.0
C      1  0.4880380000000  0.5499240000000  0.4078830000000 1.0
C      1  0.5479640000000  0.5093590000000  0.4527740000000 1.0
C      1  0.4837500000000  0.5082280000000  0.4335820000000 1.0
C      1  0.4370220000000  0.5183080000000  0.5617700000000 1.0
C      1  0.4981030000000  0.5164500000000  0.4740380000000 1.0
C      1  0.5433320000000  0.4735250000000  0.4107900000000 1.0
C      1  0.5499160000000  0.5256520000000  0.5158810000000 1.0
C      1  0.4318700000000  0.4460270000000  0.5528060000000 1.0
C      1  0.5748260000000  0.5481910000000  0.4942290000000 1.0
C      1  0.5144870000000  0.5646280000000  0.5683930000000 1.0
C      1  0.4734530000000  0.5305290000000  0.5510780000000 1.0
C      1  0.5586970000000  0.4247470000000  0.4734600000000 1.0
C      1  0.5423220000000  0.4995090000000  0.4230060000000 1.0
C      1  0.4540060000000  0.4660220000000  0.4623070000000 1.0
C      1  0.4626520000000  0.5594990000000  0.5157870000000 1.0
C      1  0.4645490000000  0.5010260000000  0.4152630000000 1.0
C      1  0.6129770000000  0.5173420000000  0.4746280000000 1.0
C      1  0.5887270000000  0.4867920000000  0.5277900000000 1.0
C      1  0.5262690000000  0.4329860000000  0.4348340000000 1.0
C      1  0.4876170000000  0.5565400000000  0.5783420000000 1.0
C      1  0.4512040000000  0.5841010000000  0.4947750000000 1.0
C      1  0.4963320000000  0.6090910000000  0.4866230000000 1.0
C      1  0.5057760000000  0.4017200000000  0.5034090000000 1.0
C      1  0.4407930000000  0.4829810000000  0.5193150000000 1.0
C      1  0.4509070000000  0.5816270000000  0.4637450000000 1.0
C      1  0.5530300000000  0.4447430000000  0.4512630000000 1.0
C      1  0.4834930000000  0.5097180000000  0.5948850000000 1.0
C      1  0.4804480000000  0.5772400000000  0.4683940000000 1.0
C      1  0.4136010000000  0.5408020000000  0.4910290000000 1.0
C      1  0.5622030000000  0.5106450000000  0.4900590000000 1.0
C      1  0.5159870000000  0.5180590000000  0.4274730000000 1.0
C      1  0.4143070000000  0.4664570000000  0.5563580000000 1.0
C      1  0.4957380000000  0.4600440000000  0.4059780000000 1.0
C      1  0.6067650000000  0.4449680000000  0.4788090000000 1.0
END
