TITL C-2778431-5191-140 -0.00446689496242467 125000 -1087.98143668619 0 0 186 (C1) n - 1
REM
REM in /home/nfs/bkarasulu/CARBON/AIRSS/Generating-Clusters/REBO/Only-C1/SD-CG/HFTN-CG
REM
REM
REM
REM
REM
REM ./C.cell (11c1c37f851c82e70ff6c80c92926a4b)
REM
REM compiler GCC version 9.2.1 20190827 (Red Hat 9.2.1-1)
REM options -cpp -mtune=generic -march=x86-64 -g -O0 -fpre-include=/usr/include/finclude/math-vector-fortran.h
REM seed 107260820 1764037556 -350146813 2021692328 -938561222 2086996436 1428164957 -1765506774 -2014284498 -672355350 1838240275 -263287684 547451761 -2014217926 -2006364959 32719579 1528229373 241517940 1547066179 -1817174355 1431395060 -1487244044 -645846298 -2141046260 1352656426 -1540120489 861381104 -2066884305 -1285112617 -723093134 1751604210 -90596298 1318063419
REM
CELL 1.54180   50.00000   50.00000   50.00000   90.00000   90.00000   90.00000
LATT -1
SFAC C  
C      1  0.5595620000000  0.4259550000000  0.5661220000000 1.0
C      1  0.4034900000000  0.5648570000000  0.5660790000000 1.0
C      1  0.5140290000000  0.5624060000000  0.4603400000000 1.0
C      1  0.5703410000000  0.4991640000000  0.4955860000000 1.0
C      1  0.5500320000000  0.4815000000000  0.4439890000000 1.0
C      1  0.4121500000000  0.5331180000000  0.4522810000000 1.0
C      1  0.5161900000000  0.5905030000000  0.4433370000000 1.0
C      1  0.5886420000000  0.5485170000000  0.5099900000000 1.0
C      1  0.5239690000000  0.4389350000000  0.4304000000000 1.0
C      1  0.6014510000000  0.4455800000000  0.5025920000000 1.0
C      1  0.5421930000000  0.5856990000000  0.5294590000000 1.0
C      1  0.4972200000000  0.4620480000000  0.4651160000000 1.0
C      1  0.4481100000000  0.4990130000000  0.4092100000000 1.0
C      1  0.4812120000000  0.5340100000000  0.5962710000000 1.0
C      1  0.5974830000000  0.4586810000000  0.5401230000000 1.0
C      1  0.5802500000000  0.4923060000000  0.5275880000000 1.0
C      1  0.4594050000000  0.5439470000000  0.4656810000000 1.0
C      1  0.4071250000000  0.5005740000000  0.6046040000000 1.0
C      1  0.3862790000000  0.4976780000000  0.5341150000000 1.0
C      1  0.4635460000000  0.5952770000000  0.5281900000000 1.0
C      1  0.4602730000000  0.5001570000000  0.4738710000000 1.0
C      1  0.4574670000000  0.5643330000000  0.4887610000000 1.0
C      1  0.4649060000000  0.5574540000000  0.4187020000000 1.0
C      1  0.4831220000000  0.6134590000000  0.5171130000000 1.0
C      1  0.5114250000000  0.4097640000000  0.5630900000000 1.0
C      1  0.5357360000000  0.5107420000000  0.4565800000000 1.0
C      1  0.5415190000000  0.5589050000000  0.4768550000000 1.0
C      1  0.5537170000000  0.5345360000000  0.4614150000000 1.0
C      1  0.5255260000000  0.4509910000000  0.5400000000000 1.0
C      1  0.5732320000000  0.4082270000000  0.5246430000000 1.0
C      1  0.4186590000000  0.5620850000000  0.4473800000000 1.0
C      1  0.5740610000000  0.4902780000000  0.5913320000000 1.0
C      1  0.5427530000000  0.4819220000000  0.6037310000000 1.0
C      1  0.4817460000000  0.4587780000000  0.4077690000000 1.0
C      1  0.4674640000000  0.4714400000000  0.5972360000000 1.0
C      1  0.4961290000000  0.5525350000000  0.5809780000000 1.0
C      1  0.5483150000000  0.5838650000000  0.4411510000000 1.0
C      1  0.4544090000000  0.4149330000000  0.5534250000000 1.0
C      1  0.5371630000000  0.4861620000000  0.5253560000000 1.0
C      1  0.5361710000000  0.4167550000000  0.5127060000000 1.0
C      1  0.4203430000000  0.4824940000000  0.4561250000000 1.0
C      1  0.5518610000000  0.4751510000000  0.5727190000000 1.0
C      1  0.6186040000000  0.5016500000000  0.4610250000000 1.0
C      1  0.4581840000000  0.5230520000000  0.4391130000000 1.0
C      1  0.6124770000000  0.4884790000000  0.4380210000000 1.0
C      1  0.4700370000000  0.5252210000000  0.4094000000000 1.0
C      1  0.3776290000000  0.4846780000000  0.5041430000000 1.0
C      1  0.4996240000000  0.4070680000000  0.4549590000000 1.0
C      1  0.4402340000000  0.4982640000000  0.5441290000000 1.0
C      1  0.5603640000000  0.4699310000000  0.5106670000000 1.0
C      1  0.4513670000000  0.4273730000000  0.4561960000000 1.0
C      1  0.5156790000000  0.4354570000000  0.6097740000000 1.0
C      1  0.4841740000000  0.4520400000000  0.5097050000000 1.0
C      1  0.3962520000000  0.4613920000000  0.5205160000000 1.0
C      1  0.5002060000000  0.5565900000000  0.5542860000000 1.0
C      1  0.4902480000000  0.4782930000000  0.5542030000000 1.0
C      1  0.5818700000000  0.4800820000000  0.5593670000000 1.0
C      1  0.5148180000000  0.5314880000000  0.5392410000000 1.0
C      1  0.5594640000000  0.5002890000000  0.3944800000000 1.0
C      1  0.5505450000000  0.5558910000000  0.4380530000000 1.0
C      1  0.4504010000000  0.6106520000000  0.4670690000000 1.0
C      1  0.5123550000000  0.4039350000000  0.5335980000000 1.0
C      1  0.5859210000000  0.4485420000000  0.4724340000000 1.0
C      1  0.5344690000000  0.4291420000000  0.5551120000000 1.0
C      1  0.4343020000000  0.4263930000000  0.4856760000000 1.0
C      1  0.5153700000000  0.5016790000000  0.6099030000000 1.0
C      1  0.5470510000000  0.5382270000000  0.5522330000000 1.0
C      1  0.5732370000000  0.5940110000000  0.4479730000000 1.0
C      1  0.5212330000000  0.4840710000000  0.4307180000000 1.0
C      1  0.5708620000000  0.5211330000000  0.5924870000000 1.0
C      1  0.4805880000000  0.4217520000000  0.4414290000000 1.0
C      1  0.4642130000000  0.4941410000000  0.6138280000000 1.0
C      1  0.4408400000000  0.4530940000000  0.4384320000000 1.0
C      1  0.5807820000000  0.4469740000000  0.4234710000000 1.0
C      1  0.4573200000000  0.4686690000000  0.4172970000000 1.0
C      1  0.5369710000000  0.5959540000000  0.4896150000000 1.0
C      1  0.3943990000000  0.4968620000000  0.4628180000000 1.0
C      1  0.4627560000000  0.3984880000000  0.4835150000000 1.0
C      1  0.4132960000000  0.5786170000000  0.4697670000000 1.0
C      1  0.6061190000000  0.5465460000000  0.4841290000000 1.0
C      1  0.5916380000000  0.5725180000000  0.4668870000000 1.0
C      1  0.5125320000000  0.3941590000000  0.5021680000000 1.0
C      1  0.5262750000000  0.5397580000000  0.5083120000000 1.0
C      1  0.5301410000000  0.4777050000000  0.5545870000000 1.0
C      1  0.4984650000000  0.4832050000000  0.4480020000000 1.0
C      1  0.4751930000000  0.4915030000000  0.5303730000000 1.0
C      1  0.4241160000000  0.4928460000000  0.4890320000000 1.0
C      1  0.5149960000000  0.5479630000000  0.4091880000000 1.0
C      1  0.4071900000000  0.4746100000000  0.5480430000000 1.0
C      1  0.5007170000000  0.5110770000000  0.4974890000000 1.0
C      1  0.3919250000000  0.5726000000000  0.4878720000000 1.0
C      1  0.4507920000000  0.4121900000000  0.5119440000000 1.0
C      1  0.4546960000000  0.5289430000000  0.5867760000000 1.0
C      1  0.4403490000000  0.5928080000000  0.5137250000000 1.0
C      1  0.3798360000000  0.5184590000000  0.5078120000000 1.0
C      1  0.4154710000000  0.5427560000000  0.5592020000000 1.0
C      1  0.3914420000000  0.5870800000000  0.5729940000000 1.0
C      1  0.4850650000000  0.5222770000000  0.5255600000000 1.0
C      1  0.6080750000000  0.4998740000000  0.5087460000000 1.0
C      1  0.5424060000000  0.4906680000000  0.4816130000000 1.0
C      1  0.4209560000000  0.4842370000000  0.4235730000000 1.0
C      1  0.6128240000000  0.4717370000000  0.5172130000000 1.0
C      1  0.4614720000000  0.5413020000000  0.5332610000000 1.0
C      1  0.4168970000000  0.5328360000000  0.5044720000000 1.0
C      1  0.4357890000000  0.5197430000000  0.4717780000000 1.0
C      1  0.5898960000000  0.5623760000000  0.5334370000000 1.0
C      1  0.5906410000000  0.4315840000000  0.4464710000000 1.0
C      1  0.5472000000000  0.4444180000000  0.4977860000000 1.0
C      1  0.6158790000000  0.5149770000000  0.4861300000000 1.0
C      1  0.5427750000000  0.5453100000000  0.4128840000000 1.0
C      1  0.5164250000000  0.4625860000000  0.6019600000000 1.0
C      1  0.4823560000000  0.4237940000000  0.4908350000000 1.0
C      1  0.4395260000000  0.5109750000000  0.6066170000000 1.0
C      1  0.4811660000000  0.4196300000000  0.5717270000000 1.0
C      1  0.4297110000000  0.4313270000000  0.5457020000000 1.0
C      1  0.5079410000000  0.5227980000000  0.4458960000000 1.0
C      1  0.5680370000000  0.5608040000000  0.5498230000000 1.0
C      1  0.4347210000000  0.4688090000000  0.5278840000000 1.0
C      1  0.5102990000000  0.4648460000000  0.5160350000000 1.0
C      1  0.5444110000000  0.4058480000000  0.4813320000000 1.0
C      1  0.5043720000000  0.4158270000000  0.5950210000000 1.0
C      1  0.5660520000000  0.5802000000000  0.4845050000000 1.0
C      1  0.4911730000000  0.6041710000000  0.4895720000000 1.0
C      1  0.5929940000000  0.4182170000000  0.4841690000000 1.0
C      1  0.6016210000000  0.4077260000000  0.4461840000000 1.0
C      1  0.5002330000000  0.5209070000000  0.4127400000000 1.0
C      1  0.4960910000000  0.5694000000000  0.4255250000000 1.0
C      1  0.4731480000000  0.4495330000000  0.5600610000000 1.0
C      1  0.5275010000000  0.4261170000000  0.4608600000000 1.0
C      1  0.4458080000000  0.5292680000000  0.5576050000000 1.0
C      1  0.5494860000000  0.5147850000000  0.5288370000000 1.0
C      1  0.5546190000000  0.5689250000000  0.5130640000000 1.0
C      1  0.4760030000000  0.4990360000000  0.4493450000000 1.0
C      1  0.4951730000000  0.4395090000000  0.4239050000000 1.0
C      1  0.4831650000000  0.4023590000000  0.5172840000000 1.0
C      1  0.4250140000000  0.4535040000000  0.5634520000000 1.0
C      1  0.4736550000000  0.4470350000000  0.4715960000000 1.0
C      1  0.5472490000000  0.4500750000000  0.4194850000000 1.0
C      1  0.5171140000000  0.5698070000000  0.4991910000000 1.0
C      1  0.5630200000000  0.5261080000000  0.4060350000000 1.0
C      1  0.5041100000000  0.6231280000000  0.5346470000000 1.0
C      1  0.5253010000000  0.5134540000000  0.5851480000000 1.0
C      1  0.5135610000000  0.6041720000000  0.4726870000000 1.0
C      1  0.5014720000000  0.6462180000000  0.5487320000000 1.0
C      1  0.5163690000000  0.3895990000000  0.4721960000000 1.0
C      1  0.5263310000000  0.6060290000000  0.5368110000000 1.0
C      1  0.4029700000000  0.4678360000000  0.4889690000000 1.0
C      1  0.5220600000000  0.4528680000000  0.4797330000000 1.0
C      1  0.4281690000000  0.5150790000000  0.4328420000000 1.0
C      1  0.4724440000000  0.4963380000000  0.4983020000000 1.0
C      1  0.4444090000000  0.4637370000000  0.4707610000000 1.0
C      1  0.5152340000000  0.4848070000000  0.4924760000000 1.0
C      1  0.4529900000000  0.4618590000000  0.5024290000000 1.0
C      1  0.4103610000000  0.4544250000000  0.4264720000000 1.0
C      1  0.4482940000000  0.4593230000000  0.5780280000000 1.0
C      1  0.4136840000000  0.5197960000000  0.6270240000000 1.0
C      1  0.5589500000000  0.5363040000000  0.5072090000000 1.0
C      1  0.5110400000000  0.5333620000000  0.4784500000000 1.0
C      1  0.4975250000000  0.4758190000000  0.3911670000000 1.0
C      1  0.5122470000000  0.5038450000000  0.5591860000000 1.0
C      1  0.4865690000000  0.5482900000000  0.4507750000000 1.0
C      1  0.5593840000000  0.4633750000000  0.4712910000000 1.0
C      1  0.5133990000000  0.4945290000000  0.4052730000000 1.0
C      1  0.4103240000000  0.5141920000000  0.5479850000000 1.0
C      1  0.4661710000000  0.4361770000000  0.5300970000000 1.0
C      1  0.5837620000000  0.5262500000000  0.4285080000000 1.0
C      1  0.4851810000000  0.5739970000000  0.5023130000000 1.0
C      1  0.5991350000000  0.4742160000000  0.4197320000000 1.0
C      1  0.4784620000000  0.5679530000000  0.5352580000000 1.0
C      1  0.5732760000000  0.5003520000000  0.4348350000000 1.0
C      1  0.4388140000000  0.5897250000000  0.4816100000000 1.0
C      1  0.5717550000000  0.4031080000000  0.4962370000000 1.0
C      1  0.4215920000000  0.5048690000000  0.5170320000000 1.0
C      1  0.3966440000000  0.5218500000000  0.4788110000000 1.0
C      1  0.5921810000000  0.5413560000000  0.4532490000000 1.0
C      1  0.3893420000000  0.5510760000000  0.5044140000000 1.0
C      1  0.5475160000000  0.5289740000000  0.5804690000000 1.0
C      1  0.4426930000000  0.5475550000000  0.5097380000000 1.0
C      1  0.5680600000000  0.4733410000000  0.4057320000000 1.0
C      1  0.4944310000000  0.4708780000000  0.5861520000000 1.0
C      1  0.5870780000000  0.4322120000000  0.5305790000000 1.0
C      1  0.5777500000000  0.5219590000000  0.4772140000000 1.0
C      1  0.4104310000000  0.4436110000000  0.4765970000000 1.0
C      1  0.4220530000000  0.4396940000000  0.5146520000000 1.0
C      1  0.4412020000000  0.5652220000000  0.4298730000000 1.0
C      1  0.4886120000000  0.5109470000000  0.6139370000000 1.0
END
