TITL C-2778424-3986-808 0.00163612341010275 125000 -255.820886410627 0 0 44 (C1) n - 1
REM
REM in /home/nfs/bkarasulu/CARBON/AIRSS/Generating-Clusters/REBO/Only-C1/SD-CG/HFTN-CG
REM
REM
REM
REM
REM
REM ./C.cell (11c1c37f851c82e70ff6c80c92926a4b)
REM
REM compiler GCC version 9.2.1 20190827 (Red Hat 9.2.1-1)
REM options -cpp -mtune=generic -march=x86-64 -g -O0 -fpre-include=/usr/include/finclude/math-vector-fortran.h
REM seed 1613795380 -1652099030 -1848613225 991320884 667475597 1985877671 576783521 -483129614 -142496869 753775595 1858010719 -1943152431 206495177 -283279552 116205575 1890565231 111417705 1167902253 511281816 -1380195159 -1726103950 122952323 493597743 -1893902005 1499497982 -596266106 53744297 2074392023 -1296734532 453535606 1383625307 750675253 508633013
REM
CELL 1.54180   50.00000   50.00000   50.00000   90.00000   90.00000   90.00000
LATT -1
SFAC C  
C      1  0.5082260000000  0.4604510000000  0.5426650000000 1.0
C      1  0.4617980000000  0.4329460000000  0.5213950000000 1.0
C      1  0.5275780000000  0.5245880000000  0.4214020000000 1.0
C      1  0.4579420000000  0.4087050000000  0.5131660000000 1.0
C      1  0.4494460000000  0.5094680000000  0.5382700000000 1.0
C      1  0.5384840000000  0.5459880000000  0.5615450000000 1.0
C      1  0.4605820000000  0.4811250000000  0.5504520000000 1.0
C      1  0.4840490000000  0.4655520000000  0.4696370000000 1.0
C      1  0.4534380000000  0.4653250000000  0.5207900000000 1.0
C      1  0.5685140000000  0.5066940000000  0.4358580000000 1.0
C      1  0.5405620000000  0.5433420000000  0.4409440000000 1.0
C      1  0.5348120000000  0.5221910000000  0.5744500000000 1.0
C      1  0.4800200000000  0.4943950000000  0.5723070000000 1.0
C      1  0.5316930000000  0.4940480000000  0.5184770000000 1.0
C      1  0.5063010000000  0.4549360000000  0.4807490000000 1.0
C      1  0.5601290000000  0.5268160000000  0.4560380000000 1.0
C      1  0.5626520000000  0.4882170000000  0.4846950000000 1.0
C      1  0.4695350000000  0.5298850000000  0.5403020000000 1.0
C      1  0.5285500000000  0.5558330000000  0.5383100000000 1.0
C      1  0.4699490000000  0.5188260000000  0.4697980000000 1.0
C      1  0.5483420000000  0.5046760000000  0.4159230000000 1.0
C      1  0.4615440000000  0.5368160000000  0.4903460000000 1.0
C      1  0.5535910000000  0.5161050000000  0.4820250000000 1.0
C      1  0.4996940000000  0.5548300000000  0.4630220000000 1.0
C      1  0.4816530000000  0.5409980000000  0.5150770000000 1.0
C      1  0.4875160000000  0.5309810000000  0.4514820000000 1.0
C      1  0.5410910000000  0.4250710000000  0.4968420000000 1.0
C      1  0.5119940000000  0.5036830000000  0.5650760000000 1.0
C      1  0.4440360000000  0.4845140000000  0.5000910000000 1.0
C      1  0.4976240000000  0.5572970000000  0.4905370000000 1.0
C      1  0.5452580000000  0.4734790000000  0.5023110000000 1.0
C      1  0.5197620000000  0.4852640000000  0.5422580000000 1.0
C      1  0.5236700000000  0.5635080000000  0.4508320000000 1.0
C      1  0.5339350000000  0.5195790000000  0.5041500000000 1.0
C      1  0.4610450000000  0.4897950000000  0.4748420000000 1.0
C      1  0.4997140000000  0.5215870000000  0.4273170000000 1.0
C      1  0.4345120000000  0.5077450000000  0.5139800000000 1.0
C      1  0.4787470000000  0.4546470000000  0.5403470000000 1.0
C      1  0.4540390000000  0.3841650000000  0.5048360000000 1.0
C      1  0.4859930000000  0.5240240000000  0.5620320000000 1.0
C      1  0.5307720000000  0.4500350000000  0.4936910000000 1.0
C      1  0.4603700000000  0.4678150000000  0.4488710000000 1.0
C      1  0.4350160000000  0.5318160000000  0.4990510000000 1.0
C      1  0.5158240000000  0.5422410000000  0.5138110000000 1.0
END
