TITL C-2778423-5760-697 -0.00127913748113753 125000 -201.186091838374 0 0 35 (C1) n - 1
REM
REM in /home/nfs/bkarasulu/CARBON/AIRSS/Generating-Clusters/REBO/Only-C1/SD-CG/HFTN-CG
REM
REM
REM
REM
REM
REM ./C.cell (11c1c37f851c82e70ff6c80c92926a4b)
REM
REM compiler GCC version 9.2.1 20190827 (Red Hat 9.2.1-1)
REM options -cpp -mtune=generic -march=x86-64 -g -O0 -fpre-include=/usr/include/finclude/math-vector-fortran.h
REM seed 1308041457 -2030747866 -336229112 735793239 -90201929 1894438741 1991161656 1753163445 688175484 -1942939675 69951464 -1314916398 1901338736 -994454356 -2017790338 -745645309 -1025822122 -2009747784 1236282285 948885710 -243140488 343217336 -1414030290 -1698659623 818419610 -791587330 -708950557 -716803199 1154507282 -590204257 -1097091016 -1091490308 1388457009
REM
CELL 1.54180   50.00000   50.00000   50.00000   90.00000   90.00000   90.00000
LATT -1
SFAC C  
C      1  0.5482570000000  0.5613070000000  0.5044320000000 1.0
C      1  0.4573560000000  0.4514480000000  0.5415730000000 1.0
C      1  0.4857320000000  0.5247400000000  0.5420180000000 1.0
C      1  0.4730080000000  0.5167800000000  0.4496030000000 1.0
C      1  0.4740380000000  0.5381330000000  0.4928380000000 1.0
C      1  0.4971780000000  0.4498980000000  0.5414080000000 1.0
C      1  0.5161320000000  0.4444510000000  0.4960040000000 1.0
C      1  0.4495070000000  0.4670150000000  0.5169680000000 1.0
C      1  0.4730990000000  0.4696970000000  0.4981390000000 1.0
C      1  0.5630620000000  0.5018210000000  0.4876530000000 1.0
C      1  0.5119180000000  0.5165410000000  0.4253760000000 1.0
C      1  0.5589830000000  0.5253990000000  0.4749480000000 1.0
C      1  0.5352100000000  0.4765470000000  0.5244890000000 1.0
C      1  0.4758920000000  0.4262740000000  0.5408070000000 1.0
C      1  0.5396500000000  0.5495940000000  0.5274450000000 1.0
C      1  0.4874780000000  0.5424730000000  0.4643570000000 1.0
C      1  0.4531240000000  0.4983910000000  0.5175230000000 1.0
C      1  0.5554250000000  0.4845470000000  0.5069530000000 1.0
C      1  0.4674950000000  0.4751760000000  0.4704600000000 1.0
C      1  0.5443860000000  0.5493940000000  0.4789780000000 1.0
C      1  0.5201080000000  0.4520380000000  0.5234200000000 1.0
C      1  0.5101310000000  0.5416820000000  0.4383050000000 1.0
C      1  0.4707860000000  0.5011150000000  0.5410760000000 1.0
C      1  0.5078790000000  0.4674730000000  0.4786180000000 1.0
C      1  0.4883270000000  0.5427250000000  0.5159600000000 1.0
C      1  0.5165260000000  0.5305760000000  0.5290700000000 1.0
C      1  0.4562930000000  0.5020940000000  0.4680650000000 1.0
C      1  0.4995220000000  0.4826970000000  0.5079640000000 1.0
C      1  0.4776220000000  0.4746060000000  0.5509810000000 1.0
C      1  0.5150380000000  0.4988840000000  0.5336980000000 1.0
C      1  0.4557300000000  0.5155190000000  0.4938840000000 1.0
C      1  0.4926520000000  0.4741850000000  0.4530990000000 1.0
C      1  0.4925930000000  0.4986430000000  0.4366210000000 1.0
C      1  0.5200080000000  0.5527230000000  0.4657440000000 1.0
C      1  0.5098570000000  0.4954130000000  0.5615240000000 1.0
END
