TITL C-2778424-3986-1361 -0.00182643094578629 125000 -993.454029515336 0 0 169 (C1) n - 1
REM
REM in /home/nfs/bkarasulu/CARBON/AIRSS/Generating-Clusters/REBO/Only-C1/SD-CG/HFTN-CG
REM
REM
REM
REM
REM
REM ./C.cell (11c1c37f851c82e70ff6c80c92926a4b)
REM
REM compiler GCC version 9.2.1 20190827 (Red Hat 9.2.1-1)
REM options -cpp -mtune=generic -march=x86-64 -g -O0 -fpre-include=/usr/include/finclude/math-vector-fortran.h
REM seed -1506749510 721884671 -1701693042 -190842209 -518348911 391231378 1110108739 1601519407 1136830769 1759655433 1522465929 428556391 1136165321 687390278 -710151988 -1413835517 1526464335 1564225677 1491726275 -1176338116 1549189101 484779200 -5704733 -1922040129 992832956 -1437143183 -1022146930 -359306010 530152439 360973846 -663291759 1989179272 -553731451
REM
CELL 1.54180   50.00000   50.00000   50.00000   90.00000   90.00000   90.00000
LATT -1
SFAC C  
C      1  0.5546540000000  0.5317330000000  0.4875960000000 1.0
C      1  0.4962970000000  0.5390630000000  0.3943350000000 1.0
C      1  0.4740020000000  0.4472550000000  0.4726550000000 1.0
C      1  0.5846460000000  0.5423110000000  0.5585600000000 1.0
C      1  0.4880840000000  0.4570870000000  0.3947060000000 1.0
C      1  0.5815870000000  0.5024520000000  0.4386450000000 1.0
C      1  0.4289760000000  0.5285250000000  0.4334890000000 1.0
C      1  0.5049700000000  0.4612030000000  0.6010510000000 1.0
C      1  0.5178070000000  0.4671220000000  0.5722170000000 1.0
C      1  0.5518100000000  0.4898270000000  0.4300430000000 1.0
C      1  0.4951840000000  0.5706800000000  0.4840080000000 1.0
C      1  0.6011930000000  0.4703730000000  0.5509890000000 1.0
C      1  0.4223680000000  0.5262720000000  0.5635880000000 1.0
C      1  0.6035540000000  0.5269330000000  0.5414920000000 1.0
C      1  0.5341110000000  0.4872270000000  0.5495210000000 1.0
C      1  0.5702710000000  0.5138560000000  0.5241890000000 1.0
C      1  0.5341670000000  0.5660920000000  0.5750830000000 1.0
C      1  0.5408330000000  0.5576470000000  0.5367920000000 1.0
C      1  0.4919210000000  0.4875780000000  0.4470520000000 1.0
C      1  0.4982950000000  0.4849820000000  0.4781970000000 1.0
C      1  0.5813710000000  0.5733270000000  0.5172780000000 1.0
C      1  0.5166440000000  0.5326870000000  0.4396580000000 1.0
C      1  0.4310150000000  0.5213320000000  0.5224960000000 1.0
C      1  0.5289090000000  0.4264040000000  0.5530040000000 1.0
C      1  0.4684510000000  0.5551200000000  0.4040210000000 1.0
C      1  0.4581640000000  0.5115820000000  0.5963700000000 1.0
C      1  0.5603430000000  0.5641690000000  0.4784910000000 1.0
C      1  0.4403840000000  0.4699660000000  0.5704060000000 1.0
C      1  0.5578010000000  0.4273500000000  0.4432280000000 1.0
C      1  0.5474930000000  0.4498840000000  0.5691370000000 1.0
C      1  0.4420250000000  0.5884930000000  0.4544630000000 1.0
C      1  0.4854410000000  0.4010540000000  0.4649920000000 1.0
C      1  0.4012510000000  0.5160170000000  0.4846960000000 1.0
C      1  0.5586020000000  0.5190770000000  0.4562030000000 1.0
C      1  0.5667340000000  0.5276430000000  0.5760640000000 1.0
C      1  0.5223900000000  0.4395330000000  0.5028040000000 1.0
C      1  0.5476730000000  0.5860390000000  0.5515370000000 1.0
C      1  0.5417900000000  0.4172490000000  0.4715990000000 1.0
C      1  0.5247470000000  0.5385450000000  0.5565350000000 1.0
C      1  0.4409240000000  0.4158530000000  0.4702620000000 1.0
C      1  0.5885450000000  0.5346700000000  0.4611240000000 1.0
C      1  0.5735660000000  0.5470990000000  0.4331860000000 1.0
C      1  0.4834320000000  0.4225530000000  0.5789680000000 1.0
C      1  0.4471550000000  0.4711110000000  0.5317250000000 1.0
C      1  0.5537080000000  0.4687780000000  0.5317560000000 1.0
C      1  0.4723730000000  0.4815360000000  0.3906460000000 1.0
C      1  0.4117800000000  0.5451680000000  0.5375370000000 1.0
C      1  0.4777040000000  0.5346390000000  0.4484750000000 1.0
C      1  0.5088740000000  0.4308180000000  0.4331220000000 1.0
C      1  0.4350100000000  0.5709490000000  0.5357050000000 1.0
C      1  0.4651880000000  0.4039840000000  0.5100210000000 1.0
C      1  0.4145450000000  0.5747440000000  0.5111610000000 1.0
C      1  0.4188130000000  0.4254840000000  0.4842450000000 1.0
C      1  0.5302020000000  0.4488220000000  0.4179530000000 1.0
C      1  0.5474860000000  0.5450800000000  0.5915930000000 1.0
C      1  0.4411780000000  0.4893190000000  0.4659490000000 1.0
C      1  0.4815180000000  0.4473210000000  0.5975560000000 1.0
C      1  0.6111920000000  0.4982160000000  0.5423330000000 1.0
C      1  0.4541850000000  0.4338300000000  0.4480010000000 1.0
C      1  0.5938500000000  0.4641070000000  0.4803190000000 1.0
C      1  0.4724800000000  0.5556420000000  0.5246490000000 1.0
C      1  0.4967400000000  0.5453200000000  0.5147080000000 1.0
C      1  0.5333100000000  0.5934550000000  0.5071620000000 1.0
C      1  0.5188710000000  0.5490210000000  0.4885270000000 1.0
C      1  0.4177110000000  0.4926540000000  0.5659620000000 1.0
C      1  0.4028170000000  0.5432760000000  0.5045400000000 1.0
C      1  0.5012760000000  0.4377010000000  0.4652470000000 1.0
C      1  0.4897010000000  0.5722200000000  0.4340690000000 1.0
C      1  0.5886500000000  0.4496300000000  0.5292340000000 1.0
C      1  0.4706190000000  0.4494730000000  0.5052060000000 1.0
C      1  0.4660750000000  0.4868230000000  0.5549760000000 1.0
C      1  0.4747680000000  0.4398870000000  0.4143510000000 1.0
C      1  0.5528470000000  0.4497650000000  0.4689210000000 1.0
C      1  0.5772080000000  0.5693040000000  0.5479310000000 1.0
C      1  0.4501430000000  0.6069140000000  0.5038920000000 1.0
C      1  0.4232630000000  0.5597980000000  0.4828280000000 1.0
C      1  0.4913050000000  0.5868080000000  0.4586400000000 1.0
C      1  0.5200460000000  0.4594930000000  0.4488390000000 1.0
C      1  0.3883280000000  0.4855570000000  0.4925330000000 1.0
C      1  0.5161730000000  0.4634250000000  0.3963880000000 1.0
C      1  0.4669240000000  0.4489880000000  0.5665970000000 1.0
C      1  0.5614710000000  0.4244520000000  0.4983850000000 1.0
C      1  0.5798870000000  0.4282540000000  0.4697820000000 1.0
C      1  0.5775780000000  0.4874350000000  0.5236850000000 1.0
C      1  0.5933900000000  0.5319380000000  0.5114870000000 1.0
C      1  0.4074990000000  0.4821730000000  0.4645040000000 1.0
C      1  0.4900870000000  0.5069260000000  0.3975420000000 1.0
C      1  0.4487300000000  0.4954260000000  0.4973280000000 1.0
C      1  0.5131760000000  0.4101100000000  0.4776010000000 1.0
C      1  0.5999870000000  0.4838560000000  0.4531140000000 1.0
C      1  0.4032770000000  0.4866880000000  0.5430450000000 1.0
C      1  0.5025680000000  0.5251500000000  0.5875300000000 1.0
C      1  0.5306410000000  0.5209710000000  0.5918820000000 1.0
C      1  0.5136950000000  0.4070280000000  0.5086970000000 1.0
C      1  0.5536430000000  0.5630610000000  0.4497250000000 1.0
C      1  0.4159640000000  0.4940600000000  0.5201310000000 1.0
C      1  0.4988120000000  0.4111020000000  0.5583730000000 1.0
C      1  0.4406430000000  0.4476160000000  0.5092560000000 1.0
C      1  0.4349280000000  0.5056300000000  0.4089260000000 1.0
C      1  0.4816090000000  0.5401760000000  0.4775710000000 1.0
C      1  0.5506430000000  0.4716070000000  0.5942550000000 1.0
C      1  0.5000680000000  0.4638760000000  0.5013840000000 1.0
C      1  0.5243040000000  0.4948180000000  0.5115110000000 1.0
C      1  0.4980880000000  0.5149490000000  0.4890670000000 1.0
C      1  0.5048840000000  0.5145090000000  0.5487320000000 1.0
C      1  0.5308280000000  0.4678630000000  0.6132540000000 1.0
C      1  0.5583340000000  0.4590530000000  0.4304460000000 1.0
C      1  0.4206030000000  0.4230610000000  0.5166120000000 1.0
C      1  0.4894110000000  0.5132280000000  0.5203920000000 1.0
C      1  0.4844260000000  0.5443910000000  0.5740420000000 1.0
C      1  0.4583870000000  0.5744930000000  0.4276070000000 1.0
C      1  0.4696640000000  0.6049110000000  0.4613220000000 1.0
C      1  0.4877170000000  0.5906830000000  0.5358270000000 1.0
C      1  0.4573190000000  0.5280260000000  0.4147760000000 1.0
C      1  0.4846680000000  0.5025180000000  0.5964490000000 1.0
C      1  0.5059880000000  0.4787070000000  0.5314830000000 1.0
C      1  0.4505890000000  0.4587260000000  0.4261500000000 1.0
C      1  0.4874860000000  0.5693190000000  0.5623670000000 1.0
C      1  0.5473190000000  0.4379310000000  0.5263290000000 1.0
C      1  0.4569970000000  0.5930180000000  0.5280790000000 1.0
C      1  0.4816430000000  0.5123700000000  0.4292410000000 1.0
C      1  0.5308370000000  0.5079140000000  0.4814010000000 1.0
C      1  0.4497840000000  0.5433850000000  0.4755190000000 1.0
C      1  0.5594780000000  0.5861780000000  0.4979090000000 1.0
C      1  0.4312680000000  0.4456610000000  0.5477930000000 1.0
C      1  0.5253630000000  0.5287150000000  0.5145760000000 1.0
C      1  0.4808350000000  0.4159390000000  0.4375450000000 1.0
C      1  0.5435200000000  0.5177710000000  0.5377730000000 1.0
C      1  0.5266460000000  0.5253340000000  0.4018230000000 1.0
C      1  0.4184120000000  0.5120600000000  0.4554530000000 1.0
C      1  0.4627860000000  0.4723350000000  0.4532450000000 1.0
C      1  0.4293960000000  0.5162730000000  0.5949170000000 1.0
C      1  0.4554490000000  0.5324980000000  0.5695630000000 1.0
C      1  0.5141910000000  0.3884570000000  0.5266070000000 1.0
C      1  0.3885840000000  0.4660900000000  0.5121150000000 1.0
C      1  0.5197690000000  0.5013560000000  0.4329780000000 1.0
C      1  0.5083390000000  0.4389190000000  0.5318140000000 1.0
C      1  0.4395810000000  0.5553860000000  0.4467250000000 1.0
C      1  0.4628370000000  0.4018630000000  0.4826150000000 1.0
C      1  0.5035120000000  0.5507970000000  0.4227180000000 1.0
C      1  0.4338320000000  0.5222250000000  0.4908180000000 1.0
C      1  0.4110010000000  0.4521860000000  0.4780870000000 1.0
C      1  0.5762520000000  0.4501370000000  0.5587790000000 1.0
C      1  0.5487050000000  0.4754210000000  0.4990020000000 1.0
C      1  0.4034870000000  0.4495810000000  0.5282450000000 1.0
C      1  0.4806700000000  0.4075390000000  0.5370780000000 1.0
C      1  0.4482920000000  0.4186810000000  0.5357760000000 1.0
C      1  0.4946710000000  0.4913140000000  0.5677090000000 1.0
C      1  0.4469130000000  0.4802860000000  0.4043220000000 1.0
C      1  0.5067520000000  0.5868640000000  0.5090430000000 1.0
C      1  0.5298150000000  0.5463860000000  0.4600800000000 1.0
C      1  0.5495430000000  0.4982330000000  0.5781900000000 1.0
C      1  0.5753590000000  0.4543130000000  0.5015470000000 1.0
C      1  0.5585510000000  0.5505920000000  0.5157170000000 1.0
C      1  0.6085020000000  0.4948220000000  0.4835440000000 1.0
C      1  0.4255510000000  0.4729090000000  0.4986050000000 1.0
C      1  0.4509890000000  0.5413020000000  0.5394210000000 1.0
C      1  0.5190800000000  0.6029320000000  0.5434110000000 1.0
C      1  0.4288540000000  0.5923760000000  0.4856680000000 1.0
C      1  0.5867210000000  0.4540310000000  0.4484780000000 1.0
C      1  0.5194370000000  0.4928380000000  0.3998930000000 1.0
C      1  0.4826300000000  0.4545220000000  0.5368980000000 1.0
C      1  0.4679330000000  0.6195650000000  0.4856910000000 1.0
C      1  0.5112500000000  0.5850990000000  0.5675890000000 1.0
C      1  0.6055470000000  0.4832470000000  0.5134030000000 1.0
C      1  0.5373490000000  0.4777300000000  0.4677460000000 1.0
C      1  0.5515240000000  0.5233100000000  0.4226570000000 1.0
C      1  0.6012550000000  0.5247770000000  0.4845610000000 1.0
C      1  0.4655590000000  0.4968200000000  0.5230300000000 1.0
END
