TITL C-2778422-5617-1305 -0.00149821267942311 125000 -458.260835646185 0 0 78 (C1) n - 1
REM
REM in /home/nfs/bkarasulu/CARBON/AIRSS/Generating-Clusters/REBO/Only-C1/SD-CG/HFTN-CG
REM
REM
REM
REM
REM
REM ./C.cell (11c1c37f851c82e70ff6c80c92926a4b)
REM
REM compiler GCC version 9.2.1 20190827 (Red Hat 9.2.1-1)
REM options -cpp -mtune=generic -march=x86-64 -g -O0 -fpre-include=/usr/include/finclude/math-vector-fortran.h
REM seed -1129871109 246088840 -1694409840 -1692908828 1649733493 -667632951 1502277972 1610987490 1678470713 621394828 -1545943035 1240653230 -431352264 -313696716 614003033 -152286466 853760021 -1490118518 209492881 1993245324 1845906398 1753287357 -1154455749 -736903590 1341172900 1823387042 1491868565 -878037003 -163449447 1985807462 1620453956 538992587 276953512
REM
CELL 1.54180   50.00000   50.00000   50.00000   90.00000   90.00000   90.00000
LATT -1
SFAC C  
C      1  0.4807500000000  0.4205050000000  0.4971210000000 1.0
C      1  0.5490400000000  0.4467680000000  0.4807550000000 1.0
C      1  0.4764760000000  0.5009790000000  0.4678870000000 1.0
C      1  0.4824220000000  0.4757090000000  0.4887730000000 1.0
C      1  0.4606250000000  0.4765840000000  0.4552480000000 1.0
C      1  0.4714800000000  0.4568630000000  0.5330810000000 1.0
C      1  0.5044970000000  0.4786460000000  0.5736670000000 1.0
C      1  0.5458130000000  0.5107160000000  0.4980500000000 1.0
C      1  0.4524440000000  0.4223210000000  0.5080320000000 1.0
C      1  0.4508360000000  0.5645560000000  0.4641230000000 1.0
C      1  0.5395710000000  0.4684970000000  0.4560260000000 1.0
C      1  0.5307730000000  0.5473390000000  0.5414280000000 1.0
C      1  0.5423170000000  0.5637020000000  0.4737080000000 1.0
C      1  0.5711170000000  0.5147110000000  0.4674040000000 1.0
C      1  0.5531560000000  0.4475150000000  0.5204090000000 1.0
C      1  0.4788440000000  0.4607610000000  0.4396730000000 1.0
C      1  0.4895290000000  0.5376350000000  0.4386740000000 1.0
C      1  0.4841980000000  0.5625940000000  0.5179710000000 1.0
C      1  0.4395340000000  0.5108970000000  0.5267210000000 1.0
C      1  0.5025340000000  0.5614840000000  0.4416830000000 1.0
C      1  0.5155320000000  0.5755310000000  0.4625130000000 1.0
C      1  0.4820730000000  0.4824950000000  0.5189310000000 1.0
C      1  0.4502630000000  0.4809800000000  0.5631560000000 1.0
C      1  0.5781020000000  0.4917550000000  0.4821150000000 1.0
C      1  0.4584380000000  0.5607610000000  0.5484140000000 1.0
C      1  0.5104580000000  0.5085190000000  0.5477600000000 1.0
C      1  0.4219350000000  0.4924770000000  0.4858680000000 1.0
C      1  0.5073070000000  0.5664110000000  0.5428580000000 1.0
C      1  0.4873610000000  0.5245310000000  0.5588990000000 1.0
C      1  0.4833850000000  0.5520790000000  0.5564740000000 1.0
C      1  0.5098610000000  0.5269440000000  0.4924850000000 1.0
C      1  0.5558000000000  0.5108760000000  0.4441750000000 1.0
C      1  0.5236970000000  0.5371030000000  0.4694440000000 1.0
C      1  0.4713300000000  0.5831590000000  0.4773660000000 1.0
C      1  0.5118080000000  0.4791770000000  0.5317760000000 1.0
C      1  0.4406840000000  0.4658310000000  0.4777660000000 1.0
C      1  0.5145590000000  0.4458620000000  0.4611890000000 1.0
C      1  0.4831630000000  0.5314920000000  0.5083430000000 1.0
C      1  0.5026350000000  0.4256480000000  0.5147410000000 1.0
C      1  0.4683990000000  0.5289180000000  0.4597080000000 1.0
C      1  0.4240260000000  0.5210970000000  0.4843800000000 1.0
C      1  0.5240540000000  0.5205180000000  0.5214790000000 1.0
C      1  0.5059490000000  0.4976890000000  0.4575890000000 1.0
C      1  0.4316300000000  0.5319810000000  0.5098640000000 1.0
C      1  0.4774360000000  0.4769520000000  0.5776020000000 1.0
C      1  0.4283650000000  0.4686210000000  0.5094210000000 1.0
C      1  0.5598960000000  0.5377370000000  0.4863010000000 1.0
C      1  0.4475820000000  0.4465800000000  0.5221460000000 1.0
C      1  0.5311200000000  0.4707330000000  0.5086800000000 1.0
C      1  0.5450090000000  0.5611060000000  0.5067200000000 1.0
C      1  0.4334860000000  0.4841480000000  0.5374650000000 1.0
C      1  0.5114520000000  0.4682250000000  0.4839310000000 1.0
C      1  0.5584680000000  0.4732070000000  0.5376270000000 1.0
C      1  0.5077690000000  0.5122640000000  0.4268100000000 1.0
C      1  0.5306150000000  0.5261940000000  0.4445650000000 1.0
C      1  0.4503540000000  0.5575270000000  0.5170210000000 1.0
C      1  0.5034370000000  0.4737880000000  0.4349090000000 1.0
C      1  0.4679930000000  0.4467940000000  0.4805220000000 1.0
C      1  0.5479470000000  0.5206620000000  0.5537420000000 1.0
C      1  0.5600570000000  0.5028710000000  0.5275420000000 1.0
C      1  0.5154170000000  0.5747290000000  0.5115560000000 1.0
C      1  0.5057620000000  0.4070570000000  0.4614620000000 1.0
C      1  0.5153110000000  0.4541610000000  0.5549710000000 1.0
C      1  0.5334860000000  0.4892490000000  0.4300260000000 1.0
C      1  0.5309900000000  0.4286480000000  0.5038600000000 1.0
C      1  0.5319340000000  0.4184850000000  0.4722930000000 1.0
C      1  0.4713660000000  0.5099060000000  0.5253600000000 1.0
C      1  0.5320990000000  0.4946850000000  0.4767990000000 1.0
C      1  0.5618960000000  0.4739630000000  0.4935170000000 1.0
C      1  0.4989340000000  0.5826170000000  0.4842860000000 1.0
C      1  0.4945220000000  0.4400890000000  0.5375880000000 1.0
C      1  0.4355100000000  0.5353470000000  0.4618700000000 1.0
C      1  0.5311500000000  0.4999830000000  0.5717140000000 1.0
C      1  0.4849660000000  0.4295700000000  0.4575590000000 1.0
C      1  0.4629460000000  0.5087710000000  0.5585260000000 1.0
C      1  0.5597570000000  0.5373070000000  0.5261600000000 1.0
C      1  0.4629770000000  0.5457810000000  0.4886150000000 1.0
C      1  0.5415850000000  0.4716310000000  0.5611070000000 1.0
END
