TITL C-2778427-5640-919 -0.000486708310904976 125000 -355.836661155173 0 0 61 (C1) n - 1
REM
REM in /home/nfs/bkarasulu/CARBON/AIRSS/Generating-Clusters/REBO/Only-C1/SD-CG/HFTN-CG
REM
REM
REM
REM
REM
REM ./C.cell (11c1c37f851c82e70ff6c80c92926a4b)
REM
REM compiler GCC version 9.2.1 20190827 (Red Hat 9.2.1-1)
REM options -cpp -mtune=generic -march=x86-64 -g -O0 -fpre-include=/usr/include/finclude/math-vector-fortran.h
REM seed -1506601734 -1580168269 -594431579 1930284233 512792980 -1852192958 -1337838038 -438429051 1011332560 858839622 621309173 1358097955 1645709247 1534442862 -516666621 1190143314 108552824 -801539803 -1043903545 248339284 1354302133 1080288558 1130315083 -318279466 -304029090 666102754 1479488781 -1474732974 -2037544204 1260187635 -1347991113 -929705939 1616592002
REM
CELL 1.54180   50.00000   50.00000   50.00000   90.00000   90.00000   90.00000
LATT -1
SFAC C  
C      1  0.5332830000000  0.5427930000000  0.5215680000000 1.0
C      1  0.5518120000000  0.5402770000000  0.4605240000000 1.0
C      1  0.5408040000000  0.5147870000000  0.4573300000000 1.0
C      1  0.5190260000000  0.4267860000000  0.5280440000000 1.0
C      1  0.5421310000000  0.4954120000000  0.5489580000000 1.0
C      1  0.5093520000000  0.5315250000000  0.5653670000000 1.0
C      1  0.5352930000000  0.4479390000000  0.5390010000000 1.0
C      1  0.5119060000000  0.4192560000000  0.4796130000000 1.0
C      1  0.4870860000000  0.5760480000000  0.5007490000000 1.0
C      1  0.5112470000000  0.4463310000000  0.4707080000000 1.0
C      1  0.4865920000000  0.4807870000000  0.4402470000000 1.0
C      1  0.4564750000000  0.5416260000000  0.5012690000000 1.0
C      1  0.4491300000000  0.5575780000000  0.4763400000000 1.0
C      1  0.4402170000000  0.5274300000000  0.5393910000000 1.0
C      1  0.5634890000000  0.5362190000000  0.5321440000000 1.0
C      1  0.5299710000000  0.5218100000000  0.5482510000000 1.0
C      1  0.4577770000000  0.4734100000000  0.4293160000000 1.0
C      1  0.5094080000000  0.4954870000000  0.5263080000000 1.0
C      1  0.4938510000000  0.5063630000000  0.4486920000000 1.0
C      1  0.4459940000000  0.4835550000000  0.5317020000000 1.0
C      1  0.4847600000000  0.4936480000000  0.5755670000000 1.0
C      1  0.5664220000000  0.4865370000000  0.5293280000000 1.0
C      1  0.5125820000000  0.5757340000000  0.4878550000000 1.0
C      1  0.4536200000000  0.5330850000000  0.4575410000000 1.0
C      1  0.5099640000000  0.5730800000000  0.4594220000000 1.0
C      1  0.5557350000000  0.5585390000000  0.4803530000000 1.0
C      1  0.4646010000000  0.5820750000000  0.4826130000000 1.0
C      1  0.4833450000000  0.5216130000000  0.5707970000000 1.0
C      1  0.5674560000000  0.4859870000000  0.4273200000000 1.0
C      1  0.5143170000000  0.5066300000000  0.4721060000000 1.0
C      1  0.4530700000000  0.4756590000000  0.4602090000000 1.0
C      1  0.5023900000000  0.4169910000000  0.5064310000000 1.0
C      1  0.4955840000000  0.5551070000000  0.4446680000000 1.0
C      1  0.5697570000000  0.4832450000000  0.4764080000000 1.0
C      1  0.4725700000000  0.4642350000000  0.5381730000000 1.0
C      1  0.4747670000000  0.4250350000000  0.5073420000000 1.0
C      1  0.4380180000000  0.4509340000000  0.4877360000000 1.0
C      1  0.4898100000000  0.5073030000000  0.4957280000000 1.0
C      1  0.4601180000000  0.5155620000000  0.4927720000000 1.0
C      1  0.5596380000000  0.4936790000000  0.4520940000000 1.0
C      1  0.4400740000000  0.4756180000000  0.5009780000000 1.0
C      1  0.4258930000000  0.5194640000000  0.5179520000000 1.0
C      1  0.4206730000000  0.5095250000000  0.4932330000000 1.0
C      1  0.5260940000000  0.4714120000000  0.5530770000000 1.0
C      1  0.4798760000000  0.5314260000000  0.4456370000000 1.0
C      1  0.5541830000000  0.4478460000000  0.4954570000000 1.0
C      1  0.5583390000000  0.4550530000000  0.5229730000000 1.0
C      1  0.4805470000000  0.5513840000000  0.5148780000000 1.0
C      1  0.5564890000000  0.4874460000000  0.4996880000000 1.0
C      1  0.4821890000000  0.4573520000000  0.4645740000000 1.0
C      1  0.4597640000000  0.5304940000000  0.5578280000000 1.0
C      1  0.4956580000000  0.4776150000000  0.5517690000000 1.0
C      1  0.5315790000000  0.4608350000000  0.4832560000000 1.0
C      1  0.5033240000000  0.5282390000000  0.5192240000000 1.0
C      1  0.5765020000000  0.5154920000000  0.5368720000000 1.0
C      1  0.4425460000000  0.5031270000000  0.4693820000000 1.0
C      1  0.5247730000000  0.4884640000000  0.4975700000000 1.0
C      1  0.5353480000000  0.5634090000000  0.4992840000000 1.0
C      1  0.4668810000000  0.4348130000000  0.5328660000000 1.0
C      1  0.4633830000000  0.4384350000000  0.4838320000000 1.0
C      1  0.4725160000000  0.4824560000000  0.5096830000000 1.0
END
