TITL C-2778426-5645-517 0.000466960309340836 125000 -333.894569548761 0 0 57 (C1) n - 1
REM
REM in /home/nfs/bkarasulu/CARBON/AIRSS/Generating-Clusters/REBO/Only-C1/SD-CG/HFTN-CG
REM
REM
REM
REM
REM
REM ./C.cell (11c1c37f851c82e70ff6c80c92926a4b)
REM
REM compiler GCC version 9.2.1 20190827 (Red Hat 9.2.1-1)
REM options -cpp -mtune=generic -march=x86-64 -g -O0 -fpre-include=/usr/include/finclude/math-vector-fortran.h
REM seed 1981540214 228115005 1106805152 1361911770 1599422372 -2050123137 945723799 -981422077 1997661896 -103890572 529024587 -460784698 -1990833978 -1586157849 1938322149 1993916975 -566472608 -710978255 1821197965 1085582036 1755037122 1069100559 1010162448 447713055 1997193409 994524843 -825810964 -1661967303 178380116 1142247082 1441974377 436158282 -1773273183
REM
CELL 1.54180   50.00000   50.00000   50.00000   90.00000   90.00000   90.00000
LATT -1
SFAC C  
C      1  0.4431540000000  0.5194860000000  0.4851530000000 1.0
C      1  0.4279930000000  0.4707220000000  0.5432320000000 1.0
C      1  0.4931540000000  0.4594360000000  0.5080460000000 1.0
C      1  0.5779340000000  0.4886520000000  0.4505380000000 1.0
C      1  0.4767870000000  0.5441120000000  0.4617260000000 1.0
C      1  0.5443030000000  0.5188400000000  0.4746280000000 1.0
C      1  0.4545000000000  0.4398590000000  0.5122800000000 1.0
C      1  0.4382580000000  0.4935020000000  0.4982600000000 1.0
C      1  0.5600530000000  0.4894480000000  0.4776080000000 1.0
C      1  0.5420650000000  0.4722950000000  0.4568710000000 1.0
C      1  0.5165830000000  0.5353810000000  0.5636270000000 1.0
C      1  0.4957420000000  0.4711340000000  0.5399440000000 1.0
C      1  0.4651600000000  0.5145600000000  0.4645060000000 1.0
C      1  0.4971350000000  0.4561740000000  0.4594950000000 1.0
C      1  0.5185390000000  0.5056310000000  0.4588600000000 1.0
C      1  0.5443990000000  0.4845330000000  0.5496330000000 1.0
C      1  0.5232550000000  0.4491950000000  0.5203310000000 1.0
C      1  0.5704730000000  0.5301040000000  0.5176450000000 1.0
C      1  0.4232120000000  0.4816360000000  0.5185720000000 1.0
C      1  0.5110590000000  0.5571950000000  0.5540280000000 1.0
C      1  0.4611340000000  0.4858130000000  0.4528020000000 1.0
C      1  0.4676300000000  0.5603260000000  0.4843950000000 1.0
C      1  0.5294480000000  0.4384650000000  0.4902750000000 1.0
C      1  0.4985670000000  0.4850320000000  0.5683180000000 1.0
C      1  0.5249990000000  0.4518220000000  0.4652420000000 1.0
C      1  0.4501740000000  0.5425640000000  0.5007340000000 1.0
C      1  0.5714060000000  0.5253990000000  0.4906950000000 1.0
C      1  0.4774190000000  0.4917670000000  0.5254520000000 1.0
C      1  0.5255080000000  0.5143170000000  0.5308600000000 1.0
C      1  0.4832190000000  0.4538650000000  0.4841550000000 1.0
C      1  0.4686060000000  0.4879170000000  0.5639770000000 1.0
C      1  0.5646350000000  0.4897940000000  0.4288690000000 1.0
C      1  0.4642600000000  0.5131750000000  0.5444730000000 1.0
C      1  0.5330550000000  0.5600770000000  0.5208010000000 1.0
C      1  0.5449560000000  0.4696870000000  0.5269150000000 1.0
C      1  0.4539950000000  0.4644090000000  0.5536760000000 1.0
C      1  0.4848270000000  0.5803160000000  0.5009750000000 1.0
C      1  0.5219800000000  0.5420330000000  0.4748720000000 1.0
C      1  0.5038130000000  0.5423380000000  0.4529810000000 1.0
C      1  0.4438050000000  0.4508740000000  0.4897510000000 1.0
C      1  0.5049730000000  0.5778650000000  0.5284510000000 1.0
C      1  0.5128720000000  0.5522050000000  0.4991610000000 1.0
C      1  0.4671560000000  0.4433520000000  0.5378180000000 1.0
C      1  0.5327590000000  0.4901570000000  0.4314340000000 1.0
C      1  0.5452780000000  0.5359350000000  0.5293630000000 1.0
C      1  0.5218580000000  0.5035530000000  0.5623260000000 1.0
C      1  0.5012850000000  0.4917640000000  0.4255830000000 1.0
C      1  0.4604890000000  0.5362620000000  0.5284050000000 1.0
C      1  0.4944540000000  0.5039410000000  0.4789210000000 1.0
C      1  0.4980430000000  0.4376620000000  0.5402680000000 1.0
C      1  0.5088500000000  0.5221670000000  0.4306300000000 1.0
C      1  0.4849460000000  0.4749820000000  0.4413620000000 1.0
C      1  0.4692610000000  0.4924660000000  0.4986650000000 1.0
C      1  0.5599470000000  0.4780850000000  0.5058100000000 1.0
C      1  0.4852190000000  0.5513120000000  0.5190690000000 1.0
C      1  0.5097130000000  0.5085820000000  0.5090130000000 1.0
C      1  0.4457040000000  0.4678260000000  0.4685190000000 1.0
END
