TITL C-2778422-5617-1103 -0.00544612966621198 125000 -467.436564505225 0 0 79 (C1) n - 1
REM
REM in /home/nfs/bkarasulu/CARBON/AIRSS/Generating-Clusters/REBO/Only-C1/SD-CG/HFTN-CG
REM
REM
REM
REM
REM
REM ./C.cell (11c1c37f851c82e70ff6c80c92926a4b)
REM
REM compiler GCC version 9.2.1 20190827 (Red Hat 9.2.1-1)
REM options -cpp -mtune=generic -march=x86-64 -g -O0 -fpre-include=/usr/include/finclude/math-vector-fortran.h
REM seed 1660548082 1808215119 -2092214523 1762405820 862980470 -838313830 783647916 -294832171 -395188457 819463053 -1686587003 1077850924 1287020459 -985174996 2008570518 -2116076885 116749923 -1247760028 -1177930921 2121789282 -1459328065 1247999193 -223394737 -883268290 952914576 -373511154 1503131736 -327664573 -1107885669 -1085385562 660146055 -769113861 -1547952823
REM
CELL 1.54180   50.00000   50.00000   50.00000   90.00000   90.00000   90.00000
LATT -1
SFAC C  
C      1  0.5258630000000  0.5476290000000  0.4429530000000 1.0
C      1  0.4123710000000  0.4549060000000  0.5379250000000 1.0
C      1  0.4368840000000  0.4455170000000  0.4843050000000 1.0
C      1  0.5704750000000  0.4924550000000  0.5497380000000 1.0
C      1  0.5492530000000  0.4956780000000  0.4390350000000 1.0
C      1  0.5085980000000  0.4536280000000  0.4335610000000 1.0
C      1  0.5175890000000  0.4826610000000  0.5339930000000 1.0
C      1  0.4557590000000  0.5224760000000  0.4377810000000 1.0
C      1  0.4834460000000  0.5148660000000  0.5558920000000 1.0
C      1  0.5604160000000  0.5304880000000  0.5433040000000 1.0
C      1  0.5626790000000  0.4675640000000  0.5383630000000 1.0
C      1  0.4314750000000  0.4744960000000  0.4851300000000 1.0
C      1  0.4673990000000  0.4317630000000  0.4511690000000 1.0
C      1  0.5224340000000  0.4393110000000  0.4535200000000 1.0
C      1  0.4803730000000  0.4938060000000  0.5052370000000 1.0
C      1  0.5188380000000  0.4820310000000  0.4321370000000 1.0
C      1  0.5274490000000  0.4347230000000  0.4993020000000 1.0
C      1  0.5416990000000  0.4731140000000  0.4842990000000 1.0
C      1  0.4524070000000  0.5210610000000  0.5130230000000 1.0
C      1  0.4138840000000  0.5366990000000  0.5105780000000 1.0
C      1  0.4895070000000  0.4456170000000  0.5397470000000 1.0
C      1  0.5566710000000  0.5151140000000  0.4783420000000 1.0
C      1  0.5403620000000  0.4529270000000  0.5475920000000 1.0
C      1  0.5377940000000  0.5775360000000  0.5101900000000 1.0
C      1  0.5692070000000  0.4853080000000  0.4549770000000 1.0
C      1  0.5829680000000  0.4976910000000  0.4836950000000 1.0
C      1  0.5306970000000  0.5202260000000  0.4324160000000 1.0
C      1  0.5641930000000  0.4667270000000  0.5092410000000 1.0
C      1  0.4823310000000  0.4437110000000  0.4299230000000 1.0
C      1  0.4458820000000  0.4857120000000  0.5460400000000 1.0
C      1  0.4994190000000  0.5579950000000  0.4395070000000 1.0
C      1  0.4809700000000  0.4297380000000  0.4777810000000 1.0
C      1  0.4710790000000  0.4965030000000  0.5383700000000 1.0
C      1  0.4221260000000  0.5294780000000  0.5369710000000 1.0
C      1  0.5348520000000  0.5817600000000  0.4815150000000 1.0
C      1  0.4614870000000  0.4371310000000  0.4990420000000 1.0
C      1  0.4233920000000  0.5042110000000  0.4704890000000 1.0
C      1  0.5047020000000  0.5616800000000  0.5503410000000 1.0
C      1  0.4547280000000  0.5382610000000  0.5409810000000 1.0
C      1  0.3999280000000  0.4801990000000  0.5414870000000 1.0
C      1  0.5065930000000  0.5006470000000  0.4581350000000 1.0
C      1  0.4392910000000  0.4350650000000  0.4573250000000 1.0
C      1  0.5511210000000  0.5555380000000  0.5221930000000 1.0
C      1  0.5119680000000  0.4518770000000  0.5619910000000 1.0
C      1  0.5095150000000  0.4740660000000  0.5827970000000 1.0
C      1  0.5155610000000  0.5849030000000  0.5273480000000 1.0
C      1  0.4414650000000  0.4573270000000  0.5392010000000 1.0
C      1  0.4643720000000  0.4440960000000  0.5269680000000 1.0
C      1  0.5242340000000  0.4899020000000  0.5613950000000 1.0
C      1  0.5289770000000  0.5417300000000  0.5419180000000 1.0
C      1  0.4472820000000  0.4920050000000  0.5067300000000 1.0
C      1  0.5180470000000  0.4503990000000  0.5228840000000 1.0
C      1  0.5093190000000  0.4299400000000  0.4776640000000 1.0
C      1  0.4811010000000  0.5057320000000  0.4754540000000 1.0
C      1  0.5413870000000  0.5595780000000  0.4641610000000 1.0
C      1  0.5967680000000  0.5070310000000  0.5089440000000 1.0
C      1  0.4745470000000  0.5547230000000  0.4519180000000 1.0
C      1  0.4816370000000  0.5464820000000  0.5215900000000 1.0
C      1  0.4539870000000  0.4927250000000  0.4673860000000 1.0
C      1  0.5052400000000  0.5089710000000  0.4192580000000 1.0
C      1  0.5007250000000  0.4771430000000  0.6077640000000 1.0
C      1  0.5339380000000  0.4988340000000  0.4758160000000 1.0
C      1  0.5226800000000  0.6041490000000  0.4718910000000 1.0
C      1  0.5459740000000  0.4514730000000  0.4628790000000 1.0
C      1  0.4199560000000  0.5013960000000  0.5449760000000 1.0
C      1  0.5048820000000  0.5298140000000  0.5256220000000 1.0
C      1  0.4508510000000  0.5382800000000  0.4911560000000 1.0
C      1  0.5858270000000  0.5122650000000  0.5328710000000 1.0
C      1  0.5056220000000  0.5027980000000  0.5194960000000 1.0
C      1  0.5606100000000  0.5420980000000  0.4744160000000 1.0
C      1  0.4866620000000  0.5755640000000  0.5218640000000 1.0
C      1  0.5801220000000  0.4639990000000  0.4791450000000 1.0
C      1  0.4418460000000  0.5451280000000  0.4527120000000 1.0
C      1  0.5473920000000  0.5061520000000  0.5634730000000 1.0
C      1  0.5601350000000  0.4385390000000  0.4906540000000 1.0
C      1  0.4816880000000  0.5437220000000  0.5612570000000 1.0
C      1  0.4734340000000  0.5356060000000  0.4750200000000 1.0
C      1  0.4221320000000  0.5349350000000  0.4775530000000 1.0
C      1  0.4815240000000  0.5129730000000  0.4362880000000 1.0
END
