TITL C-2778428-5639-668 -5.35461225722763e-07 125000 -128.711159217162 0 0 24 (C1) n - 1
REM
REM in /home/nfs/bkarasulu/CARBON/AIRSS/Generating-Clusters/REBO/Only-C1/SD-CG/HFTN-CG
REM
REM
REM
REM
REM
REM ./C.cell (11c1c37f851c82e70ff6c80c92926a4b)
REM
REM compiler GCC version 9.2.1 20190827 (Red Hat 9.2.1-1)
REM options -cpp -mtune=generic -march=x86-64 -g -O0 -fpre-include=/usr/include/finclude/math-vector-fortran.h
REM seed 1962897252 1217056866 -528622771 -120952180 -202581890 -576111376 -1751064009 1791715320 574702185 -1166888781 1835892436 1841384279 -558960903 1313317672 1466080136 -811680135 1743362464 -336906725 1285166036 -1615686245 -249918250 1538255661 1608570948 -798873230 -236227977 1749907425 1934249016 -1782180592 -1841332385 -757504933 1073886189 -1915194453 1280555130
REM
CELL 1.54180   50.00000   50.00000   50.00000   90.00000   90.00000   90.00000
LATT -1
SFAC C  
C      1  0.6026180000000  0.5305350000000  0.5078200000000 1.0
C      1  0.6147280000000  0.5180560000000  0.5610870000000 1.0
C      1  0.4574280000000  0.4090090000000  0.4211650000000 1.0
C      1  0.4670870000000  0.4334640000000  0.4139150000000 1.0
C      1  0.4649950000000  0.5169270000000  0.5330250000000 1.0
C      1  0.4479340000000  0.4892500000000  0.4585940000000 1.0
C      1  0.4591220000000  0.5074000000000  0.5074030000000 1.0
C      1  0.4887640000000  0.4357050000000  0.3975130000000 1.0
C      1  0.5558030000000  0.5255990000000  0.5176410000000 1.0
C      1  0.5727410000000  0.5070640000000  0.5965270000000 1.0
C      1  0.4064510000000  0.5060570000000  0.4017880000000 1.0
C      1  0.4545690000000  0.4566020000000  0.4234470000000 1.0
C      1  0.5162370000000  0.5150630000000  0.5517580000000 1.0
C      1  0.5412350000000  0.5141540000000  0.5608960000000 1.0
C      1  0.5826240000000  0.5250950000000  0.5255330000000 1.0
C      1  0.4535280000000  0.4983250000000  0.4829980000000 1.0
C      1  0.5888520000000  0.5187670000000  0.5525600000000 1.0
C      1  0.4236800000000  0.4933160000000  0.4168760000000 1.0
C      1  0.4420610000000  0.4797230000000  0.4329720000000 1.0
C      1  0.4255290000000  0.5372350000000  0.5640740000000 1.0
C      1  0.4912400000000  0.5159730000000  0.5426190000000 1.0
C      1  0.5306660000000  0.5260710000000  0.5102440000000 1.0
C      1  0.5674820000000  0.5131990000000  0.5704920000000 1.0
C      1  0.4446240000000  0.5274100000000  0.5490520000000 1.0
END
