TITL C-2778432-5617-4 0.00147357593769508 125000 -858.904216274974 0 0 147 (C1) n - 1
REM
REM in /home/nfs/bkarasulu/CARBON/AIRSS/Generating-Clusters/REBO/Only-C1/SD-CG/HFTN-CG
REM
REM
REM
REM
REM
REM ./C.cell (11c1c37f851c82e70ff6c80c92926a4b)
REM
REM compiler GCC version 9.2.1 20190827 (Red Hat 9.2.1-1)
REM options -cpp -mtune=generic -march=x86-64 -g -O0 -fpre-include=/usr/include/finclude/math-vector-fortran.h
REM seed -1887970788 1050168154 393908851 1281322033 1295704269 -489869036 -1693871813 -1655526011 1375172 -127898411 -1876290745 1669543625 -811897173 -765862657 -1873046909 999672472 1687455896 1753854551 258737091 1522370546 2007837039 -379793600 600279939 -1313051966 -728894731 -998693697 -1149623964 560908319 -2042931552 -435140074 -1608243970 1590073532 -282672820
REM
CELL 1.54180   50.00000   50.00000   50.00000   90.00000   90.00000   90.00000
LATT -1
SFAC C  
C      1  0.4387810000000  0.5313070000000  0.4334650000000 1.0
C      1  0.5311400000000  0.5888520000000  0.5487760000000 1.0
C      1  0.5562200000000  0.4235860000000  0.4688730000000 1.0
C      1  0.5013690000000  0.5061320000000  0.4156120000000 1.0
C      1  0.4604850000000  0.4921900000000  0.4906250000000 1.0
C      1  0.4824010000000  0.3961000000000  0.5588630000000 1.0
C      1  0.5913590000000  0.4792250000000  0.5367400000000 1.0
C      1  0.5627380000000  0.4612650000000  0.4519140000000 1.0
C      1  0.4165220000000  0.4943070000000  0.5494440000000 1.0
C      1  0.4966450000000  0.4408620000000  0.5736750000000 1.0
C      1  0.4966440000000  0.4714970000000  0.5892580000000 1.0
C      1  0.4841880000000  0.5580740000000  0.5363220000000 1.0
C      1  0.5050660000000  0.4630860000000  0.4961950000000 1.0
C      1  0.4441380000000  0.4717890000000  0.5275470000000 1.0
C      1  0.5183270000000  0.5250150000000  0.4385110000000 1.0
C      1  0.5205330000000  0.4235400000000  0.5602070000000 1.0
C      1  0.4585150000000  0.4445980000000  0.4321180000000 1.0
C      1  0.4746340000000  0.4971360000000  0.5914610000000 1.0
C      1  0.5590810000000  0.3955680000000  0.4573070000000 1.0
C      1  0.4554770000000  0.4046300000000  0.4695210000000 1.0
C      1  0.5176000000000  0.4803130000000  0.4097160000000 1.0
C      1  0.5321100000000  0.4736390000000  0.4835920000000 1.0
C      1  0.5244040000000  0.4513030000000  0.5193630000000 1.0
C      1  0.4692490000000  0.4948340000000  0.4155020000000 1.0
C      1  0.4668830000000  0.5739070000000  0.4238560000000 1.0
C      1  0.5628880000000  0.4888020000000  0.5366570000000 1.0
C      1  0.5140630000000  0.4606750000000  0.4351670000000 1.0
C      1  0.5716970000000  0.5354410000000  0.4717320000000 1.0
C      1  0.4870620000000  0.4078360000000  0.4686490000000 1.0
C      1  0.5537610000000  0.5699400000000  0.4949970000000 1.0
C      1  0.4936290000000  0.5295940000000  0.5302770000000 1.0
C      1  0.3932050000000  0.4826190000000  0.4759970000000 1.0
C      1  0.5224580000000  0.5496350000000  0.5849300000000 1.0
C      1  0.4008590000000  0.5092940000000  0.4728320000000 1.0
C      1  0.5240200000000  0.4825110000000  0.5921380000000 1.0
C      1  0.4474110000000  0.5139660000000  0.4082690000000 1.0
C      1  0.4958570000000  0.4320620000000  0.4991830000000 1.0
C      1  0.4136060000000  0.5157940000000  0.5229910000000 1.0
C      1  0.5351790000000  0.4426610000000  0.4530180000000 1.0
C      1  0.4918290000000  0.5851050000000  0.4366660000000 1.0
C      1  0.4504240000000  0.5670640000000  0.4686910000000 1.0
C      1  0.5473860000000  0.4237460000000  0.5019190000000 1.0
C      1  0.4811520000000  0.5202560000000  0.5754910000000 1.0
C      1  0.5350940000000  0.4987760000000  0.4700460000000 1.0
C      1  0.5107600000000  0.4937630000000  0.5304770000000 1.0
C      1  0.5568480000000  0.5082540000000  0.5857500000000 1.0
C      1  0.5847070000000  0.4422400000000  0.4672520000000 1.0
C      1  0.5125660000000  0.5582830000000  0.4340420000000 1.0
C      1  0.5669870000000  0.5081880000000  0.4916170000000 1.0
C      1  0.4898160000000  0.5523790000000  0.5753910000000 1.0
C      1  0.4803100000000  0.4822080000000  0.5409590000000 1.0
C      1  0.4745540000000  0.5269970000000  0.4507580000000 1.0
C      1  0.5427800000000  0.5072740000000  0.5547670000000 1.0
C      1  0.5752200000000  0.4272840000000  0.5885380000000 1.0
C      1  0.4155500000000  0.5351510000000  0.4847920000000 1.0
C      1  0.4454430000000  0.5280680000000  0.4988590000000 1.0
C      1  0.4826930000000  0.5932930000000  0.5179100000000 1.0
C      1  0.4251830000000  0.4617590000000  0.5513080000000 1.0
C      1  0.4364080000000  0.5165640000000  0.3845080000000 1.0
C      1  0.4792650000000  0.5120420000000  0.5483530000000 1.0
C      1  0.5495880000000  0.5524400000000  0.5707340000000 1.0
C      1  0.5385160000000  0.5962570000000  0.4939210000000 1.0
C      1  0.4350250000000  0.4336550000000  0.5340390000000 1.0
C      1  0.5454460000000  0.4246210000000  0.5760900000000 1.0
C      1  0.4913870000000  0.4718770000000  0.4533420000000 1.0
C      1  0.5066970000000  0.5745940000000  0.5557690000000 1.0
C      1  0.4729440000000  0.4195360000000  0.5695990000000 1.0
C      1  0.4577940000000  0.4484820000000  0.5134270000000 1.0
C      1  0.4613350000000  0.4525550000000  0.4860310000000 1.0
C      1  0.5349340000000  0.5064880000000  0.6052310000000 1.0
C      1  0.4311950000000  0.5490310000000  0.4605910000000 1.0
C      1  0.4662190000000  0.5478250000000  0.5087080000000 1.0
C      1  0.4391710000000  0.4700530000000  0.4758230000000 1.0
C      1  0.4779690000000  0.4957120000000  0.4459450000000 1.0
C      1  0.4353600000000  0.5743370000000  0.5172370000000 1.0
C      1  0.4581160000000  0.5606260000000  0.5659570000000 1.0
C      1  0.4130740000000  0.4633270000000  0.4686260000000 1.0
C      1  0.5425690000000  0.4752630000000  0.5682870000000 1.0
C      1  0.4976700000000  0.5397950000000  0.4670350000000 1.0
C      1  0.5065080000000  0.4003260000000  0.5393510000000 1.0
C      1  0.5603040000000  0.5173740000000  0.5202890000000 1.0
C      1  0.5091010000000  0.5818300000000  0.5165340000000 1.0
C      1  0.5697390000000  0.5313180000000  0.5713890000000 1.0
C      1  0.4300580000000  0.5565810000000  0.5459040000000 1.0
C      1  0.5598770000000  0.4528680000000  0.5759520000000 1.0
C      1  0.5783510000000  0.4809600000000  0.4745130000000 1.0
C      1  0.5569820000000  0.5048770000000  0.4507820000000 1.0
C      1  0.4971900000000  0.5393880000000  0.4096150000000 1.0
C      1  0.4153380000000  0.5467330000000  0.5168790000000 1.0
C      1  0.5670940000000  0.5646740000000  0.5249060000000 1.0
C      1  0.5480530000000  0.4823960000000  0.4067800000000 1.0
C      1  0.4448540000000  0.4609900000000  0.5765120000000 1.0
C      1  0.4205750000000  0.4366450000000  0.5050380000000 1.0
C      1  0.5896800000000  0.5088810000000  0.4601150000000 1.0
C      1  0.4320300000000  0.4257560000000  0.4823540000000 1.0
C      1  0.4812380000000  0.4494870000000  0.4673080000000 1.0
C      1  0.4039900000000  0.4832830000000  0.5197300000000 1.0
C      1  0.5495400000000  0.5226790000000  0.4251860000000 1.0
C      1  0.4242820000000  0.5108300000000  0.4542820000000 1.0
C      1  0.4675930000000  0.4647460000000  0.4095200000000 1.0
C      1  0.5277070000000  0.5321200000000  0.4008360000000 1.0
C      1  0.4472820000000  0.5845080000000  0.4902580000000 1.0
C      1  0.4481130000000  0.4316190000000  0.5635310000000 1.0
C      1  0.4467760000000  0.3783650000000  0.4666500000000 1.0
C      1  0.4368400000000  0.5345550000000  0.5690300000000 1.0
C      1  0.4520470000000  0.5156380000000  0.4688590000000 1.0
C      1  0.5642370000000  0.4742510000000  0.4239160000000 1.0
C      1  0.5220290000000  0.5563280000000  0.5235800000000 1.0
C      1  0.4942860000000  0.5323670000000  0.4984540000000 1.0
C      1  0.5328580000000  0.4734570000000  0.5365130000000 1.0
C      1  0.4903940000000  0.4372450000000  0.4267460000000 1.0
C      1  0.4716050000000  0.5991760000000  0.4930120000000 1.0
C      1  0.5997900000000  0.5233170000000  0.5205070000000 1.0
C      1  0.4476630000000  0.4896610000000  0.5871400000000 1.0
C      1  0.5973340000000  0.4617060000000  0.4922610000000 1.0
C      1  0.5231470000000  0.5322150000000  0.6083530000000 1.0
C      1  0.4797620000000  0.5653900000000  0.4607500000000 1.0
C      1  0.5240930000000  0.5246740000000  0.5367820000000 1.0
C      1  0.5302240000000  0.6054010000000  0.5216810000000 1.0
C      1  0.5533410000000  0.5707680000000  0.5492010000000 1.0
C      1  0.4677440000000  0.5447750000000  0.4233310000000 1.0
C      1  0.4955030000000  0.4103740000000  0.5107310000000 1.0
C      1  0.4753050000000  0.4650520000000  0.5644840000000 1.0
C      1  0.5783990000000  0.4354030000000  0.4998230000000 1.0
C      1  0.5326860000000  0.5742490000000  0.4530240000000 1.0
C      1  0.4313190000000  0.5077510000000  0.5725330000000 1.0
C      1  0.4965130000000  0.4570830000000  0.3998010000000 1.0
C      1  0.4039770000000  0.4598560000000  0.5073760000000 1.0
C      1  0.5592490000000  0.5626130000000  0.4644180000000 1.0
C      1  0.6014840000000  0.5271760000000  0.4866110000000 1.0
C      1  0.5056930000000  0.4263140000000  0.4535550000000 1.0
C      1  0.5816090000000  0.5235490000000  0.5461580000000 1.0
C      1  0.6071650000000  0.4731400000000  0.5183910000000 1.0
C      1  0.5232330000000  0.5241880000000  0.4832430000000 1.0
C      1  0.5223570000000  0.5946630000000  0.4707610000000 1.0
C      1  0.4604430000000  0.5806610000000  0.5382900000000 1.0
C      1  0.5298550000000  0.4219030000000  0.5274820000000 1.0
C      1  0.5837620000000  0.5472970000000  0.5079090000000 1.0
C      1  0.4469500000000  0.4332560000000  0.4540850000000 1.0
C      1  0.5741050000000  0.5416060000000  0.4225080000000 1.0
C      1  0.5522880000000  0.4559970000000  0.4912510000000 1.0
C      1  0.4422340000000  0.4999740000000  0.5168010000000 1.0
C      1  0.4863510000000  0.4844590000000  0.5077150000000 1.0
C      1  0.4917200000000  0.5963120000000  0.4687010000000 1.0
C      1  0.4060810000000  0.4404420000000  0.4557200000000 1.0
C      1  0.5795180000000  0.5587140000000  0.4401760000000 1.0
C      1  0.5423640000000  0.5390530000000  0.5043440000000 1.0
END
