TITL C-2778424-3986-1168 -0.00295959169888957 125000 -517.861549141057 0 0 87 (C1) n - 1
REM
REM in /home/nfs/bkarasulu/CARBON/AIRSS/Generating-Clusters/REBO/Only-C1/SD-CG/HFTN-CG
REM
REM
REM
REM
REM
REM ./C.cell (11c1c37f851c82e70ff6c80c92926a4b)
REM
REM compiler GCC version 9.2.1 20190827 (Red Hat 9.2.1-1)
REM options -cpp -mtune=generic -march=x86-64 -g -O0 -fpre-include=/usr/include/finclude/math-vector-fortran.h
REM seed -403397396 1546062666 -537078460 934325530 209419965 -16902615 133237210 -877854065 -631997578 1182460163 1395592860 -2100935952 -211219673 1771549835 -660233178 -1682677321 -1059519706 -1548333549 1560398292 -1463591215 277579945 -700182922 -1840406770 408340395 522751703 136033527 -1515671696 -1536807813 769310424 1746779437 -2059701291 -1444907726 502262958
REM
CELL 1.54180   50.00000   50.00000   50.00000   90.00000   90.00000   90.00000
LATT -1
SFAC C  
C      1  0.4902810000000  0.5162620000000  0.5124170000000 1.0
C      1  0.4727060000000  0.4287050000000  0.4904390000000 1.0
C      1  0.4767470000000  0.4448120000000  0.5358860000000 1.0
C      1  0.5224580000000  0.4884420000000  0.5924390000000 1.0
C      1  0.5217660000000  0.5165620000000  0.5796790000000 1.0
C      1  0.4721920000000  0.4705020000000  0.4243150000000 1.0
C      1  0.5625960000000  0.5334480000000  0.4569690000000 1.0
C      1  0.5288560000000  0.5757810000000  0.5417860000000 1.0
C      1  0.5281020000000  0.4983180000000  0.4361260000000 1.0
C      1  0.4996230000000  0.5031950000000  0.3974730000000 1.0
C      1  0.4584280000000  0.4400110000000  0.5118730000000 1.0
C      1  0.5079240000000  0.4889190000000  0.4587320000000 1.0
C      1  0.5383040000000  0.5458320000000  0.5759720000000 1.0
C      1  0.4354690000000  0.4618880000000  0.5120080000000 1.0
C      1  0.5340790000000  0.4823040000000  0.5317690000000 1.0
C      1  0.5194110000000  0.4506110000000  0.5615040000000 1.0
C      1  0.5521560000000  0.4925710000000  0.5590910000000 1.0
C      1  0.4998640000000  0.5115710000000  0.5564440000000 1.0
C      1  0.4867590000000  0.5063640000000  0.4599490000000 1.0
C      1  0.5062920000000  0.4876870000000  0.5032430000000 1.0
C      1  0.4571630000000  0.4944630000000  0.5145250000000 1.0
C      1  0.4866750000000  0.5275460000000  0.4366500000000 1.0
C      1  0.5113130000000  0.5166580000000  0.4189100000000 1.0
C      1  0.5507420000000  0.4597430000000  0.4521970000000 1.0
C      1  0.4786270000000  0.5495950000000  0.5740540000000 1.0
C      1  0.4781760000000  0.5566340000000  0.4829310000000 1.0
C      1  0.5632150000000  0.5423730000000  0.5333490000000 1.0
C      1  0.4733960000000  0.4687580000000  0.4587100000000 1.0
C      1  0.4399840000000  0.5246360000000  0.5532890000000 1.0
C      1  0.4928220000000  0.4474440000000  0.4241740000000 1.0
C      1  0.5043640000000  0.4884660000000  0.5367760000000 1.0
C      1  0.5380720000000  0.4704090000000  0.4287950000000 1.0
C      1  0.5357300000000  0.5289230000000  0.4859760000000 1.0
C      1  0.4505380000000  0.5170760000000  0.4728040000000 1.0
C      1  0.4488670000000  0.5345430000000  0.4464500000000 1.0
C      1  0.4307830000000  0.4827500000000  0.4648690000000 1.0
C      1  0.5336090000000  0.5478410000000  0.4567480000000 1.0
C      1  0.5755760000000  0.5287720000000  0.4840590000000 1.0
C      1  0.4790460000000  0.4667580000000  0.5840420000000 1.0
C      1  0.5654980000000  0.5496080000000  0.5026580000000 1.0
C      1  0.4745750000000  0.4942030000000  0.4047280000000 1.0
C      1  0.4401330000000  0.5481540000000  0.5087730000000 1.0
C      1  0.5410680000000  0.4339340000000  0.4588120000000 1.0
C      1  0.5758250000000  0.4996060000000  0.4908090000000 1.0
C      1  0.4685570000000  0.5520090000000  0.5474620000000 1.0
C      1  0.5190860000000  0.4343710000000  0.5164490000000 1.0
C      1  0.4564050000000  0.4700710000000  0.5378350000000 1.0
C      1  0.4624570000000  0.5227680000000  0.5300830000000 1.0
C      1  0.4899740000000  0.4297380000000  0.4463740000000 1.0
C      1  0.4656300000000  0.4298480000000  0.4630410000000 1.0
C      1  0.5625380000000  0.5100640000000  0.5355330000000 1.0
C      1  0.5430240000000  0.5078630000000  0.4611420000000 1.0
C      1  0.4751960000000  0.5557890000000  0.4508960000000 1.0
C      1  0.5190600000000  0.4540600000000  0.4154330000000 1.0
C      1  0.5491110000000  0.5595940000000  0.5540040000000 1.0
C      1  0.5390300000000  0.5623010000000  0.4933810000000 1.0
C      1  0.5482080000000  0.4596100000000  0.5528250000000 1.0
C      1  0.4349910000000  0.5046380000000  0.5680710000000 1.0
C      1  0.4422690000000  0.4727530000000  0.4340390000000 1.0
C      1  0.4325460000000  0.5241470000000  0.4983550000000 1.0
C      1  0.4341390000000  0.5045760000000  0.4388370000000 1.0
C      1  0.4631370000000  0.5613160000000  0.5196660000000 1.0
C      1  0.4745790000000  0.5048880000000  0.5731950000000 1.0
C      1  0.5385430000000  0.4770080000000  0.4996890000000 1.0
C      1  0.4590950000000  0.5169080000000  0.4194240000000 1.0
C      1  0.5075070000000  0.4659930000000  0.5823240000000 1.0
C      1  0.5003030000000  0.4650020000000  0.4794830000000 1.0
C      1  0.5434730000000  0.4478800000000  0.5138870000000 1.0
C      1  0.5140140000000  0.4270080000000  0.4631400000000 1.0
C      1  0.5078520000000  0.5626690000000  0.4570070000000 1.0
C      1  0.4434680000000  0.4514840000000  0.4588970000000 1.0
C      1  0.5547060000000  0.4819970000000  0.4737360000000 1.0
C      1  0.4298900000000  0.4902610000000  0.4940290000000 1.0
C      1  0.5064990000000  0.5472730000000  0.5787300000000 1.0
C      1  0.5144720000000  0.5738620000000  0.4839760000000 1.0
C      1  0.5030880000000  0.4348610000000  0.4913880000000 1.0
C      1  0.5758790000000  0.4899590000000  0.5174870000000 1.0
C      1  0.4554400000000  0.4797550000000  0.5659300000000 1.0
C      1  0.4728920000000  0.5302020000000  0.4912490000000 1.0
C      1  0.5075470000000  0.5624080000000  0.5306220000000 1.0
C      1  0.5103480000000  0.5315530000000  0.5308590000000 1.0
C      1  0.4679130000000  0.4917170000000  0.4823560000000 1.0
C      1  0.4914320000000  0.5738090000000  0.5059890000000 1.0
C      1  0.5377220000000  0.5252710000000  0.5178510000000 1.0
C      1  0.5040570000000  0.4396580000000  0.5401820000000 1.0
C      1  0.4655800000000  0.5272130000000  0.5864480000000 1.0
C      1  0.5685350000000  0.4631660000000  0.5254990000000 1.0
END
