TITL C-2778427-5640-13 -1.42127084744186e-05 125000 -634.742743392026 0 0 111 (C1) n - 1
REM
REM in /home/nfs/bkarasulu/CARBON/AIRSS/Generating-Clusters/REBO/Only-C1/SD-CG/HFTN-CG
REM
REM
REM
REM
REM
REM ./C.cell (11c1c37f851c82e70ff6c80c92926a4b)
REM
REM compiler GCC version 9.2.1 20190827 (Red Hat 9.2.1-1)
REM options -cpp -mtune=generic -march=x86-64 -g -O0 -fpre-include=/usr/include/finclude/math-vector-fortran.h
REM seed 461443951 1846443377 1894373281 1633133566 526672701 738918007 -1410742081 -5817122 1766948444 537986159 297581526 -500936678 -1400541984 979230768 1290574798 -524908667 -516289433 18797623 -2031022290 -899757061 442288546 1928657127 -1882955861 1700905739 2109626969 -365473451 -1705048764 -149498257 1508580892 2035646164 850581589 -1304495705 -198290418
REM
CELL 1.54180   50.00000   50.00000   50.00000   90.00000   90.00000   90.00000
LATT -1
SFAC C  
C      1  0.5674950000000  0.5574660000000  0.4513980000000 1.0
C      1  0.4849710000000  0.4393650000000  0.5312350000000 1.0
C      1  0.4431490000000  0.4724710000000  0.5162680000000 1.0
C      1  0.5370960000000  0.4645080000000  0.5366180000000 1.0
C      1  0.5238180000000  0.5798950000000  0.4633710000000 1.0
C      1  0.4749070000000  0.4893770000000  0.4989820000000 1.0
C      1  0.5234820000000  0.5296580000000  0.4396450000000 1.0
C      1  0.5138390000000  0.5450250000000  0.5722590000000 1.0
C      1  0.4370370000000  0.4195130000000  0.5048130000000 1.0
C      1  0.5132380000000  0.5158540000000  0.4941960000000 1.0
C      1  0.5004390000000  0.4341090000000  0.5611500000000 1.0
C      1  0.5250240000000  0.4392280000000  0.4807330000000 1.0
C      1  0.4421700000000  0.4953200000000  0.5369690000000 1.0
C      1  0.5376640000000  0.4978220000000  0.5374130000000 1.0
C      1  0.5215560000000  0.5730890000000  0.5409700000000 1.0
C      1  0.4697640000000  0.4395410000000  0.5678690000000 1.0
C      1  0.4024800000000  0.5484300000000  0.4879920000000 1.0
C      1  0.5039540000000  0.4170490000000  0.4512950000000 1.0
C      1  0.5504570000000  0.5933610000000  0.4740550000000 1.0
C      1  0.5710600000000  0.5741660000000  0.4750300000000 1.0
C      1  0.5209450000000  0.4526190000000  0.5710390000000 1.0
C      1  0.4691310000000  0.4565870000000  0.5064950000000 1.0
C      1  0.4206130000000  0.4651350000000  0.4937080000000 1.0
C      1  0.5565710000000  0.4913240000000  0.5028420000000 1.0
C      1  0.4897100000000  0.5556270000000  0.5044630000000 1.0
C      1  0.4787640000000  0.5926860000000  0.5146830000000 1.0
C      1  0.5838180000000  0.5198950000000  0.5394340000000 1.0
C      1  0.5204350000000  0.4602570000000  0.4044640000000 1.0
C      1  0.5830700000000  0.4612380000000  0.4854130000000 1.0
C      1  0.5125020000000  0.4899080000000  0.4081920000000 1.0
C      1  0.4447720000000  0.5122460000000  0.4299050000000 1.0
C      1  0.5775840000000  0.4470360000000  0.5103920000000 1.0
C      1  0.5047190000000  0.5369910000000  0.5414420000000 1.0
C      1  0.5391600000000  0.5566100000000  0.4462380000000 1.0
C      1  0.5548110000000  0.5191100000000  0.5551810000000 1.0
C      1  0.4248990000000  0.4918150000000  0.4748940000000 1.0
C      1  0.4864840000000  0.5566250000000  0.5826540000000 1.0
C      1  0.4931190000000  0.5373090000000  0.4292280000000 1.0
C      1  0.4894190000000  0.5653490000000  0.4277590000000 1.0
C      1  0.4156540000000  0.5075940000000  0.5479570000000 1.0
C      1  0.5086450000000  0.4372710000000  0.4266090000000 1.0
C      1  0.5326960000000  0.4426320000000  0.5197110000000 1.0
C      1  0.4853290000000  0.4971760000000  0.3937810000000 1.0
C      1  0.4536080000000  0.4837050000000  0.4584850000000 1.0
C      1  0.5042610000000  0.4378980000000  0.5077310000000 1.0
C      1  0.5357520000000  0.4616150000000  0.4623770000000 1.0
C      1  0.4410510000000  0.4557860000000  0.4691380000000 1.0
C      1  0.4695460000000  0.4654680000000  0.5453330000000 1.0
C      1  0.4437610000000  0.5444230000000  0.5588570000000 1.0
C      1  0.5264620000000  0.4038280000000  0.4622500000000 1.0
C      1  0.4774490000000  0.4479730000000  0.4261080000000 1.0
C      1  0.4586270000000  0.4332700000000  0.4872830000000 1.0
C      1  0.5361090000000  0.5050580000000  0.4249050000000 1.0
C      1  0.5092140000000  0.4799980000000  0.5719080000000 1.0
C      1  0.5540680000000  0.4831770000000  0.4347670000000 1.0
C      1  0.4854480000000  0.4862400000000  0.5303400000000 1.0
C      1  0.5420580000000  0.5628840000000  0.5175900000000 1.0
C      1  0.5080040000000  0.5281930000000  0.4685590000000 1.0
C      1  0.5820440000000  0.5341100000000  0.4451550000000 1.0
C      1  0.4141480000000  0.5425470000000  0.5160100000000 1.0
C      1  0.5235880000000  0.4905070000000  0.4597990000000 1.0
C      1  0.4419430000000  0.4582080000000  0.5618410000000 1.0
C      1  0.5698290000000  0.4904250000000  0.5318730000000 1.0
C      1  0.5227040000000  0.5364200000000  0.5162970000000 1.0
C      1  0.4674540000000  0.5253330000000  0.4448310000000 1.0
C      1  0.4794240000000  0.4222560000000  0.4645190000000 1.0
C      1  0.4740580000000  0.5381300000000  0.5429270000000 1.0
C      1  0.5542750000000  0.4301070000000  0.5067290000000 1.0
C      1  0.4754160000000  0.5333990000000  0.5034610000000 1.0
C      1  0.5789770000000  0.5009680000000  0.4846560000000 1.0
C      1  0.5458810000000  0.4143940000000  0.4823460000000 1.0
C      1  0.4715950000000  0.5145010000000  0.4762680000000 1.0
C      1  0.4268330000000  0.5180790000000  0.4958250000000 1.0
C      1  0.4628880000000  0.4417400000000  0.4486610000000 1.0
C      1  0.4198370000000  0.5363490000000  0.5441940000000 1.0
C      1  0.4735740000000  0.4862820000000  0.4393700000000 1.0
C      1  0.4643160000000  0.5399430000000  0.5815820000000 1.0
C      1  0.4719590000000  0.5086100000000  0.5873620000000 1.0
C      1  0.5813190000000  0.5223350000000  0.5074780000000 1.0
C      1  0.5501570000000  0.5302100000000  0.4962910000000 1.0
C      1  0.5088110000000  0.4914760000000  0.5448040000000 1.0
C      1  0.4627480000000  0.4949360000000  0.4114160000000 1.0
C      1  0.5385960000000  0.4528980000000  0.4309470000000 1.0
C      1  0.4522140000000  0.5109920000000  0.5108820000000 1.0
C      1  0.4952570000000  0.5784820000000  0.5368150000000 1.0
C      1  0.4124960000000  0.5286760000000  0.4667310000000 1.0
C      1  0.5437480000000  0.5109760000000  0.4689150000000 1.0
C      1  0.5020020000000  0.5729690000000  0.4885110000000 1.0
C      1  0.5022050000000  0.4906300000000  0.4402150000000 1.0
C      1  0.4352720000000  0.5717380000000  0.5310620000000 1.0
C      1  0.4218480000000  0.5093180000000  0.4456610000000 1.0
C      1  0.4198600000000  0.4402550000000  0.5152140000000 1.0
C      1  0.5535310000000  0.4530780000000  0.5611740000000 1.0
C      1  0.5681780000000  0.4694430000000  0.4625550000000 1.0
C      1  0.5472670000000  0.5139960000000  0.5855740000000 1.0
C      1  0.4628040000000  0.5681350000000  0.5322560000000 1.0
C      1  0.5013330000000  0.5004700000000  0.5907650000000 1.0
C      1  0.5766240000000  0.4607950000000  0.5373370000000 1.0
C      1  0.4208050000000  0.4467980000000  0.5420230000000 1.0
C      1  0.4500500000000  0.4861830000000  0.5748560000000 1.0
C      1  0.4913560000000  0.5776110000000  0.4569050000000 1.0
C      1  0.4817270000000  0.5466870000000  0.4663220000000 1.0
C      1  0.4638580000000  0.5102530000000  0.5548630000000 1.0
C      1  0.4371230000000  0.3927380000000  0.5109760000000 1.0
C      1  0.5728720000000  0.5102320000000  0.4569510000000 1.0
C      1  0.5689880000000  0.5495420000000  0.5337060000000 1.0
C      1  0.5208840000000  0.5212030000000  0.5907030000000 1.0
C      1  0.5422820000000  0.5501890000000  0.5551130000000 1.0
C      1  0.5274920000000  0.4909530000000  0.4994340000000 1.0
C      1  0.5700350000000  0.5580470000000  0.5003690000000 1.0
C      1  0.5136460000000  0.4676460000000  0.4950920000000 1.0
END
