TITL C-2778432-5617-683 -0.000563500363483182 125000 -221.341061832183 0 0 39 (C1) n - 1
REM
REM in /home/nfs/bkarasulu/CARBON/AIRSS/Generating-Clusters/REBO/Only-C1/SD-CG/HFTN-CG
REM
REM
REM
REM
REM
REM ./C.cell (11c1c37f851c82e70ff6c80c92926a4b)
REM
REM compiler GCC version 9.2.1 20190827 (Red Hat 9.2.1-1)
REM options -cpp -mtune=generic -march=x86-64 -g -O0 -fpre-include=/usr/include/finclude/math-vector-fortran.h
REM seed 1536810600 944865242 -148882069 -1808869519 -2098178373 -1319235376 1383723037 -659333745 407934916 1794996971 1449084490 -1663951990 1705759920 762818804 -1420336824 1766420602 710919241 -1610382798 368338777 455831351 -2004693121 2006575983 2093692675 977445702 -1414854923 2071562802 -729817947 1105920509 628801501 -939637869 -199512623 2091077668 -903363488
REM
CELL 1.54180   50.00000   50.00000   50.00000   90.00000   90.00000   90.00000
LATT -1
SFAC C  
C      1  0.5344360000000  0.5941720000000  0.4956180000000 1.0
C      1  0.5374510000000  0.5034960000000  0.4894190000000 1.0
C      1  0.5451430000000  0.5068080000000  0.4583890000000 1.0
C      1  0.4731620000000  0.4458780000000  0.5109490000000 1.0
C      1  0.5379810000000  0.5313540000000  0.4472330000000 1.0
C      1  0.4927150000000  0.4884210000000  0.4728670000000 1.0
C      1  0.5224880000000  0.4602130000000  0.5504560000000 1.0
C      1  0.4817690000000  0.5048760000000  0.4525290000000 1.0
C      1  0.5453680000000  0.4756240000000  0.5576820000000 1.0
C      1  0.4949980000000  0.4358020000000  0.4868800000000 1.0
C      1  0.5027120000000  0.4632210000000  0.5148440000000 1.0
C      1  0.4929790000000  0.5505790000000  0.4487020000000 1.0
C      1  0.4300020000000  0.4495330000000  0.4840090000000 1.0
C      1  0.4939800000000  0.4729850000000  0.5524710000000 1.0
C      1  0.5272130000000  0.4394510000000  0.5284740000000 1.0
C      1  0.4619550000000  0.5477540000000  0.5039870000000 1.0
C      1  0.4563240000000  0.5037790000000  0.5290690000000 1.0
C      1  0.5273440000000  0.5722390000000  0.4732010000000 1.0
C      1  0.4821340000000  0.5672950000000  0.5035570000000 1.0
C      1  0.5063980000000  0.5782120000000  0.4970520000000 1.0
C      1  0.4871860000000  0.4216050000000  0.5548370000000 1.0
C      1  0.5009770000000  0.5064650000000  0.5199630000000 1.0
C      1  0.4540690000000  0.5328410000000  0.5274650000000 1.0
C      1  0.5209120000000  0.5534400000000  0.4533870000000 1.0
C      1  0.4808860000000  0.4625740000000  0.4761640000000 1.0
C      1  0.4395620000000  0.5101920000000  0.4846650000000 1.0
C      1  0.4876140000000  0.4441140000000  0.5394840000000 1.0
C      1  0.5532550000000  0.4873930000000  0.5119900000000 1.0
C      1  0.4553780000000  0.5336760000000  0.4795410000000 1.0
C      1  0.4463310000000  0.4910810000000  0.5049360000000 1.0
C      1  0.4738620000000  0.5317680000000  0.4573880000000 1.0
C      1  0.5602780000000  0.4874190000000  0.5377940000000 1.0
C      1  0.5442620000000  0.4751140000000  0.4677130000000 1.0
C      1  0.5511320000000  0.6119460000000  0.5057230000000 1.0
C      1  0.5219550000000  0.4334790000000  0.4969630000000 1.0
C      1  0.4828300000000  0.4951450000000  0.5385160000000 1.0
C      1  0.5083300000000  0.5019990000000  0.4936380000000 1.0
C      1  0.5325480000000  0.4648870000000  0.4980690000000 1.0
C      1  0.4520800000000  0.4631680000000  0.4943750000000 1.0
END
