TITL C-2778436-5916-1234 0.00526432837683209 125000 -965.198011541716 0 0 167 (C1) n - 1
REM
REM in /home/nfs/bkarasulu/CARBON/AIRSS/Generating-Clusters/REBO/Only-C1/SD-CG/HFTN-CG
REM
REM
REM
REM
REM
REM ./C.cell (11c1c37f851c82e70ff6c80c92926a4b)
REM
REM compiler GCC version 9.2.1 20190827 (Red Hat 9.2.1-1)
REM options -cpp -mtune=generic -march=x86-64 -g -O0 -fpre-include=/usr/include/finclude/math-vector-fortran.h
REM seed -877352898 2051715928 986576183 526246341 1745913283 392321722 2106920825 512035040 701319768 -649420269 -1276522502 -175189591 1409397685 2035760758 -64325608 455348240 369406484 161431097 -1006794853 -1649595541 181312254 -1386740843 -1544738747 118461798 788980178 -278145986 201097330 -217458688 1380160290 1754785273 -2061553185 -59041551 22598272
REM
CELL 1.54180   50.00000   50.00000   50.00000   90.00000   90.00000   90.00000
LATT -1
SFAC C  
C      1  0.4649530000000  0.5359290000000  0.5135030000000 1.0
C      1  0.4417320000000  0.5707550000000  0.4553900000000 1.0
C      1  0.4407340000000  0.5569810000000  0.5233910000000 1.0
C      1  0.5164590000000  0.5867400000000  0.4103480000000 1.0
C      1  0.4488010000000  0.6092470000000  0.4621550000000 1.0
C      1  0.5792420000000  0.5540860000000  0.5499740000000 1.0
C      1  0.5403340000000  0.4485190000000  0.5252600000000 1.0
C      1  0.4780040000000  0.4871980000000  0.5902960000000 1.0
C      1  0.5097270000000  0.4811020000000  0.4675390000000 1.0
C      1  0.4643640000000  0.4001320000000  0.5290300000000 1.0
C      1  0.5604000000000  0.5860910000000  0.4895410000000 1.0
C      1  0.4772890000000  0.5221800000000  0.4200620000000 1.0
C      1  0.4889860000000  0.5608280000000  0.4478100000000 1.0
C      1  0.4764510000000  0.4926770000000  0.4372590000000 1.0
C      1  0.4873900000000  0.4348720000000  0.5818190000000 1.0
C      1  0.4044420000000  0.5201950000000  0.4506900000000 1.0
C      1  0.4882740000000  0.5813270000000  0.4817660000000 1.0
C      1  0.4617960000000  0.4517020000000  0.5965880000000 1.0
C      1  0.5804260000000  0.5383360000000  0.4692060000000 1.0
C      1  0.4803030000000  0.5604820000000  0.5275070000000 1.0
C      1  0.5505080000000  0.4659630000000  0.4168210000000 1.0
C      1  0.4101400000000  0.5409960000000  0.5009830000000 1.0
C      1  0.4086400000000  0.4691270000000  0.5180540000000 1.0
C      1  0.5730280000000  0.4717970000000  0.5584220000000 1.0
C      1  0.5259390000000  0.5094300000000  0.5257880000000 1.0
C      1  0.5561520000000  0.4805010000000  0.4984660000000 1.0
C      1  0.3993320000000  0.4823120000000  0.4905920000000 1.0
C      1  0.4536350000000  0.4225210000000  0.4623900000000 1.0
C      1  0.4432430000000  0.5056780000000  0.4072020000000 1.0
C      1  0.4480610000000  0.4411150000000  0.5320770000000 1.0
C      1  0.5005110000000  0.4705160000000  0.4252420000000 1.0
C      1  0.4448180000000  0.4529310000000  0.4360250000000 1.0
C      1  0.4042130000000  0.4813030000000  0.4416970000000 1.0
C      1  0.5261850000000  0.4339180000000  0.4495870000000 1.0
C      1  0.5441760000000  0.5357360000000  0.5492930000000 1.0
C      1  0.4740580000000  0.4580000000000  0.5338100000000 1.0
C      1  0.4708160000000  0.5888710000000  0.4547320000000 1.0
C      1  0.5125480000000  0.4123280000000  0.5766360000000 1.0
C      1  0.5680580000000  0.4280270000000  0.5051690000000 1.0
C      1  0.5693620000000  0.4253550000000  0.5392260000000 1.0
C      1  0.5410530000000  0.5598660000000  0.5806460000000 1.0
C      1  0.4357990000000  0.5314030000000  0.4288220000000 1.0
C      1  0.4931700000000  0.5148900000000  0.5942730000000 1.0
C      1  0.4887580000000  0.4963760000000  0.5592250000000 1.0
C      1  0.4379580000000  0.4363920000000  0.5616330000000 1.0
C      1  0.5834900000000  0.5229890000000  0.5412000000000 1.0
C      1  0.4636420000000  0.5579190000000  0.4784480000000 1.0
C      1  0.4895300000000  0.4633000000000  0.6094300000000 1.0
C      1  0.6086300000000  0.4960510000000  0.4723090000000 1.0
C      1  0.5401650000000  0.5835350000000  0.5389720000000 1.0
C      1  0.5200580000000  0.5666980000000  0.5558110000000 1.0
C      1  0.5910460000000  0.5040110000000  0.4469710000000 1.0
C      1  0.3898550000000  0.4934490000000  0.4652690000000 1.0
C      1  0.5346830000000  0.5983810000000  0.4946260000000 1.0
C      1  0.6018960000000  0.5231670000000  0.5137730000000 1.0
C      1  0.5578900000000  0.4739140000000  0.4651070000000 1.0
C      1  0.5075510000000  0.5133140000000  0.4585090000000 1.0
C      1  0.4638150000000  0.5237300000000  0.3916720000000 1.0
C      1  0.5776490000000  0.4409790000000  0.4552650000000 1.0
C      1  0.5617180000000  0.4264100000000  0.5689500000000 1.0
C      1  0.5681550000000  0.5852850000000  0.4613530000000 1.0
C      1  0.4781790000000  0.5348610000000  0.5767680000000 1.0
C      1  0.4381190000000  0.5688270000000  0.4951470000000 1.0
C      1  0.4710720000000  0.4864130000000  0.4037040000000 1.0
C      1  0.5921590000000  0.4472960000000  0.4971110000000 1.0
C      1  0.5133490000000  0.4469350000000  0.6001820000000 1.0
C      1  0.4758830000000  0.4278900000000  0.4368870000000 1.0
C      1  0.4649680000000  0.5413230000000  0.4416080000000 1.0
C      1  0.5066470000000  0.5445930000000  0.4721250000000 1.0
C      1  0.5222420000000  0.4601280000000  0.5494960000000 1.0
C      1  0.4398830000000  0.4792860000000  0.5245630000000 1.0
C      1  0.5410250000000  0.5437120000000  0.4736280000000 1.0
C      1  0.4357860000000  0.5130960000000  0.5956840000000 1.0
C      1  0.4203550000000  0.4592730000000  0.4479300000000 1.0
C      1  0.5077260000000  0.5199840000000  0.5513980000000 1.0
C      1  0.5555260000000  0.4443610000000  0.4813670000000 1.0
C      1  0.4498520000000  0.5763340000000  0.5492700000000 1.0
C      1  0.5606290000000  0.4538200000000  0.5771910000000 1.0
C      1  0.5035770000000  0.5347680000000  0.4141950000000 1.0
C      1  0.4960670000000  0.4138450000000  0.5491840000000 1.0
C      1  0.4837840000000  0.4106610000000  0.4718090000000 1.0
C      1  0.5254310000000  0.5114500000000  0.5994130000000 1.0
C      1  0.4092940000000  0.5644520000000  0.4771840000000 1.0
C      1  0.4589160000000  0.5619870000000  0.5787350000000 1.0
C      1  0.5747880000000  0.5104550000000  0.4260470000000 1.0
C      1  0.4207400000000  0.4390860000000  0.5132840000000 1.0
C      1  0.5317810000000  0.4616940000000  0.5819610000000 1.0
C      1  0.5365540000000  0.4911280000000  0.5488850000000 1.0
C      1  0.4446760000000  0.4970430000000  0.5522040000000 1.0
C      1  0.4492510000000  0.4577580000000  0.5025500000000 1.0
C      1  0.4951930000000  0.4462100000000  0.5506660000000 1.0
C      1  0.4142970000000  0.5388500000000  0.5346370000000 1.0
C      1  0.5168670000000  0.4011520000000  0.5179030000000 1.0
C      1  0.4796760000000  0.4745010000000  0.4738020000000 1.0
C      1  0.5104450000000  0.5050100000000  0.4998700000000 1.0
C      1  0.4550140000000  0.5138950000000  0.5714930000000 1.0
C      1  0.4548340000000  0.5276480000000  0.4688190000000 1.0
C      1  0.5936000000000  0.5451980000000  0.4972260000000 1.0
C      1  0.5499930000000  0.5298780000000  0.5205530000000 1.0
C      1  0.5394120000000  0.4109600000000  0.5775810000000 1.0
C      1  0.5604650000000  0.5539840000000  0.5000850000000 1.0
C      1  0.4697820000000  0.4522380000000  0.4590010000000 1.0
C      1  0.5285890000000  0.4638270000000  0.4902910000000 1.0
C      1  0.4651770000000  0.4155760000000  0.4999080000000 1.0
C      1  0.5178740000000  0.4899220000000  0.5756170000000 1.0
C      1  0.5570200000000  0.5129160000000  0.5882420000000 1.0
C      1  0.4815730000000  0.5864200000000  0.5102490000000 1.0
C      1  0.4599360000000  0.4974920000000  0.4667640000000 1.0
C      1  0.5481160000000  0.4925180000000  0.4294840000000 1.0
C      1  0.5033310000000  0.4141980000000  0.4461180000000 1.0
C      1  0.5091870000000  0.5452580000000  0.5313630000000 1.0
C      1  0.5688920000000  0.5160260000000  0.4864930000000 1.0
C      1  0.5266890000000  0.5144700000000  0.4040660000000 1.0
C      1  0.5157160000000  0.4970220000000  0.4313380000000 1.0
C      1  0.5726980000000  0.5581130000000  0.4505050000000 1.0
C      1  0.4249860000000  0.5554680000000  0.5597790000000 1.0
C      1  0.5372810000000  0.5046310000000  0.4838170000000 1.0
C      1  0.4150550000000  0.5524040000000  0.4458000000000 1.0
C      1  0.5353530000000  0.5713880000000  0.4551990000000 1.0
C      1  0.4915050000000  0.3864060000000  0.5314210000000 1.0
C      1  0.5528200000000  0.4202510000000  0.4463330000000 1.0
C      1  0.5894830000000  0.4725520000000  0.4568960000000 1.0
C      1  0.4966520000000  0.5351540000000  0.5013580000000 1.0
C      1  0.5657580000000  0.5022050000000  0.5593280000000 1.0
C      1  0.4323480000000  0.5425640000000  0.5875330000000 1.0
C      1  0.4153470000000  0.5068120000000  0.5398380000000 1.0
C      1  0.4548510000000  0.5086240000000  0.5158730000000 1.0
C      1  0.4777310000000  0.4887990000000  0.5309260000000 1.0
C      1  0.5539240000000  0.5278280000000  0.4118390000000 1.0
C      1  0.5247350000000  0.5352200000000  0.4381350000000 1.0
C      1  0.4161270000000  0.5038520000000  0.4237920000000 1.0
C      1  0.4495190000000  0.4075410000000  0.5530360000000 1.0
C      1  0.4446040000000  0.4804740000000  0.5906100000000 1.0
C      1  0.5684720000000  0.5589090000000  0.5764430000000 1.0
C      1  0.5271880000000  0.6023150000000  0.5220800000000 1.0
C      1  0.6045840000000  0.4970420000000  0.5008830000000 1.0
C      1  0.5232660000000  0.4524840000000  0.4130020000000 1.0
C      1  0.5681370000000  0.5027670000000  0.5179030000000 1.0
C      1  0.5104620000000  0.3905170000000  0.4329280000000 1.0
C      1  0.5088920000000  0.4511470000000  0.5122350000000 1.0
C      1  0.4934380000000  0.4785140000000  0.5038170000000 1.0
C      1  0.5499290000000  0.5538090000000  0.4294630000000 1.0
C      1  0.4871390000000  0.5621910000000  0.5597000000000 1.0
C      1  0.4695000000000  0.5969700000000  0.5395690000000 1.0
C      1  0.5442580000000  0.4268870000000  0.4147940000000 1.0
C      1  0.4259630000000  0.5942670000000  0.4760340000000 1.0
C      1  0.4978400000000  0.4983910000000  0.3953310000000 1.0
C      1  0.4273130000000  0.4620220000000  0.5702250000000 1.0
C      1  0.4717740000000  0.4566010000000  0.4190590000000 1.0
C      1  0.5636240000000  0.5689910000000  0.5307330000000 1.0
C      1  0.5243750000000  0.5322000000000  0.5755120000000 1.0
C      1  0.5468160000000  0.5161500000000  0.4539970000000 1.0
C      1  0.5424630000000  0.4144770000000  0.5214570000000 1.0
C      1  0.5935370000000  0.4727930000000  0.5107930000000 1.0
C      1  0.5724580000000  0.4585450000000  0.5306190000000 1.0
C      1  0.4346390000000  0.4241110000000  0.4875170000000 1.0
C      1  0.4215950000000  0.5102370000000  0.5079320000000 1.0
C      1  0.4262480000000  0.4558520000000  0.4777090000000 1.0
C      1  0.5717170000000  0.4454090000000  0.4226460000000 1.0
C      1  0.4327350000000  0.4887110000000  0.4839680000000 1.0
C      1  0.4995580000000  0.6071150000000  0.5273730000000 1.0
C      1  0.5171350000000  0.5872250000000  0.4747420000000 1.0
C      1  0.4931290000000  0.4249920000000  0.5168330000000 1.0
C      1  0.4106090000000  0.4761950000000  0.5512910000000 1.0
C      1  0.4248280000000  0.5279140000000  0.4741840000000 1.0
C      1  0.5055950000000  0.5660060000000  0.4215650000000 1.0
C      1  0.5300300000000  0.4624730000000  0.4509560000000 1.0
END
