TITL C-2778423-5760-615 -0.00301723248171157 125000 -1007.26812348795 0 0 176 (C1) n - 1
REM
REM in /home/nfs/bkarasulu/CARBON/AIRSS/Generating-Clusters/REBO/Only-C1/SD-CG/HFTN-CG
REM
REM
REM
REM
REM
REM ./C.cell (11c1c37f851c82e70ff6c80c92926a4b)
REM
REM compiler GCC version 9.2.1 20190827 (Red Hat 9.2.1-1)
REM options -cpp -mtune=generic -march=x86-64 -g -O0 -fpre-include=/usr/include/finclude/math-vector-fortran.h
REM seed 1704364918 439696461 -1111160652 1917119422 878858747 -365550274 907503496 -167815643 842650479 1287333797 1764398281 970506894 -1751785411 -1267891778 -1432553548 276332280 -1838724326 -1262608285 -1311872511 -1507580845 931084415 1994671781 -38690312 -1599620879 -525790549 2014533195 31830477 553777742 -1727754833 -844489599 -889456336 1775002712 -1508795037
REM
CELL 1.54180   50.00000   50.00000   50.00000   90.00000   90.00000   90.00000
LATT -1
SFAC C  
C      1  0.4055970000000  0.5146490000000  0.5439960000000 1.0
C      1  0.4877120000000  0.6051930000000  0.5725660000000 1.0
C      1  0.4617630000000  0.5582540000000  0.4467290000000 1.0
C      1  0.5023380000000  0.4568080000000  0.5962750000000 1.0
C      1  0.4090870000000  0.4878280000000  0.5557660000000 1.0
C      1  0.5343910000000  0.5275410000000  0.5281850000000 1.0
C      1  0.4651950000000  0.5127360000000  0.3914950000000 1.0
C      1  0.5434910000000  0.5958310000000  0.5416230000000 1.0
C      1  0.4462320000000  0.5229800000000  0.4813510000000 1.0
C      1  0.4915930000000  0.5129830000000  0.5684950000000 1.0
C      1  0.4942260000000  0.4465150000000  0.4050430000000 1.0
C      1  0.5287570000000  0.5837740000000  0.4918870000000 1.0
C      1  0.5275110000000  0.4587240000000  0.4846180000000 1.0
C      1  0.5571960000000  0.4155880000000  0.4949850000000 1.0
C      1  0.5706930000000  0.5982910000000  0.5214840000000 1.0
C      1  0.5699560000000  0.4359630000000  0.5227400000000 1.0
C      1  0.4291900000000  0.4354190000000  0.4430980000000 1.0
C      1  0.4773730000000  0.4180160000000  0.4754340000000 1.0
C      1  0.5067900000000  0.3932890000000  0.5450710000000 1.0
C      1  0.4012870000000  0.4437670000000  0.4848310000000 1.0
C      1  0.5109150000000  0.4063590000000  0.4571900000000 1.0
C      1  0.5978130000000  0.4797600000000  0.4927550000000 1.0
C      1  0.5047620000000  0.5478220000000  0.5457720000000 1.0
C      1  0.4696280000000  0.4631430000000  0.5632570000000 1.0
C      1  0.4492150000000  0.4779760000000  0.5054140000000 1.0
C      1  0.4845750000000  0.4392880000000  0.5243340000000 1.0
C      1  0.4879390000000  0.4795820000000  0.4065460000000 1.0
C      1  0.4641370000000  0.4152620000000  0.5597070000000 1.0
C      1  0.5503640000000  0.4546330000000  0.4596600000000 1.0
C      1  0.4892270000000  0.5687880000000  0.4378990000000 1.0
C      1  0.4310550000000  0.5045640000000  0.4240910000000 1.0
C      1  0.5180310000000  0.5531310000000  0.5148760000000 1.0
C      1  0.4689080000000  0.4385120000000  0.5822950000000 1.0
C      1  0.5872660000000  0.4595540000000  0.5407040000000 1.0
C      1  0.4576890000000  0.4407140000000  0.5064690000000 1.0
C      1  0.5908590000000  0.5545660000000  0.4866940000000 1.0
C      1  0.5679180000000  0.4911160000000  0.5262080000000 1.0
C      1  0.5896630000000  0.4553730000000  0.4623230000000 1.0
C      1  0.4953840000000  0.5238930000000  0.4906310000000 1.0
C      1  0.5527710000000  0.5126690000000  0.5984860000000 1.0
C      1  0.4663840000000  0.3931220000000  0.5149180000000 1.0
C      1  0.5526780000000  0.5966670000000  0.4490950000000 1.0
C      1  0.5093700000000  0.5554210000000  0.4154890000000 1.0
C      1  0.4259690000000  0.5401440000000  0.5538560000000 1.0
C      1  0.4452330000000  0.4756680000000  0.4340500000000 1.0
C      1  0.4824890000000  0.4094670000000  0.5359500000000 1.0
C      1  0.4237590000000  0.4435530000000  0.5081900000000 1.0
C      1  0.4722910000000  0.4502470000000  0.4770050000000 1.0
C      1  0.4983550000000  0.6103050000000  0.4690050000000 1.0
C      1  0.4230570000000  0.4377530000000  0.5474270000000 1.0
C      1  0.4895390000000  0.6099870000000  0.5144310000000 1.0
C      1  0.5407170000000  0.4732250000000  0.3923960000000 1.0
C      1  0.4208360000000  0.4906900000000  0.5816940000000 1.0
C      1  0.4604720000000  0.4894750000000  0.5772590000000 1.0
C      1  0.5007170000000  0.4616220000000  0.5043470000000 1.0
C      1  0.4420480000000  0.5863300000000  0.5164920000000 1.0
C      1  0.4650110000000  0.4079980000000  0.5926010000000 1.0
C      1  0.4308610000000  0.5040170000000  0.5028450000000 1.0
C      1  0.4527380000000  0.6005320000000  0.4873540000000 1.0
C      1  0.5572650000000  0.5535250000000  0.5081670000000 1.0
C      1  0.5992160000000  0.5325080000000  0.5033480000000 1.0
C      1  0.4993700000000  0.5759960000000  0.5639860000000 1.0
C      1  0.5825800000000  0.5201060000000  0.5633880000000 1.0
C      1  0.4740010000000  0.5058410000000  0.5189370000000 1.0
C      1  0.5317940000000  0.4980400000000  0.4616860000000 1.0
C      1  0.4887170000000  0.5786580000000  0.5217740000000 1.0
C      1  0.5133100000000  0.5064970000000  0.5132360000000 1.0
C      1  0.4211700000000  0.4169790000000  0.4629360000000 1.0
C      1  0.4559290000000  0.5666590000000  0.4850390000000 1.0
C      1  0.4577790000000  0.4827230000000  0.5380930000000 1.0
C      1  0.5440510000000  0.4041000000000  0.4661160000000 1.0
C      1  0.4953800000000  0.4609900000000  0.4537100000000 1.0
C      1  0.5539060000000  0.4310190000000  0.5517700000000 1.0
C      1  0.5163510000000  0.5266970000000  0.4654870000000 1.0
C      1  0.5732240000000  0.4954880000000  0.5786590000000 1.0
C      1  0.5870630000000  0.5507290000000  0.5489430000000 1.0
C      1  0.4623840000000  0.4493550000000  0.4093260000000 1.0
C      1  0.4813900000000  0.4841710000000  0.4958220000000 1.0
C      1  0.4269890000000  0.4716890000000  0.4801430000000 1.0
C      1  0.5365820000000  0.4152390000000  0.5159530000000 1.0
C      1  0.6063420000000  0.4983350000000  0.4463590000000 1.0
C      1  0.5984100000000  0.5159180000000  0.5334510000000 1.0
C      1  0.4779090000000  0.5557450000000  0.4085480000000 1.0
C      1  0.5489690000000  0.5393930000000  0.4836460000000 1.0
C      1  0.4807060000000  0.5531550000000  0.5006960000000 1.0
C      1  0.5111360000000  0.4672080000000  0.3851150000000 1.0
C      1  0.4856130000000  0.5011910000000  0.4670230000000 1.0
C      1  0.5314450000000  0.4951150000000  0.4166960000000 1.0
C      1  0.5696430000000  0.4832000000000  0.4593760000000 1.0
C      1  0.4554160000000  0.4819780000000  0.4022210000000 1.0
C      1  0.5784020000000  0.5158820000000  0.4539810000000 1.0
C      1  0.4961700000000  0.4990710000000  0.5418150000000 1.0
C      1  0.4937650000000  0.4660330000000  0.5432320000000 1.0
C      1  0.4369860000000  0.5748800000000  0.4577550000000 1.0
C      1  0.4471580000000  0.4281530000000  0.5367010000000 1.0
C      1  0.5523870000000  0.4519090000000  0.5699940000000 1.0
C      1  0.5496260000000  0.4627430000000  0.5277920000000 1.0
C      1  0.4652460000000  0.5195000000000  0.5907860000000 1.0
C      1  0.5219850000000  0.4758070000000  0.4419220000000 1.0
C      1  0.4934720000000  0.4856200000000  0.6105150000000 1.0
C      1  0.4538020000000  0.5517710000000  0.5700230000000 1.0
C      1  0.5264980000000  0.4365560000000  0.4517680000000 1.0
C      1  0.5415610000000  0.4570610000000  0.4210090000000 1.0
C      1  0.5085970000000  0.5133880000000  0.4098550000000 1.0
C      1  0.6113240000000  0.4775840000000  0.4643270000000 1.0
C      1  0.5336180000000  0.4996460000000  0.5752550000000 1.0
C      1  0.4092060000000  0.5360170000000  0.4931550000000 1.0
C      1  0.5645660000000  0.4717240000000  0.4918610000000 1.0
C      1  0.5140450000000  0.4322930000000  0.5501440000000 1.0
C      1  0.5076110000000  0.4346690000000  0.5736000000000 1.0
C      1  0.5004440000000  0.4359110000000  0.4323840000000 1.0
C      1  0.5744580000000  0.4695640000000  0.5656070000000 1.0
C      1  0.4565780000000  0.5380000000000  0.4030910000000 1.0
C      1  0.5538440000000  0.5095270000000  0.4848820000000 1.0
C      1  0.4312470000000  0.4160930000000  0.4894120000000 1.0
C      1  0.6011340000000  0.4841040000000  0.5248700000000 1.0
C      1  0.4299750000000  0.5389960000000  0.5213240000000 1.0
C      1  0.4053330000000  0.4974170000000  0.4444150000000 1.0
C      1  0.5151320000000  0.5570530000000  0.4810430000000 1.0
C      1  0.4796560000000  0.6144610000000  0.4891400000000 1.0
C      1  0.4663630000000  0.4757420000000  0.4552300000000 1.0
C      1  0.4798350000000  0.4132160000000  0.4435170000000 1.0
C      1  0.5432380000000  0.4987430000000  0.5431080000000 1.0
C      1  0.4900750000000  0.4992980000000  0.4332580000000 1.0
C      1  0.5684060000000  0.5310670000000  0.5279360000000 1.0
C      1  0.5361750000000  0.5546830000000  0.4224170000000 1.0
C      1  0.4074560000000  0.4799070000000  0.5066020000000 1.0
C      1  0.4315370000000  0.6066700000000  0.4626200000000 1.0
C      1  0.5484920000000  0.5634980000000  0.5385130000000 1.0
C      1  0.5240500000000  0.4430990000000  0.5211740000000 1.0
C      1  0.4396490000000  0.4738960000000  0.5990930000000 1.0
C      1  0.5305900000000  0.3950520000000  0.5326340000000 1.0
C      1  0.4256650000000  0.5634370000000  0.5001970000000 1.0
C      1  0.5614400000000  0.5676320000000  0.4414110000000 1.0
C      1  0.5275440000000  0.6033570000000  0.4563800000000 1.0
C      1  0.4603710000000  0.5319120000000  0.4561260000000 1.0
C      1  0.4177880000000  0.4654070000000  0.4479620000000 1.0
C      1  0.4115650000000  0.4637310000000  0.5335110000000 1.0
C      1  0.4109100000000  0.5260690000000  0.4631040000000 1.0
C      1  0.4935600000000  0.5146030000000  0.3868530000000 1.0
C      1  0.5565160000000  0.4346620000000  0.4255830000000 1.0
C      1  0.5810770000000  0.5069180000000  0.4988970000000 1.0
C      1  0.5373120000000  0.5754840000000  0.5684250000000 1.0
C      1  0.4696450000000  0.4620480000000  0.6047370000000 1.0
C      1  0.4569310000000  0.4036480000000  0.4918360000000 1.0
C      1  0.5242360000000  0.4714820000000  0.5489210000000 1.0
C      1  0.5082770000000  0.4309330000000  0.4805260000000 1.0
C      1  0.5573150000000  0.5432150000000  0.5642120000000 1.0
C      1  0.4540680000000  0.4309840000000  0.4299610000000 1.0
C      1  0.4012110000000  0.5122570000000  0.5142780000000 1.0
C      1  0.4731000000000  0.5403780000000  0.5447110000000 1.0
C      1  0.4618110000000  0.5116960000000  0.4366600000000 1.0
C      1  0.4342720000000  0.5357890000000  0.4207760000000 1.0
C      1  0.4336870000000  0.5188260000000  0.5792350000000 1.0
C      1  0.4618440000000  0.5717990000000  0.5364700000000 1.0
C      1  0.5252110000000  0.5283330000000  0.6016770000000 1.0
C      1  0.5048390000000  0.5792080000000  0.4602430000000 1.0
C      1  0.4658570000000  0.5821970000000  0.5672400000000 1.0
C      1  0.5633240000000  0.4938370000000  0.4073550000000 1.0
C      1  0.5837360000000  0.5015850000000  0.4236160000000 1.0
C      1  0.5771290000000  0.5782960000000  0.5033750000000 1.0
C      1  0.5209780000000  0.5867120000000  0.5212340000000 1.0
C      1  0.4602920000000  0.5300420000000  0.5087350000000 1.0
C      1  0.4320000000000  0.4990860000000  0.4635930000000 1.0
C      1  0.5583090000000  0.4137580000000  0.4435240000000 1.0
C      1  0.5278660000000  0.4682110000000  0.5812070000000 1.0
C      1  0.5347560000000  0.4868030000000  0.4996660000000 1.0
C      1  0.5157340000000  0.5576770000000  0.5877890000000 1.0
C      1  0.5411850000000  0.5450990000000  0.4534930000000 1.0
C      1  0.5804120000000  0.5466900000000  0.4603610000000 1.0
C      1  0.4550130000000  0.5132230000000  0.5529620000000 1.0
C      1  0.4851380000000  0.5437580000000  0.5824290000000 1.0
C      1  0.5701140000000  0.4396530000000  0.4829810000000 1.0
C      1  0.5270720000000  0.5299180000000  0.5618320000000 1.0
C      1  0.5030200000000  0.5095810000000  0.5988790000000 1.0
C      1  0.4231140000000  0.5484290000000  0.4442390000000 1.0
END
