TITL C-2778422-5617-214 -0.00157094731582159 125000 -185.121003148416 0 0 33 (C1) n - 1
REM
REM in /home/nfs/bkarasulu/CARBON/AIRSS/Generating-Clusters/REBO/Only-C1/SD-CG/HFTN-CG
REM
REM
REM
REM
REM
REM ./C.cell (11c1c37f851c82e70ff6c80c92926a4b)
REM
REM compiler GCC version 9.2.1 20190827 (Red Hat 9.2.1-1)
REM options -cpp -mtune=generic -march=x86-64 -g -O0 -fpre-include=/usr/include/finclude/math-vector-fortran.h
REM seed -595406759 673440252 1803289105 -1253094414 -1261094638 -765311053 -1156316964 -1869089433 701148850 1317292733 1398712177 -1416905531 -501881836 -29101019 709986029 1462177430 482404484 -2037590378 1313106947 -1175534295 1946761092 1014384578 2113712567 1048586601 661932467 -98575922 -1605954326 -641794570 -1055791435 -706770511 162404492 -1562091535 1233506230
REM
CELL 1.54180   50.00000   50.00000   50.00000   90.00000   90.00000   90.00000
LATT -1
SFAC C  
C      1  0.5269330000000  0.4907830000000  0.5485620000000 1.0
C      1  0.4780310000000  0.4489860000000  0.3852260000000 1.0
C      1  0.4603610000000  0.4352530000000  0.4773710000000 1.0
C      1  0.5110120000000  0.5343690000000  0.5374110000000 1.0
C      1  0.4356900000000  0.5659350000000  0.5416450000000 1.0
C      1  0.5255910000000  0.5841840000000  0.5152980000000 1.0
C      1  0.5254990000000  0.4476560000000  0.5019210000000 1.0
C      1  0.4825830000000  0.4644040000000  0.4387290000000 1.0
C      1  0.5130870000000  0.5186700000000  0.4783470000000 1.0
C      1  0.4942430000000  0.4796990000000  0.4184530000000 1.0
C      1  0.4856730000000  0.5535620000000  0.5303530000000 1.0
C      1  0.5289870000000  0.5072820000000  0.5721520000000 1.0
C      1  0.5108600000000  0.5110410000000  0.4516060000000 1.0
C      1  0.5173480000000  0.5067450000000  0.5262780000000 1.0
C      1  0.5086290000000  0.5033940000000  0.4248010000000 1.0
C      1  0.4609400000000  0.5596840000000  0.5359400000000 1.0
C      1  0.4918370000000  0.4717160000000  0.3912550000000 1.0
C      1  0.4108410000000  0.5720860000000  0.5472590000000 1.0
C      1  0.4492510000000  0.4206780000000  0.4966920000000 1.0
C      1  0.5033920000000  0.4869770000000  0.3718320000000 1.0
C      1  0.5133090000000  0.5456790000000  0.4861590000000 1.0
C      1  0.4383160000000  0.4063350000000  0.5157060000000 1.0
C      1  0.5329770000000  0.4634770000000  0.5466320000000 1.0
C      1  0.5381520000000  0.4985940000000  0.5968710000000 1.0
C      1  0.4714720000000  0.4498290000000  0.4580500000000 1.0
C      1  0.5468050000000  0.4903920000000  0.6202090000000 1.0
C      1  0.5184000000000  0.4720170000000  0.4919610000000 1.0
C      1  0.5201390000000  0.5337970000000  0.5660800000000 1.0
C      1  0.5118010000000  0.5605770000000  0.5123150000000 1.0
C      1  0.5199610000000  0.5182350000000  0.4049400000000 1.0
C      1  0.5327410000000  0.4434630000000  0.5280670000000 1.0
C      1  0.5194490000000  0.5552800000000  0.5828470000000 1.0
C      1  0.5156900000000  0.4992220000000  0.4990320000000 1.0
END
