TITL C-2778436-5916-602 0.00562417082212924 125000 -392.62670249838 0 0 69 (C1) n - 1
REM
REM in /home/nfs/bkarasulu/CARBON/AIRSS/Generating-Clusters/REBO/Only-C1/SD-CG/HFTN-CG
REM
REM
REM
REM
REM
REM ./C.cell (11c1c37f851c82e70ff6c80c92926a4b)
REM
REM compiler GCC version 9.2.1 20190827 (Red Hat 9.2.1-1)
REM options -cpp -mtune=generic -march=x86-64 -g -O0 -fpre-include=/usr/include/finclude/math-vector-fortran.h
REM seed -196464464 -1803279732 -1116317390 846630474 -1124980354 -374753676 -128368693 1163819650 301296305 1943646147 636458402 -798410117 -1011878322 -1037477507 927876286 1441805642 1301710010 -1612992094 -458243139 1903281872 -1244857774 93832562 791665832 498628219 1448268748 -1678248815 -1969120867 -645226361 1281667987 -1501050817 1861750858 1143857854 403630260
REM
CELL 1.54180   50.00000   50.00000   50.00000   90.00000   90.00000   90.00000
LATT -1
SFAC C  
C      1  0.4799950000000  0.5224790000000  0.5345920000000 1.0
C      1  0.4357460000000  0.5376740000000  0.5132830000000 1.0
C      1  0.5434680000000  0.4512150000000  0.5603950000000 1.0
C      1  0.5211300000000  0.5007350000000  0.4750380000000 1.0
C      1  0.4579180000000  0.4565980000000  0.5283470000000 1.0
C      1  0.4831900000000  0.5040010000000  0.4931550000000 1.0
C      1  0.5426610000000  0.4293130000000  0.5396200000000 1.0
C      1  0.4760080000000  0.5501110000000  0.5519320000000 1.0
C      1  0.4863640000000  0.4339240000000  0.4853260000000 1.0
C      1  0.5344730000000  0.4388010000000  0.5095830000000 1.0
C      1  0.4600040000000  0.4717300000000  0.4643410000000 1.0
C      1  0.5014400000000  0.5439510000000  0.4567610000000 1.0
C      1  0.5534150000000  0.4695430000000  0.5388940000000 1.0
C      1  0.5372410000000  0.5375500000000  0.5380740000000 1.0
C      1  0.4990230000000  0.5334110000000  0.4873090000000 1.0
C      1  0.4836990000000  0.4948670000000  0.5240890000000 1.0
C      1  0.4373710000000  0.5097720000000  0.4471130000000 1.0
C      1  0.5335500000000  0.5616840000000  0.5145250000000 1.0
C      1  0.5755160000000  0.4586250000000  0.4923600000000 1.0
C      1  0.4378970000000  0.5001450000000  0.5434680000000 1.0
C      1  0.4968950000000  0.4430670000000  0.5517040000000 1.0
C      1  0.5631700000000  0.5319190000000  0.5185810000000 1.0
C      1  0.4620020000000  0.5446110000000  0.4745540000000 1.0
C      1  0.5309140000000  0.4480360000000  0.4568350000000 1.0
C      1  0.5317410000000  0.5005740000000  0.5070760000000 1.0
C      1  0.5198260000000  0.4303030000000  0.4818980000000 1.0
C      1  0.5083950000000  0.5400900000000  0.5564380000000 1.0
C      1  0.5291190000000  0.4878860000000  0.5333280000000 1.0
C      1  0.5612300000000  0.4549490000000  0.5152040000000 1.0
C      1  0.4973500000000  0.4544360000000  0.4598330000000 1.0
C      1  0.4252380000000  0.5037180000000  0.4738070000000 1.0
C      1  0.5025990000000  0.4698860000000  0.5311950000000 1.0
C      1  0.4517180000000  0.5364320000000  0.4442680000000 1.0
C      1  0.4339380000000  0.4756490000000  0.4783650000000 1.0
C      1  0.5198850000000  0.5188840000000  0.4477790000000 1.0
C      1  0.4225380000000  0.4933410000000  0.5205710000000 1.0
C      1  0.4567840000000  0.4798480000000  0.5494840000000 1.0
C      1  0.4824350000000  0.4900060000000  0.5590320000000 1.0
C      1  0.5256260000000  0.5110040000000  0.5556730000000 1.0
C      1  0.5088080000000  0.4870910000000  0.5682090000000 1.0
C      1  0.5587110000000  0.4636570000000  0.4658900000000 1.0
C      1  0.5126370000000  0.4610380000000  0.4954410000000 1.0
C      1  0.5139470000000  0.5020140000000  0.4254190000000 1.0
C      1  0.5543140000000  0.5248660000000  0.4543840000000 1.0
C      1  0.5282290000000  0.5327960000000  0.4994560000000 1.0
C      1  0.4775350000000  0.5769420000000  0.5337180000000 1.0
C      1  0.5535710000000  0.5012630000000  0.4353910000000 1.0
C      1  0.4225020000000  0.5149190000000  0.5011410000000 1.0
C      1  0.5167190000000  0.4593510000000  0.5684340000000 1.0
C      1  0.4493320000000  0.5306560000000  0.5420140000000 1.0
C      1  0.4736930000000  0.5146460000000  0.4630470000000 1.0
C      1  0.5335090000000  0.5491020000000  0.4653630000000 1.0
C      1  0.4621920000000  0.5777800000000  0.5114100000000 1.0
C      1  0.5089600000000  0.5665770000000  0.5351030000000 1.0
C      1  0.4801990000000  0.5510880000000  0.4397070000000 1.0
C      1  0.5099340000000  0.4718550000000  0.4330610000000 1.0
C      1  0.5878380000000  0.5346260000000  0.5278140000000 1.0
C      1  0.4811290000000  0.4724620000000  0.4913020000000 1.0
C      1  0.4570040000000  0.4479510000000  0.4953290000000 1.0
C      1  0.5522780000000  0.4895460000000  0.4822870000000 1.0
C      1  0.5434310000000  0.4743280000000  0.4385030000000 1.0
C      1  0.4940350000000  0.5439580000000  0.5168260000000 1.0
C      1  0.4314450000000  0.4657910000000  0.5087360000000 1.0
C      1  0.4874640000000  0.4415580000000  0.5189990000000 1.0
C      1  0.4550390000000  0.4874590000000  0.4404570000000 1.0
C      1  0.4510620000000  0.5556450000000  0.4975350000000 1.0
C      1  0.4955530000000  0.4889490000000  0.4583520000000 1.0
C      1  0.5394920000000  0.5685510000000  0.4857450000000 1.0
C      1  0.5579240000000  0.5227700000000  0.4870950000000 1.0
END
