TITL C-2778432-5617-1423 -2.26365830827769e-07 125000 -230.049772054799 0 0 39 (C1) n - 1
REM
REM in /home/nfs/bkarasulu/CARBON/AIRSS/Generating-Clusters/REBO/Only-C1/SD-CG/HFTN-CG
REM
REM
REM
REM
REM
REM ./C.cell (11c1c37f851c82e70ff6c80c92926a4b)
REM
REM compiler GCC version 9.2.1 20190827 (Red Hat 9.2.1-1)
REM options -cpp -mtune=generic -march=x86-64 -g -O0 -fpre-include=/usr/include/finclude/math-vector-fortran.h
REM seed 378939576 1266185711 1331690499 -34979284 -1438771202 1197382436 -1612547313 250482730 -17522870 -2141990516 -213790824 1515308292 -1443857264 -837144250 2132027001 1620924537 -396668832 645243670 -127799598 1959067674 354819614 29756945 -312974780 1596556118 1779551481 225718829 753782684 -924868170 652522388 -1936545753 1252607408 -163279970 -471501919
REM
CELL 1.54180   50.00000   50.00000   50.00000   90.00000   90.00000   90.00000
LATT -1
SFAC C  
C      1  0.4743020000000  0.5297240000000  0.5088450000000 1.0
C      1  0.5289860000000  0.4960460000000  0.5383000000000 1.0
C      1  0.4629180000000  0.5481520000000  0.5537500000000 1.0
C      1  0.4974320000000  0.4851070000000  0.4452640000000 1.0
C      1  0.5558510000000  0.5026400000000  0.5415230000000 1.0
C      1  0.5255570000000  0.5517290000000  0.4554930000000 1.0
C      1  0.4600040000000  0.4520920000000  0.4994850000000 1.0
C      1  0.5499440000000  0.4593190000000  0.4924810000000 1.0
C      1  0.4501270000000  0.5295240000000  0.4884930000000 1.0
C      1  0.4783760000000  0.5303830000000  0.4502100000000 1.0
C      1  0.5170650000000  0.4820860000000  0.4654020000000 1.0
C      1  0.4573300000000  0.5090560000000  0.5287340000000 1.0
C      1  0.5034950000000  0.5234250000000  0.4932750000000 1.0
C      1  0.4561530000000  0.5426510000000  0.4638030000000 1.0
C      1  0.4716310000000  0.4847100000000  0.5333990000000 1.0
C      1  0.4619420000000  0.4384090000000  0.5466260000000 1.0
C      1  0.5030410000000  0.5367510000000  0.4637780000000 1.0
C      1  0.5128470000000  0.5462120000000  0.5394450000000 1.0
C      1  0.5731790000000  0.4996310000000  0.4801920000000 1.0
C      1  0.5384720000000  0.5485550000000  0.5509200000000 1.0
C      1  0.4836820000000  0.5485900000000  0.5337730000000 1.0
C      1  0.4680400000000  0.4066560000000  0.4827610000000 1.0
C      1  0.5737110000000  0.4864620000000  0.5265660000000 1.0
C      1  0.5511270000000  0.5423620000000  0.4604560000000 1.0
C      1  0.5589020000000  0.5296150000000  0.5508250000000 1.0
C      1  0.4393980000000  0.5035010000000  0.4837040000000 1.0
C      1  0.5520880000000  0.5167200000000  0.4724390000000 1.0
C      1  0.4774870000000  0.4315850000000  0.4882110000000 1.0
C      1  0.4506970000000  0.4899480000000  0.4564520000000 1.0
C      1  0.5097230000000  0.5191470000000  0.5238930000000 1.0
C      1  0.4627440000000  0.4578350000000  0.5276230000000 1.0
C      1  0.4743220000000  0.5017140000000  0.4444970000000 1.0
C      1  0.4472070000000  0.5250570000000  0.5506940000000 1.0
C      1  0.5255830000000  0.5066380000000  0.4773450000000 1.0
C      1  0.5247040000000  0.4581190000000  0.4793480000000 1.0
C      1  0.4987350000000  0.4896100000000  0.5355680000000 1.0
C      1  0.5042670000000  0.4391970000000  0.4833690000000 1.0
C      1  0.5697620000000  0.4787250000000  0.4993560000000 1.0
C      1  0.4491660000000  0.4723140000000  0.4837040000000 1.0
END
