TITL C-2778437-8639-1467 0.00231107346717037 125000 -1107.9504607684 0 0 188 (C1) n - 1
REM
REM in /home/nfs/bkarasulu/CARBON/AIRSS/Generating-Clusters/REBO/Only-C1/SD-CG/HFTN-CG
REM
REM
REM
REM
REM
REM ./C.cell (11c1c37f851c82e70ff6c80c92926a4b)
REM
REM compiler GCC version 9.2.1 20190827 (Red Hat 9.2.1-1)
REM options -cpp -mtune=generic -march=x86-64 -g -O0 -fpre-include=/usr/include/finclude/math-vector-fortran.h
REM seed -1731168542 1723115000 170888832 1884155421 -610280917 977054613 1845814637 377782666 2110018330 938130552 -1409713977 -548443722 1187493655 -1045036455 413084324 1581379390 -731091438 1607081070 1283607989 1865608746 -666925193 73743610 179300819 -1207647975 1486312082 -811256843 -1869266710 74611017 -2134508885 -1213619632 -70334240 -1725689866 -2032321886
REM
CELL 1.54180   50.00000   50.00000   50.00000   90.00000   90.00000   90.00000
LATT -1
SFAC C  
C      1  0.5251420000000  0.3987370000000  0.5273940000000 1.0
C      1  0.5420340000000  0.5806940000000  0.5349530000000 1.0
C      1  0.4309980000000  0.5929890000000  0.5242320000000 1.0
C      1  0.4108210000000  0.5415830000000  0.4306300000000 1.0
C      1  0.3965620000000  0.4543330000000  0.4732910000000 1.0
C      1  0.5140500000000  0.6066290000000  0.5231780000000 1.0
C      1  0.4690730000000  0.5165790000000  0.5567740000000 1.0
C      1  0.5143900000000  0.5345750000000  0.4840310000000 1.0
C      1  0.4433570000000  0.4330860000000  0.5287500000000 1.0
C      1  0.5088920000000  0.5117360000000  0.5864940000000 1.0
C      1  0.4797400000000  0.4710150000000  0.5280190000000 1.0
C      1  0.5157660000000  0.4560000000000  0.4130760000000 1.0
C      1  0.5171570000000  0.4908340000000  0.6022380000000 1.0
C      1  0.4390690000000  0.5601580000000  0.5649800000000 1.0
C      1  0.5211820000000  0.4940340000000  0.5529440000000 1.0
C      1  0.4573660000000  0.4132120000000  0.4436540000000 1.0
C      1  0.5337280000000  0.5270200000000  0.4612430000000 1.0
C      1  0.5895030000000  0.4592040000000  0.5620300000000 1.0
C      1  0.5544120000000  0.5459970000000  0.4292290000000 1.0
C      1  0.4779570000000  0.4703940000000  0.4839170000000 1.0
C      1  0.5091930000000  0.5432940000000  0.5341190000000 1.0
C      1  0.4915690000000  0.4941010000000  0.4231940000000 1.0
C      1  0.4432090000000  0.4793680000000  0.5874460000000 1.0
C      1  0.4695890000000  0.4472800000000  0.4049240000000 1.0
C      1  0.4328140000000  0.5336460000000  0.5859590000000 1.0
C      1  0.4949580000000  0.5855570000000  0.4456280000000 1.0
C      1  0.4358040000000  0.5151470000000  0.5349670000000 1.0
C      1  0.5651320000000  0.5184440000000  0.5547580000000 1.0
C      1  0.5244310000000  0.4478970000000  0.4918410000000 1.0
C      1  0.5565990000000  0.4462960000000  0.5278770000000 1.0
C      1  0.6013150000000  0.4707790000000  0.5339850000000 1.0
C      1  0.5937170000000  0.5352770000000  0.4873730000000 1.0
C      1  0.5222130000000  0.4608800000000  0.4655150000000 1.0
C      1  0.5214020000000  0.3869630000000  0.5509690000000 1.0
C      1  0.4596890000000  0.5124140000000  0.3612580000000 1.0
C      1  0.5591730000000  0.5543280000000  0.5273250000000 1.0
C      1  0.5674070000000  0.4791240000000  0.4885080000000 1.0
C      1  0.4733060000000  0.4229060000000  0.5734310000000 1.0
C      1  0.4858470000000  0.4759180000000  0.3966790000000 1.0
C      1  0.4212800000000  0.4547380000000  0.5243090000000 1.0
C      1  0.5106520000000  0.4350600000000  0.6029110000000 1.0
C      1  0.4756570000000  0.5482830000000  0.5549330000000 1.0
C      1  0.5574920000000  0.5911930000000  0.4489380000000 1.0
C      1  0.4679030000000  0.5251270000000  0.3838660000000 1.0
C      1  0.6043760000000  0.5415840000000  0.5405810000000 1.0
C      1  0.5120760000000  0.5496850000000  0.5979730000000 1.0
C      1  0.5185210000000  0.4109340000000  0.4360890000000 1.0
C      1  0.4089890000000  0.4841480000000  0.5372860000000 1.0
C      1  0.5867410000000  0.4797110000000  0.5822810000000 1.0
C      1  0.4138950000000  0.5518110000000  0.4689190000000 1.0
C      1  0.5592600000000  0.4942110000000  0.4304850000000 1.0
C      1  0.3995730000000  0.5245960000000  0.4568700000000 1.0
C      1  0.3970980000000  0.5151410000000  0.5441700000000 1.0
C      1  0.3855520000000  0.5269860000000  0.5185260000000 1.0
C      1  0.5173910000000  0.5614020000000  0.4498260000000 1.0
C      1  0.4678790000000  0.5764840000000  0.4365960000000 1.0
C      1  0.4195450000000  0.5692910000000  0.4423860000000 1.0
C      1  0.5525890000000  0.4257230000000  0.5754800000000 1.0
C      1  0.4368260000000  0.4562780000000  0.4389580000000 1.0
C      1  0.4450230000000  0.4495820000000  0.4925720000000 1.0
C      1  0.4487460000000  0.4809060000000  0.4807650000000 1.0
C      1  0.4552780000000  0.5570980000000  0.4551550000000 1.0
C      1  0.5850210000000  0.5627870000000  0.5447090000000 1.0
C      1  0.4632310000000  0.4688450000000  0.5546240000000 1.0
C      1  0.4402010000000  0.5978770000000  0.4764620000000 1.0
C      1  0.4882610000000  0.5289980000000  0.4421930000000 1.0
C      1  0.5497420000000  0.5398430000000  0.5704590000000 1.0
C      1  0.5186170000000  0.5169210000000  0.3960320000000 1.0
C      1  0.4626630000000  0.5178680000000  0.4769170000000 1.0
C      1  0.5385660000000  0.5270510000000  0.4162590000000 1.0
C      1  0.5210470000000  0.5262230000000  0.5581890000000 1.0
C      1  0.4193610000000  0.5340300000000  0.5558950000000 1.0
C      1  0.5185780000000  0.4850530000000  0.3952800000000 1.0
C      1  0.5191450000000  0.4913180000000  0.4708380000000 1.0
C      1  0.5281080000000  0.4148090000000  0.5901310000000 1.0
C      1  0.5768600000000  0.5129760000000  0.4281870000000 1.0
C      1  0.4495970000000  0.5344590000000  0.4335390000000 1.0
C      1  0.4753750000000  0.4975590000000  0.6026510000000 1.0
C      1  0.5461020000000  0.4624540000000  0.5058370000000 1.0
C      1  0.5968120000000  0.4841370000000  0.4612650000000 1.0
C      1  0.5654500000000  0.5372610000000  0.4585410000000 1.0
C      1  0.5954860000000  0.5208630000000  0.5591070000000 1.0
C      1  0.4462120000000  0.5339770000000  0.5096110000000 1.0
C      1  0.4081590000000  0.5018310000000  0.4767910000000 1.0
C      1  0.4314300000000  0.4539650000000  0.5757140000000 1.0
C      1  0.5875020000000  0.4340230000000  0.4677710000000 1.0
C      1  0.4770730000000  0.5381840000000  0.5240790000000 1.0
C      1  0.4803620000000  0.5806370000000  0.5633150000000 1.0
C      1  0.4960970000000  0.5624350000000  0.4002680000000 1.0
C      1  0.5078350000000  0.4876230000000  0.5244840000000 1.0
C      1  0.5746310000000  0.4139440000000  0.4914190000000 1.0
C      1  0.6064800000000  0.5293250000000  0.5132430000000 1.0
C      1  0.4214720000000  0.5899530000000  0.4976800000000 1.0
C      1  0.4677450000000  0.4643960000000  0.6059470000000 1.0
C      1  0.4484660000000  0.4131760000000  0.4766110000000 1.0
C      1  0.5840710000000  0.5102410000000  0.4673150000000 1.0
C      1  0.5556000000000  0.4281730000000  0.4303850000000 1.0
C      1  0.5520380000000  0.4941260000000  0.5657160000000 1.0
C      1  0.4670170000000  0.5953410000000  0.4855730000000 1.0
C      1  0.5379830000000  0.5360060000000  0.5989770000000 1.0
C      1  0.5289450000000  0.3952230000000  0.4550580000000 1.0
C      1  0.4276080000000  0.4814650000000  0.5042550000000 1.0
C      1  0.4573520000000  0.4354920000000  0.4275870000000 1.0
C      1  0.5510320000000  0.4651930000000  0.5531550000000 1.0
C      1  0.4279710000000  0.5132740000000  0.4414900000000 1.0
C      1  0.5152270000000  0.5760730000000  0.4196770000000 1.0
C      1  0.5237570000000  0.4633270000000  0.6048330000000 1.0
C      1  0.5671800000000  0.4532960000000  0.4250370000000 1.0
C      1  0.4603490000000  0.3871900000000  0.5139120000000 1.0
C      1  0.4983050000000  0.5357680000000  0.3895630000000 1.0
C      1  0.5620130000000  0.5724830000000  0.5015660000000 1.0
C      1  0.5401680000000  0.4929680000000  0.5179980000000 1.0
C      1  0.5186760000000  0.3909530000000  0.5778530000000 1.0
C      1  0.4002460000000  0.5000110000000  0.5077280000000 1.0
C      1  0.4842340000000  0.4492060000000  0.4612760000000 1.0
C      1  0.5170550000000  0.5576300000000  0.5042070000000 1.0
C      1  0.4524900000000  0.5788110000000  0.5436690000000 1.0
C      1  0.6013180000000  0.4491490000000  0.5124710000000 1.0
C      1  0.5429760000000  0.5984650000000  0.4784780000000 1.0
C      1  0.4730620000000  0.5192680000000  0.4157120000000 1.0
C      1  0.4807010000000  0.4184100000000  0.4753750000000 1.0
C      1  0.5089620000000  0.4418280000000  0.4427470000000 1.0
C      1  0.5341220000000  0.4721640000000  0.4369980000000 1.0
C      1  0.5735610000000  0.4321550000000  0.5533830000000 1.0
C      1  0.5471040000000  0.5733800000000  0.4259290000000 1.0
C      1  0.4860440000000  0.3920710000000  0.5321920000000 1.0
C      1  0.5807570000000  0.4255720000000  0.5202920000000 1.0
C      1  0.5445970000000  0.6006780000000  0.5102600000000 1.0
C      1  0.5405960000000  0.5868740000000  0.5683640000000 1.0
C      1  0.4633600000000  0.5481810000000  0.5861880000000 1.0
C      1  0.5859370000000  0.4595370000000  0.4456040000000 1.0
C      1  0.5760110000000  0.5047360000000  0.5058260000000 1.0
C      1  0.5344950000000  0.4514910000000  0.5755890000000 1.0
C      1  0.5494400000000  0.5125900000000  0.6113280000000 1.0
C      1  0.4668410000000  0.5796610000000  0.5126370000000 1.0
C      1  0.4044030000000  0.5678860000000  0.4921410000000 1.0
C      1  0.5135220000000  0.5722050000000  0.5434780000000 1.0
C      1  0.4876950000000  0.3941210000000  0.4982550000000 1.0
C      1  0.4659060000000  0.5002170000000  0.5292310000000 1.0
C      1  0.5563120000000  0.5223610000000  0.5248500000000 1.0
C      1  0.5168570000000  0.5132600000000  0.4357920000000 1.0
C      1  0.4109340000000  0.4464850000000  0.4945930000000 1.0
C      1  0.4852640000000  0.4025260000000  0.5580730000000 1.0
C      1  0.5624140000000  0.4169730000000  0.4565630000000 1.0
C      1  0.4374430000000  0.4868660000000  0.5539420000000 1.0
C      1  0.5606970000000  0.4912600000000  0.5957660000000 1.0
C      1  0.4328150000000  0.4381660000000  0.4629440000000 1.0
C      1  0.5516140000000  0.5015630000000  0.4701110000000 1.0
C      1  0.6051120000000  0.4990640000000  0.5197200000000 1.0
C      1  0.6050110000000  0.5015590000000  0.5770890000000 1.0
C      1  0.4414860000000  0.4872710000000  0.4497590000000 1.0
C      1  0.4955340000000  0.4330300000000  0.4999320000000 1.0
C      1  0.4526210000000  0.4381700000000  0.5578660000000 1.0
C      1  0.5105400000000  0.5738790000000  0.5775690000000 1.0
C      1  0.4848910000000  0.5303080000000  0.5993970000000 1.0
C      1  0.4322480000000  0.5257480000000  0.4796740000000 1.0
C      1  0.4893000000000  0.5909390000000  0.5321160000000 1.0
C      1  0.4793030000000  0.5129280000000  0.5034490000000 1.0
C      1  0.5440250000000  0.4046120000000  0.4819880000000 1.0
C      1  0.5242800000000  0.4156550000000  0.5022670000000 1.0
C      1  0.4493170000000  0.5472390000000  0.4018130000000 1.0
C      1  0.5703620000000  0.4835210000000  0.5319530000000 1.0
C      1  0.5144460000000  0.5841620000000  0.4902350000000 1.0
C      1  0.4521570000000  0.4727300000000  0.3953760000000 1.0
C      1  0.5756620000000  0.5588270000000  0.4810330000000 1.0
C      1  0.4924700000000  0.5937260000000  0.4745770000000 1.0
C      1  0.4319650000000  0.5935820000000  0.4492550000000 1.0
C      1  0.5629590000000  0.5661570000000  0.5655870000000 1.0
C      1  0.4065930000000  0.4810810000000  0.4312070000000 1.0
C      1  0.4303340000000  0.4763250000000  0.4129480000000 1.0
C      1  0.5494360000000  0.4748010000000  0.4055710000000 1.0
C      1  0.5937300000000  0.4601730000000  0.4846610000000 1.0
C      1  0.4739290000000  0.4776870000000  0.4453580000000 1.0
C      1  0.4616910000000  0.5559380000000  0.4886570000000 1.0
C      1  0.4686220000000  0.5686840000000  0.4088530000000 1.0
C      1  0.4871180000000  0.5406800000000  0.4718760000000 1.0
C      1  0.5083930000000  0.5057110000000  0.4976310000000 1.0
C      1  0.4017220000000  0.4779130000000  0.4589630000000 1.0
C      1  0.4712990000000  0.4451760000000  0.5137370000000 1.0
C      1  0.5094280000000  0.4708400000000  0.5685350000000 1.0
C      1  0.4826310000000  0.4365180000000  0.5966070000000 1.0
C      1  0.4532840000000  0.5098810000000  0.5822400000000 1.0
C      1  0.5198900000000  0.4236190000000  0.4092030000000 1.0
C      1  0.4419780000000  0.4084610000000  0.5070710000000 1.0
C      1  0.4817010000000  0.4750510000000  0.5774890000000 1.0
C      1  0.3873780000000  0.5531370000000  0.5090530000000 1.0
C      1  0.5403660000000  0.5677330000000  0.4647950000000 1.0
C      1  0.4891180000000  0.5019380000000  0.4622100000000 1.0
END
