TITL C-2778422-5617-173 0.178737845224521 125000 -553.357825667921 0 0 95 (C1) n - 1
REM
REM in /home/nfs/bkarasulu/CARBON/AIRSS/Generating-Clusters/REBO/Only-C1/SD-CG/HFTN-CG
REM
REM
REM
REM
REM
REM ./C.cell (11c1c37f851c82e70ff6c80c92926a4b)
REM
REM compiler GCC version 9.2.1 20190827 (Red Hat 9.2.1-1)
REM options -cpp -mtune=generic -march=x86-64 -g -O0 -fpre-include=/usr/include/finclude/math-vector-fortran.h
REM seed 1012537174 -1794375768 1417883384 1488396545 -115579624 -1626079871 -1447182873 604364703 1030152950 -131694398 1265806451 394869588 1524188008 1724431745 -312411963 -1886021311 1610334660 -558613623 -686019318 1473360022 1231544479 -231460327 -161422309 1153016199 -2119008774 -1395022603 -1447187171 -2135968746 -1702688724 -300440875 -1902766396 -753070877 -1822349503
REM
CELL 1.54180   50.00000   50.00000   50.00000   90.00000   90.00000   90.00000
LATT -1
SFAC C  
C      1  0.5648780000000  0.5105610000000  0.4387160000000 1.0
C      1  0.4158200000000  0.4819530000000  0.4490800000000 1.0
C      1  0.4564340000000  0.4916610000000  0.5686600000000 1.0
C      1  0.5248180000000  0.4944880000000  0.4230240000000 1.0
C      1  0.4769970000000  0.5463160000000  0.5458620000000 1.0
C      1  0.5237080000000  0.5275550000000  0.5439260000000 1.0
C      1  0.5462610000000  0.4279850000000  0.4537470000000 1.0
C      1  0.4168440000000  0.4607790000000  0.5064870000000 1.0
C      1  0.5450250000000  0.4899810000000  0.4572280000000 1.0
C      1  0.4915160000000  0.5505010000000  0.5701090000000 1.0
C      1  0.5457720000000  0.4685370000000  0.4303630000000 1.0
C      1  0.5785860000000  0.5440290000000  0.4752940000000 1.0
C      1  0.4348930000000  0.4428610000000  0.4839080000000 1.0
C      1  0.4411940000000  0.4987350000000  0.5132860000000 1.0
C      1  0.5656810000000  0.4946240000000  0.4843470000000 1.0
C      1  0.5772060000000  0.5296430000000  0.4997850000000 1.0
C      1  0.4766560000000  0.4983950000000  0.4745820000000 1.0
C      1  0.5511600000000  0.5395010000000  0.5608110000000 1.0
C      1  0.5206300000000  0.4466240000000  0.4293580000000 1.0
C      1  0.4202980000000  0.5119490000000  0.4995430000000 1.0
C      1  0.5310580000000  0.5847400000000  0.5042000000000 1.0
C      1  0.4718060000000  0.4427920000000  0.4095720000000 1.0
C      1  0.5518170000000  0.4547600000000  0.5578740000000 1.0
C      1  0.4981760000000  0.4487510000000  0.5285920000000 1.0
C      1  0.4788720000000  0.5826660000000  0.4831530000000 1.0
C      1  0.4788140000000  0.4500520000000  0.4562460000000 1.0
C      1  0.5084740000000  0.5166760000000  0.5999380000000 1.0
C      1  0.5292640000000  0.4387550000000  0.4726690000000 1.0
C      1  0.5476040000000  0.4289660000000  0.5276620000000 1.0
C      1  0.4270330000000  0.5256430000000  0.5428230000000 1.0
C      1  0.5488530000000  0.5368770000000  0.5125020000000 1.0
C      1  0.5250700000000  0.5782360000000  0.5371770000000 1.0
C      1  0.4669740000000  0.4374810000000  0.5728700000000 1.0
C      1  0.4097620000000  0.5016660000000  0.4759320000000 1.0
C      1  0.5691290000000  0.4451700000000  0.5231790000000 1.0
C      1  0.4090890000000  0.4628510000000  0.4750890000000 1.0
C      1  0.4671860000000  0.4967690000000  0.5023510000000 1.0
C      1  0.5638130000000  0.4803370000000  0.5617700000000 1.0
C      1  0.5670850000000  0.4707530000000  0.5154680000000 1.0
C      1  0.5295170000000  0.5091020000000  0.5175960000000 1.0
C      1  0.4366340000000  0.4630610000000  0.4371890000000 1.0
C      1  0.5070890000000  0.5128440000000  0.4114270000000 1.0
C      1  0.5213380000000  0.5562110000000  0.5623410000000 1.0
C      1  0.5243560000000  0.5172500000000  0.4619710000000 1.0
C      1  0.5245720000000  0.4503270000000  0.5628250000000 1.0
C      1  0.4572650000000  0.5614830000000  0.5314510000000 1.0
C      1  0.4656080000000  0.5642490000000  0.4615560000000 1.0
C      1  0.5388580000000  0.4804480000000  0.5035480000000 1.0
C      1  0.5041210000000  0.5669250000000  0.4719630000000 1.0
C      1  0.4970520000000  0.4400940000000  0.5675610000000 1.0
C      1  0.4859140000000  0.5302140000000  0.5893230000000 1.0
C      1  0.5228010000000  0.4965750000000  0.5866360000000 1.0
C      1  0.5283950000000  0.5440640000000  0.4458210000000 1.0
C      1  0.4194380000000  0.4704930000000  0.5310970000000 1.0
C      1  0.5418720000000  0.5164270000000  0.4870090000000 1.0
C      1  0.5018900000000  0.5366920000000  0.4747910000000 1.0
C      1  0.5208470000000  0.4322010000000  0.5198110000000 1.0
C      1  0.4383550000000  0.5365590000000  0.4651520000000 1.0
C      1  0.4751910000000  0.4389540000000  0.5151480000000 1.0
C      1  0.4533080000000  0.4242650000000  0.4978000000000 1.0
C      1  0.5773480000000  0.5238700000000  0.5578940000000 1.0
C      1  0.4365910000000  0.4946520000000  0.5461090000000 1.0
C      1  0.4848940000000  0.4206910000000  0.4900390000000 1.0
C      1  0.4788850000000  0.5467910000000  0.4437120000000 1.0
C      1  0.4751430000000  0.4694330000000  0.5702300000000 1.0
C      1  0.4949530000000  0.5257030000000  0.5288840000000 1.0
C      1  0.5835280000000  0.4994670000000  0.5130400000000 1.0
C      1  0.5623870000000  0.4177660000000  0.4357940000000 1.0
C      1  0.4943460000000  0.4747610000000  0.4684920000000 1.0
C      1  0.4247190000000  0.5148590000000  0.4518240000000 1.0
C      1  0.5052630000000  0.5530140000000  0.4344000000000 1.0
C      1  0.4476420000000  0.4566100000000  0.4119020000000 1.0
C      1  0.5072580000000  0.4782540000000  0.5690190000000 1.0
C      1  0.4506940000000  0.4506710000000  0.4583570000000 1.0
C      1  0.4891270000000  0.5455880000000  0.5044450000000 1.0
C      1  0.5708740000000  0.5356740000000  0.4459890000000 1.0
C      1  0.4978140000000  0.4758340000000  0.5379590000000 1.0
C      1  0.5012900000000  0.5753410000000  0.5153370000000 1.0
C      1  0.4875830000000  0.4972850000000  0.5230270000000 1.0
C      1  0.4285480000000  0.5421810000000  0.4973690000000 1.0
C      1  0.4603950000000  0.5477770000000  0.4891440000000 1.0
C      1  0.5254110000000  0.4691720000000  0.4761550000000 1.0
C      1  0.4816070000000  0.5133500000000  0.4221520000000 1.0
C      1  0.5143420000000  0.4235260000000  0.4921460000000 1.0
C      1  0.5507640000000  0.4936640000000  0.5839870000000 1.0
C      1  0.5486550000000  0.5569070000000  0.5338210000000 1.0
C      1  0.5780480000000  0.4990380000000  0.5456030000000 1.0
C      1  0.4902130000000  0.4403870000000  0.4315600000000 1.0
C      1  0.4330950000000  0.5472910000000  0.5271420000000 1.0
C      1  0.5085610000000  0.4746930000000  0.4403920000000 1.0
C      1  0.4743190000000  0.5163160000000  0.4517260000000 1.0
C      1  0.5528000000000  0.5607760000000  0.4603510000000 1.0
C      1  0.4632660000000  0.5137400000000  0.5834620000000 1.0
C      1  0.4696090000000  0.5794360000000  0.5125710000000 1.0
C      1  0.5313570000000  0.5764230000000  0.4767630000000 1.0
END
