TITL C-2778436-5916-1296 0.000103193142251383 125000 -517.197783692856 0 0 92 (C1) n - 1
REM
REM in /home/nfs/bkarasulu/CARBON/AIRSS/Generating-Clusters/REBO/Only-C1/SD-CG/HFTN-CG
REM
REM
REM
REM
REM
REM ./C.cell (11c1c37f851c82e70ff6c80c92926a4b)
REM
REM compiler GCC version 9.2.1 20190827 (Red Hat 9.2.1-1)
REM options -cpp -mtune=generic -march=x86-64 -g -O0 -fpre-include=/usr/include/finclude/math-vector-fortran.h
REM seed -238268243 332789303 -1785823808 -747571400 -1203036185 609336830 799275290 -502830113 80933777 1467372625 493242400 -2128177850 -491020084 1046691423 -1969438017 -2111490607 2020139331 -49857876 -1300361076 -1123054265 -1964613963 -214796088 687498071 -291674263 -1538508457 -1970208478 -284710312 -434782963 -1591095182 -234030788 2001442296 1756908270 -1299224233
REM
CELL 1.54180   50.00000   50.00000   50.00000   90.00000   90.00000   90.00000
LATT -1
SFAC C  
C      1  0.5149090000000  0.4933870000000  0.5046080000000 1.0
C      1  0.5064800000000  0.4811640000000  0.4752170000000 1.0
C      1  0.4641890000000  0.4677820000000  0.5562600000000 1.0
C      1  0.5639840000000  0.4812220000000  0.4726790000000 1.0
C      1  0.5366430000000  0.4621140000000  0.5505590000000 1.0
C      1  0.5343640000000  0.4950600000000  0.4698560000000 1.0
C      1  0.4680990000000  0.4379640000000  0.4718950000000 1.0
C      1  0.4848890000000  0.4237960000000  0.5049550000000 1.0
C      1  0.4168510000000  0.5470820000000  0.5333960000000 1.0
C      1  0.4818580000000  0.4669860000000  0.5142220000000 1.0
C      1  0.5360550000000  0.4974320000000  0.5684760000000 1.0
C      1  0.5135280000000  0.5790110000000  0.5131380000000 1.0
C      1  0.5685420000000  0.5621290000000  0.5245640000000 1.0
C      1  0.4334410000000  0.5289850000000  0.4445250000000 1.0
C      1  0.4682660000000  0.5535650000000  0.5505170000000 1.0
C      1  0.4604070000000  0.5121410000000  0.5235330000000 1.0
C      1  0.4976640000000  0.4282990000000  0.5674610000000 1.0
C      1  0.5267630000000  0.5434180000000  0.5005960000000 1.0
C      1  0.5773800000000  0.5133520000000  0.4405850000000 1.0
C      1  0.5620750000000  0.4851250000000  0.5499790000000 1.0
C      1  0.5263110000000  0.5605360000000  0.5386130000000 1.0
C      1  0.5417740000000  0.4980650000000  0.4308320000000 1.0
C      1  0.5193650000000  0.4347070000000  0.4617090000000 1.0
C      1  0.4600910000000  0.4901000000000  0.4659970000000 1.0
C      1  0.5243200000000  0.4303270000000  0.5463240000000 1.0
C      1  0.5503150000000  0.5624900000000  0.4750010000000 1.0
C      1  0.5838980000000  0.4728630000000  0.5336880000000 1.0
C      1  0.4714280000000  0.5691560000000  0.4700540000000 1.0
C      1  0.4399810000000  0.4963900000000  0.4394160000000 1.0
C      1  0.4651590000000  0.4814100000000  0.5315900000000 1.0
C      1  0.4368340000000  0.4994230000000  0.5068600000000 1.0
C      1  0.5024020000000  0.5741670000000  0.4812070000000 1.0
C      1  0.4853290000000  0.4823070000000  0.4516390000000 1.0
C      1  0.4436210000000  0.4668830000000  0.4847120000000 1.0
C      1  0.5005390000000  0.5412360000000  0.5151590000000 1.0
C      1  0.5216990000000  0.5571630000000  0.4634160000000 1.0
C      1  0.4635000000000  0.5186230000000  0.4306300000000 1.0
C      1  0.4308130000000  0.4681100000000  0.5164500000000 1.0
C      1  0.4650540000000  0.5200830000000  0.4765350000000 1.0
C      1  0.5738220000000  0.5474300000000  0.4738090000000 1.0
C      1  0.4794820000000  0.5617480000000  0.5022180000000 1.0
C      1  0.5115880000000  0.4545700000000  0.4403410000000 1.0
C      1  0.4944570000000  0.5356010000000  0.4683110000000 1.0
C      1  0.4996700000000  0.5444790000000  0.5491340000000 1.0
C      1  0.5736810000000  0.5333150000000  0.5234410000000 1.0
C      1  0.4912410000000  0.5025560000000  0.4273790000000 1.0
C      1  0.5789980000000  0.4798740000000  0.5018340000000 1.0
C      1  0.4370180000000  0.5110060000000  0.5573210000000 1.0
C      1  0.5429930000000  0.5240090000000  0.4830970000000 1.0
C      1  0.5043470000000  0.4611160000000  0.5617010000000 1.0
C      1  0.4681330000000  0.4360590000000  0.5525000000000 1.0
C      1  0.5119200000000  0.5264550000000  0.5743080000000 1.0
C      1  0.4971210000000  0.4240450000000  0.4760460000000 1.0
C      1  0.5042260000000  0.4586200000000  0.5277540000000 1.0
C      1  0.4445950000000  0.4428330000000  0.5319710000000 1.0
C      1  0.4550200000000  0.4398610000000  0.5022390000000 1.0
C      1  0.4312320000000  0.4662900000000  0.4526340000000 1.0
C      1  0.4923620000000  0.5116610000000  0.5217630000000 1.0
C      1  0.4833780000000  0.4631570000000  0.4865330000000 1.0
C      1  0.5488500000000  0.4948260000000  0.5069810000000 1.0
C      1  0.5420990000000  0.4363570000000  0.4782530000000 1.0
C      1  0.5430610000000  0.4647090000000  0.4939300000000 1.0
C      1  0.4184320000000  0.5422280000000  0.4720630000000 1.0
C      1  0.5217140000000  0.5517610000000  0.4319420000000 1.0
C      1  0.4826570000000  0.4796620000000  0.5765330000000 1.0
C      1  0.4712210000000  0.5451100000000  0.4460100000000 1.0
C      1  0.4291830000000  0.5488080000000  0.5039960000000 1.0
C      1  0.4309740000000  0.5126370000000  0.4808680000000 1.0
C      1  0.4931090000000  0.4210110000000  0.5344080000000 1.0
C      1  0.5008870000000  0.5046450000000  0.5514320000000 1.0
C      1  0.5494090000000  0.5257240000000  0.4494050000000 1.0
C      1  0.5378940000000  0.5346770000000  0.5542490000000 1.0
C      1  0.4528820000000  0.4445920000000  0.4458480000000 1.0
C      1  0.4846230000000  0.5763220000000  0.5313050000000 1.0
C      1  0.5814880000000  0.4479350000000  0.5125250000000 1.0
C      1  0.4804730000000  0.4540860000000  0.4375660000000 1.0
C      1  0.5451650000000  0.5712710000000  0.5057110000000 1.0
C      1  0.4279370000000  0.4941830000000  0.5384290000000 1.0
C      1  0.4149610000000  0.4903110000000  0.4695780000000 1.0
C      1  0.5826310000000  0.4907040000000  0.4506540000000 1.0
C      1  0.4818450000000  0.5111080000000  0.5778590000000 1.0
C      1  0.5189850000000  0.4825850000000  0.4303770000000 1.0
C      1  0.5142430000000  0.5252470000000  0.4209120000000 1.0
C      1  0.5164120000000  0.5187440000000  0.4538160000000 1.0
C      1  0.5250840000000  0.4912030000000  0.5366560000000 1.0
C      1  0.4574860000000  0.5263190000000  0.5673410000000 1.0
C      1  0.5305530000000  0.4433740000000  0.5158510000000 1.0
C      1  0.4500530000000  0.5476770000000  0.4794430000000 1.0
C      1  0.5589180000000  0.5185490000000  0.5436640000000 1.0
C      1  0.5740750000000  0.5251170000000  0.4955330000000 1.0
C      1  0.5603040000000  0.4307690000000  0.5050550000000 1.0
C      1  0.4482870000000  0.5390090000000  0.5306150000000 1.0
END
