TITL C-2778426-5645-677 0.000737811777887561 125000 -177.152456079997 0 0 32 (C1) n - 1
REM
REM in /home/nfs/bkarasulu/CARBON/AIRSS/Generating-Clusters/REBO/Only-C1/SD-CG/HFTN-CG
REM
REM
REM
REM
REM
REM ./C.cell (11c1c37f851c82e70ff6c80c92926a4b)
REM
REM compiler GCC version 9.2.1 20190827 (Red Hat 9.2.1-1)
REM options -cpp -mtune=generic -march=x86-64 -g -O0 -fpre-include=/usr/include/finclude/math-vector-fortran.h
REM seed -275549050 -126777592 1562741903 370290166 -126154553 -276131318 -1790197651 -1541182262 -2045886994 107538206 -167145207 -1390274836 -386900343 202592837 -5698493 -1841334343 -1592432622 -747859402 -1408878242 -191583680 -1902835583 663908288 -1942433605 1125508616 1945651877 1238716602 390834874 -1904201368 1792118266 989125067 1851801953 -62612663 -292377493
REM
CELL 1.54180   50.00000   50.00000   50.00000   90.00000   90.00000   90.00000
LATT -1
SFAC C  
C      1  0.5355510000000  0.4676820000000  0.5362070000000 1.0
C      1  0.4893390000000  0.4893380000000  0.4457470000000 1.0
C      1  0.5340820000000  0.4700310000000  0.5091970000000 1.0
C      1  0.4861810000000  0.4559390000000  0.4818330000000 1.0
C      1  0.5215520000000  0.4978510000000  0.4496540000000 1.0
C      1  0.4738710000000  0.4744270000000  0.4666760000000 1.0
C      1  0.5372250000000  0.4584660000000  0.4710170000000 1.0
C      1  0.4863350000000  0.5036630000000  0.5259580000000 1.0
C      1  0.4874520000000  0.4437190000000  0.5105660000000 1.0
C      1  0.5220720000000  0.5769120000000  0.5117370000000 1.0
C      1  0.5394730000000  0.4989010000000  0.4963300000000 1.0
C      1  0.5525640000000  0.5181250000000  0.5184750000000 1.0
C      1  0.5290770000000  0.5273650000000  0.5372260000000 1.0
C      1  0.4808940000000  0.5112810000000  0.5647820000000 1.0
C      1  0.5163340000000  0.4486510000000  0.4932780000000 1.0
C      1  0.4704700000000  0.5166650000000  0.4394340000000 1.0
C      1  0.5186870000000  0.5245740000000  0.4987170000000 1.0
C      1  0.4510590000000  0.4900560000000  0.4750460000000 1.0
C      1  0.4436100000000  0.4882230000000  0.5024020000000 1.0
C      1  0.5237230000000  0.4818980000000  0.5561170000000 1.0
C      1  0.5089460000000  0.5080810000000  0.5488540000000 1.0
C      1  0.4710430000000  0.5320310000000  0.4886160000000 1.0
C      1  0.4476300000000  0.5124030000000  0.4567680000000 1.0
C      1  0.5314250000000  0.5512480000000  0.5127510000000 1.0
C      1  0.4911520000000  0.5191570000000  0.5029560000000 1.0
C      1  0.5381650000000  0.4860030000000  0.4681720000000 1.0
C      1  0.5024740000000  0.5188710000000  0.4336840000000 1.0
C      1  0.5645800000000  0.5436810000000  0.5081060000000 1.0
C      1  0.4600650000000  0.4999850000000  0.5558220000000 1.0
C      1  0.4527270000000  0.5466140000000  0.4768070000000 1.0
C      1  0.4611060000000  0.4838420000000  0.5277710000000 1.0
C      1  0.4711350000000  0.4543140000000  0.5292910000000 1.0
END
