TITL C-2778431-5191-1226 0.000435531220755215 125000 -149.341281438838 0 0 27 (C1) n - 1
REM
REM in /home/nfs/bkarasulu/CARBON/AIRSS/Generating-Clusters/REBO/Only-C1/SD-CG/HFTN-CG
REM
REM
REM
REM
REM
REM ./C.cell (11c1c37f851c82e70ff6c80c92926a4b)
REM
REM compiler GCC version 9.2.1 20190827 (Red Hat 9.2.1-1)
REM options -cpp -mtune=generic -march=x86-64 -g -O0 -fpre-include=/usr/include/finclude/math-vector-fortran.h
REM seed -957428024 -1739801353 -870439513 -255120545 -1874390980 671082924 1213297237 1486422787 -2135087060 -603955467 1584412647 -923866256 743969365 1727909445 -758624544 1432576183 -1196112819 -169856506 1377929825 -2009908546 83910802 620295588 1336229999 -265934489 1208826644 -1328305235 -1490615129 595943827 -841576292 -443784209 1510172803 -265637654 303855797
REM
CELL 1.54180   50.00000   50.00000   50.00000   90.00000   90.00000   90.00000
LATT -1
SFAC C  
C      1  0.4757990000000  0.4603930000000  0.5308780000000 1.0
C      1  0.4624150000000  0.4478060000000  0.5085190000000 1.0
C      1  0.4899510000000  0.5322490000000  0.4522100000000 1.0
C      1  0.4994440000000  0.4756640000000  0.5230630000000 1.0
C      1  0.5237170000000  0.4704330000000  0.5342160000000 1.0
C      1  0.6474080000000  0.4730070000000  0.4663420000000 1.0
C      1  0.4960870000000  0.4946370000000  0.5020590000000 1.0
C      1  0.4464140000000  0.4649920000000  0.4935450000000 1.0
C      1  0.4577460000000  0.4738060000000  0.5482700000000 1.0
C      1  0.4451820000000  0.4911440000000  0.5027530000000 1.0
C      1  0.4371040000000  0.4932750000000  0.5311490000000 1.0
C      1  0.4375620000000  0.4884450000000  0.5675290000000 1.0
C      1  0.5444470000000  0.5010980000000  0.4704810000000 1.0
C      1  0.4691310000000  0.5081670000000  0.4962720000000 1.0
C      1  0.4636070000000  0.5409440000000  0.5004380000000 1.0
C      1  0.4580650000000  0.5612320000000  0.5172300000000 1.0
C      1  0.3968540000000  0.5246260000000  0.5556750000000 1.0
C      1  0.5164580000000  0.5000490000000  0.4851190000000 1.0
C      1  0.4170590000000  0.5077240000000  0.5527640000000 1.0
C      1  0.6217350000000  0.4800110000000  0.4673740000000 1.0
C      1  0.6726720000000  0.4661140000000  0.4653270000000 1.0
C      1  0.5703900000000  0.4940200000000  0.4694380000000 1.0
C      1  0.5191230000000  0.5170160000000  0.4567630000000 1.0
C      1  0.4718840000000  0.5306660000000  0.4717560000000 1.0
C      1  0.5960630000000  0.4870160000000  0.4684060000000 1.0
C      1  0.4526690000000  0.5809890000000  0.5335810000000 1.0
C      1  0.5110120000000  0.5344760000000  0.4288410000000 1.0
END
