TITL C-2778433-5640-1378 0.00281935640822978 125000 -309.052775234379 0 0 53 (C1) n - 1
REM
REM in /home/nfs/bkarasulu/CARBON/AIRSS/Generating-Clusters/REBO/Only-C1/SD-CG/HFTN-CG
REM
REM
REM
REM
REM
REM ./C.cell (11c1c37f851c82e70ff6c80c92926a4b)
REM
REM compiler GCC version 9.2.1 20190827 (Red Hat 9.2.1-1)
REM options -cpp -mtune=generic -march=x86-64 -g -O0 -fpre-include=/usr/include/finclude/math-vector-fortran.h
REM seed -448776045 310419842 -537803330 87482306 394869959 -26833168 1044348574 16214639 -832544524 -769788520 -838363209 -1528071207 10585388 1022570497 -2143975849 2009032154 -1208790313 2087682565 -1398303598 1806595484 -31452031 2005734512 1977977097 1523257721 -728484082 -1755218095 -495973336 -296896696 58375938 877143515 -200395163 -385231040 -136066431
REM
CELL 1.54180   50.00000   50.00000   50.00000   90.00000   90.00000   90.00000
LATT -1
SFAC C  
C      1  0.5031600000000  0.4715860000000  0.4447300000000 1.0
C      1  0.5120340000000  0.5685250000000  0.4866100000000 1.0
C      1  0.4920640000000  0.5146740000000  0.4650470000000 1.0
C      1  0.4934310000000  0.4412500000000  0.4532730000000 1.0
C      1  0.5210540000000  0.4431820000000  0.4730190000000 1.0
C      1  0.5304000000000  0.4404570000000  0.5216600000000 1.0
C      1  0.5190110000000  0.5410800000000  0.5320720000000 1.0
C      1  0.5534860000000  0.4432480000000  0.5062070000000 1.0
C      1  0.4711250000000  0.5572130000000  0.5327270000000 1.0
C      1  0.5486400000000  0.5038390000000  0.5612320000000 1.0
C      1  0.4774430000000  0.4929970000000  0.4439590000000 1.0
C      1  0.4477400000000  0.5606890000000  0.5167510000000 1.0
C      1  0.5536400000000  0.5175750000000  0.4991650000000 1.0
C      1  0.5293800000000  0.4393700000000  0.5498860000000 1.0
C      1  0.5155520000000  0.4801430000000  0.4923240000000 1.0
C      1  0.5464130000000  0.5344620000000  0.5263290000000 1.0
C      1  0.4295760000000  0.5102950000000  0.4990770000000 1.0
C      1  0.5355730000000  0.5084540000000  0.4532060000000 1.0
C      1  0.4395480000000  0.4868970000000  0.4764590000000 1.0
C      1  0.4441900000000  0.5315770000000  0.4772080000000 1.0
C      1  0.4952860000000  0.4730680000000  0.5585570000000 1.0
C      1  0.4610170000000  0.5211180000000  0.4538990000000 1.0
C      1  0.4898040000000  0.4383510000000  0.4867140000000 1.0
C      1  0.4624160000000  0.5018280000000  0.4967140000000 1.0
C      1  0.5484120000000  0.4625610000000  0.4784090000000 1.0
C      1  0.5608830000000  0.5259330000000  0.5496790000000 1.0
C      1  0.4487810000000  0.4614060000000  0.4700330000000 1.0
C      1  0.5152470000000  0.4552390000000  0.5675250000000 1.0
C      1  0.4867380000000  0.4662980000000  0.5293120000000 1.0
C      1  0.5068700000000  0.4544100000000  0.5084610000000 1.0
C      1  0.4605410000000  0.4493830000000  0.4931040000000 1.0
C      1  0.4814830000000  0.5617870000000  0.4874680000000 1.0
C      1  0.4577950000000  0.5082820000000  0.5504180000000 1.0
C      1  0.5657630000000  0.4881930000000  0.4933140000000 1.0
C      1  0.4997250000000  0.5600590000000  0.5166700000000 1.0
C      1  0.5132240000000  0.5333190000000  0.4499800000000 1.0
C      1  0.4870080000000  0.4999920000000  0.5631340000000 1.0
C      1  0.5034130000000  0.5267430000000  0.5525030000000 1.0
C      1  0.4679490000000  0.4618640000000  0.4474810000000 1.0
C      1  0.4942890000000  0.5469680000000  0.4292650000000 1.0
C      1  0.5289070000000  0.4937990000000  0.5456880000000 1.0
C      1  0.5012900000000  0.4954980000000  0.5260860000000 1.0
C      1  0.5284360000000  0.5540690000000  0.4701150000000 1.0
C      1  0.5454220000000  0.5296210000000  0.4731030000000 1.0
C      1  0.5258900000000  0.4811070000000  0.4615680000000 1.0
C      1  0.4733510000000  0.5348430000000  0.5500100000000 1.0
C      1  0.5739790000000  0.4649970000000  0.5089090000000 1.0
C      1  0.4592080000000  0.4658850000000  0.5174100000000 1.0
C      1  0.4920530000000  0.5036600000000  0.4942500000000 1.0
C      1  0.4692970000000  0.5426410000000  0.4318900000000 1.0
C      1  0.4456720000000  0.4954970000000  0.5254830000000 1.0
C      1  0.4539440000000  0.5555240000000  0.4891710000000 1.0
C      1  0.5324480000000  0.4985430000000  0.5127350000000 1.0
END
