TITL C-2778437-8639-566 0.00147523490621926 125000 -388.54004403429 0 0 67 (C1) n - 1
REM
REM in /home/nfs/bkarasulu/CARBON/AIRSS/Generating-Clusters/REBO/Only-C1/SD-CG/HFTN-CG
REM
REM
REM
REM
REM
REM ./C.cell (11c1c37f851c82e70ff6c80c92926a4b)
REM
REM compiler GCC version 9.2.1 20190827 (Red Hat 9.2.1-1)
REM options -cpp -mtune=generic -march=x86-64 -g -O0 -fpre-include=/usr/include/finclude/math-vector-fortran.h
REM seed 300518815 -576713954 -2027653399 -987397318 -1934613188 280382448 1477012318 -193181653 -2024510363 -931546638 -2016958211 1316628473 -2097368986 -570943275 56771871 -694889844 -72735569 -1249701097 -1627273078 -239038660 -1687574173 965029999 780861488 -739880554 2092962172 301822952 -81389225 -1108118592 -1928471692 -1268557872 15339491 767667927 -1082126961
REM
CELL 1.54180   50.00000   50.00000   50.00000   90.00000   90.00000   90.00000
LATT -1
SFAC C  
C      1  0.4869830000000  0.5772350000000  0.5066520000000 1.0
C      1  0.5150110000000  0.4705870000000  0.4848020000000 1.0
C      1  0.5481070000000  0.4706300000000  0.4625500000000 1.0
C      1  0.5151720000000  0.5711940000000  0.5120610000000 1.0
C      1  0.5118220000000  0.4833290000000  0.5320780000000 1.0
C      1  0.5476570000000  0.5025360000000  0.5365190000000 1.0
C      1  0.4537330000000  0.4631650000000  0.5167180000000 1.0
C      1  0.5678100000000  0.4766730000000  0.5055850000000 1.0
C      1  0.4911230000000  0.5292400000000  0.5367610000000 1.0
C      1  0.5412020000000  0.4637500000000  0.5508270000000 1.0
C      1  0.5609140000000  0.5342120000000  0.5025830000000 1.0
C      1  0.5626150000000  0.4775540000000  0.5339420000000 1.0
C      1  0.4697360000000  0.4268660000000  0.4878520000000 1.0
C      1  0.5024090000000  0.5369000000000  0.4889460000000 1.0
C      1  0.4942940000000  0.4389370000000  0.5428110000000 1.0
C      1  0.4423840000000  0.5407840000000  0.5497230000000 1.0
C      1  0.5135750000000  0.4402080000000  0.4707000000000 1.0
C      1  0.4440540000000  0.5389300000000  0.4675830000000 1.0
C      1  0.4866650000000  0.4592110000000  0.5630590000000 1.0
C      1  0.4370680000000  0.4909510000000  0.4587990000000 1.0
C      1  0.5196880000000  0.5211230000000  0.4568740000000 1.0
C      1  0.5485240000000  0.5268070000000  0.5557460000000 1.0
C      1  0.5216190000000  0.4864780000000  0.5622670000000 1.0
C      1  0.4732430000000  0.5499820000000  0.5545010000000 1.0
C      1  0.4648450000000  0.4434510000000  0.4598460000000 1.0
C      1  0.5506760000000  0.5350950000000  0.4553150000000 1.0
C      1  0.4659940000000  0.5583360000000  0.5226530000000 1.0
C      1  0.4522390000000  0.4980480000000  0.4356400000000 1.0
C      1  0.5321770000000  0.4386880000000  0.5314580000000 1.0
C      1  0.4788610000000  0.5773870000000  0.4738020000000 1.0
C      1  0.5475050000000  0.5413450000000  0.5279460000000 1.0
C      1  0.4906280000000  0.5278970000000  0.4499220000000 1.0
C      1  0.4536140000000  0.5622170000000  0.4907950000000 1.0
C      1  0.4581620000000  0.5315440000000  0.5041320000000 1.0
C      1  0.5237100000000  0.5153370000000  0.5704660000000 1.0
C      1  0.4843120000000  0.4575920000000  0.4916690000000 1.0
C      1  0.5300760000000  0.4662870000000  0.5127360000000 1.0
C      1  0.4623070000000  0.4922040000000  0.5097810000000 1.0
C      1  0.5593590000000  0.5020780000000  0.4587950000000 1.0
C      1  0.4792930000000  0.5040270000000  0.4400360000000 1.0
C      1  0.4770960000000  0.5025460000000  0.5345520000000 1.0
C      1  0.5300540000000  0.4292740000000  0.4983610000000 1.0
C      1  0.5547840000000  0.5517900000000  0.4804470000000 1.0
C      1  0.5265600000000  0.5004600000000  0.4816130000000 1.0
C      1  0.4327250000000  0.5139840000000  0.4755260000000 1.0
C      1  0.4801490000000  0.4894090000000  0.4802590000000 1.0
C      1  0.5337460000000  0.5713820000000  0.4852770000000 1.0
C      1  0.5077170000000  0.4176410000000  0.5214840000000 1.0
C      1  0.5511840000000  0.4542290000000  0.4882980000000 1.0
C      1  0.4998670000000  0.5328080000000  0.5677040000000 1.0
C      1  0.4804750000000  0.5198950000000  0.4877410000000 1.0
C      1  0.4913690000000  0.4506480000000  0.4526090000000 1.0
C      1  0.5403950000000  0.5118560000000  0.4319520000000 1.0
C      1  0.4795230000000  0.4853020000000  0.5561830000000 1.0
C      1  0.5254200000000  0.5067700000000  0.5133400000000 1.0
C      1  0.4962910000000  0.4806670000000  0.4510340000000 1.0
C      1  0.5266900000000  0.4837030000000  0.4453010000000 1.0
C      1  0.5153500000000  0.5377950000000  0.5185100000000 1.0
C      1  0.4350320000000  0.5097210000000  0.5066580000000 1.0
C      1  0.5066990000000  0.5610390000000  0.4745200000000 1.0
C      1  0.4870790000000  0.4637710000000  0.5234420000000 1.0
C      1  0.4843650000000  0.4060110000000  0.5044380000000 1.0
C      1  0.4455890000000  0.4480130000000  0.4941860000000 1.0
C      1  0.4298600000000  0.5271050000000  0.5332510000000 1.0
C      1  0.5590980000000  0.5040120000000  0.4920410000000 1.0
C      1  0.4724760000000  0.5475640000000  0.4588740000000 1.0
C      1  0.4412400000000  0.4637850000000  0.4674650000000 1.0
END
