TITL C-2778427-5640-1114 0.00239989710728233 125000 -390.487258148623 0 0 68 (C1) n - 1
REM
REM in /home/nfs/bkarasulu/CARBON/AIRSS/Generating-Clusters/REBO/Only-C1/SD-CG/HFTN-CG
REM
REM
REM
REM
REM
REM ./C.cell (11c1c37f851c82e70ff6c80c92926a4b)
REM
REM compiler GCC version 9.2.1 20190827 (Red Hat 9.2.1-1)
REM options -cpp -mtune=generic -march=x86-64 -g -O0 -fpre-include=/usr/include/finclude/math-vector-fortran.h
REM seed -329005607 -1548562224 682947075 1459770180 -431714520 2033299435 -1069140974 -856432425 702900603 303479470 445393255 -144548465 -1691259277 -1355835279 -1838218404 -1498634785 1692505368 -541061663 957665327 -850772244 711798153 -517734982 -1323366036 -1135136031 -1628792422 -301912613 263515368 -2064800393 -665926346 -1292199161 -299646702 328256013 -1006723579
REM
CELL 1.54180   50.00000   50.00000   50.00000   90.00000   90.00000   90.00000
LATT -1
SFAC C  
C      1  0.5701510000000  0.5273050000000  0.5128860000000 1.0
C      1  0.5012580000000  0.5005430000000  0.5497220000000 1.0
C      1  0.5558340000000  0.5365580000000  0.5608030000000 1.0
C      1  0.5775170000000  0.4610350000000  0.4811260000000 1.0
C      1  0.5244260000000  0.5050790000000  0.5291400000000 1.0
C      1  0.4912240000000  0.5523780000000  0.5568480000000 1.0
C      1  0.4799330000000  0.4581710000000  0.5735120000000 1.0
C      1  0.5353500000000  0.5242790000000  0.4660690000000 1.0
C      1  0.4416670000000  0.5361410000000  0.5099990000000 1.0
C      1  0.5357420000000  0.4583240000000  0.4515760000000 1.0
C      1  0.4587460000000  0.4573820000000  0.4950920000000 1.0
C      1  0.5480150000000  0.5288500000000  0.5355170000000 1.0
C      1  0.5201660000000  0.5370360000000  0.5208140000000 1.0
C      1  0.4221700000000  0.4670900000000  0.4681150000000 1.0
C      1  0.5437160000000  0.4727220000000  0.5816620000000 1.0
C      1  0.4778880000000  0.5249980000000  0.5548750000000 1.0
C      1  0.5476370000000  0.4637770000000  0.4822140000000 1.0
C      1  0.4724360000000  0.5326180000000  0.5086780000000 1.0
C      1  0.4907550000000  0.4992190000000  0.4682250000000 1.0
C      1  0.5493170000000  0.5083420000000  0.4466280000000 1.0
C      1  0.5392790000000  0.4835390000000  0.5071130000000 1.0
C      1  0.4189950000000  0.4887190000000  0.5136110000000 1.0
C      1  0.5909990000000  0.4418470000000  0.4955810000000 1.0
C      1  0.5107280000000  0.5115340000000  0.5870010000000 1.0
C      1  0.5290380000000  0.4657810000000  0.5343760000000 1.0
C      1  0.4800810000000  0.4685760000000  0.5132060000000 1.0
C      1  0.4385240000000  0.4880840000000  0.4542710000000 1.0
C      1  0.5071560000000  0.5179080000000  0.4267110000000 1.0
C      1  0.4833820000000  0.5009520000000  0.4282980000000 1.0
C      1  0.4654990000000  0.4991430000000  0.5098850000000 1.0
C      1  0.4321470000000  0.5163900000000  0.5279980000000 1.0
C      1  0.4937050000000  0.5420690000000  0.4871440000000 1.0
C      1  0.4933220000000  0.4705770000000  0.4270620000000 1.0
C      1  0.4310480000000  0.4643430000000  0.4945340000000 1.0
C      1  0.5302390000000  0.4992860000000  0.4275110000000 1.0
C      1  0.4148140000000  0.5129050000000  0.4916560000000 1.0
C      1  0.4715920000000  0.4870380000000  0.5473160000000 1.0
C      1  0.4582280000000  0.4576150000000  0.5527340000000 1.0
C      1  0.4980980000000  0.4726370000000  0.4666740000000 1.0
C      1  0.5689080000000  0.5468920000000  0.4926410000000 1.0
C      1  0.5492600000000  0.4698280000000  0.5542360000000 1.0
C      1  0.5041130000000  0.4092060000000  0.4623490000000 1.0
C      1  0.5305150000000  0.4919150000000  0.5957820000000 1.0
C      1  0.4004840000000  0.5863320000000  0.4626490000000 1.0
C      1  0.4139160000000  0.5699630000000  0.4780920000000 1.0
C      1  0.5891310000000  0.4801020000000  0.4639410000000 1.0
C      1  0.5492360000000  0.5505610000000  0.4726550000000 1.0
C      1  0.5171330000000  0.4558550000000  0.4866790000000 1.0
C      1  0.4333780000000  0.5145130000000  0.4712210000000 1.0
C      1  0.4275640000000  0.5533290000000  0.4937840000000 1.0
C      1  0.4504170000000  0.5128030000000  0.5490290000000 1.0
C      1  0.5028240000000  0.5668130000000  0.4768740000000 1.0
C      1  0.5755680000000  0.4992420000000  0.4500490000000 1.0
C      1  0.4720970000000  0.4525360000000  0.4671320000000 1.0
C      1  0.4627000000000  0.5033570000000  0.4777910000000 1.0
C      1  0.5077490000000  0.5206960000000  0.4738110000000 1.0
C      1  0.5237480000000  0.5615260000000  0.4574780000000 1.0
C      1  0.5066970000000  0.5379280000000  0.5792530000000 1.0
C      1  0.5141120000000  0.5446110000000  0.4354690000000 1.0
C      1  0.5219200000000  0.4715460000000  0.4307250000000 1.0
C      1  0.4981500000000  0.4794590000000  0.5759790000000 1.0
C      1  0.4948060000000  0.5475420000000  0.5266640000000 1.0
C      1  0.4652280000000  0.4769130000000  0.4444350000000 1.0
C      1  0.5718080000000  0.4843440000000  0.5432070000000 1.0
C      1  0.5664330000000  0.4979040000000  0.5182650000000 1.0
C      1  0.4989750000000  0.4335530000000  0.4701090000000 1.0
C      1  0.4453150000000  0.4786610000000  0.5289720000000 1.0
C      1  0.5069900000000  0.4612790000000  0.5145490000000 1.0
END
