TITL C-2778436-5916-418 -0.0125391991901141 125000 -1086.23259167765 0 0 189 (C1) n - 1
REM
REM in /home/nfs/bkarasulu/CARBON/AIRSS/Generating-Clusters/REBO/Only-C1/SD-CG/HFTN-CG
REM
REM
REM
REM
REM
REM ./C.cell (11c1c37f851c82e70ff6c80c92926a4b)
REM
REM compiler GCC version 9.2.1 20190827 (Red Hat 9.2.1-1)
REM options -cpp -mtune=generic -march=x86-64 -g -O0 -fpre-include=/usr/include/finclude/math-vector-fortran.h
REM seed 26699590 -1978657867 -755589400 656127272 -1458787222 -1228732970 -17008591 1012367717 549521574 454073808 1579131359 -1491704873 -233169332 -1515671688 -1834928064 -334004609 435566818 1715545246 1044762122 275195793 1298299543 2099524812 346930230 1359852261 -1578529682 -779906297 -2118340636 2068389355 1621463722 1662040449 -495555956 286920343 -226820376
REM
CELL 1.54180   50.00000   50.00000   50.00000   90.00000   90.00000   90.00000
LATT -1
SFAC C  
C      1  0.5872690000000  0.5092540000000  0.5000590000000 1.0
C      1  0.4822120000000  0.5156780000000  0.5051650000000 1.0
C      1  0.4890370000000  0.5473780000000  0.5543570000000 1.0
C      1  0.5489500000000  0.5797030000000  0.4874620000000 1.0
C      1  0.4699250000000  0.5286360000000  0.4016000000000 1.0
C      1  0.4749280000000  0.4339790000000  0.5374010000000 1.0
C      1  0.4176180000000  0.4718360000000  0.5253080000000 1.0
C      1  0.4853520000000  0.5266770000000  0.4598070000000 1.0
C      1  0.4400560000000  0.5715070000000  0.5099810000000 1.0
C      1  0.4846430000000  0.4352630000000  0.4118180000000 1.0
C      1  0.4550920000000  0.5261990000000  0.5671680000000 1.0
C      1  0.4494470000000  0.4438620000000  0.4578120000000 1.0
C      1  0.4212790000000  0.4103410000000  0.5191650000000 1.0
C      1  0.4892140000000  0.5769240000000  0.3847130000000 1.0
C      1  0.4659330000000  0.4162540000000  0.5630490000000 1.0
C      1  0.5362510000000  0.4205910000000  0.4302240000000 1.0
C      1  0.4260550000000  0.4826280000000  0.5757140000000 1.0
C      1  0.4782010000000  0.4124550000000  0.4907070000000 1.0
C      1  0.4468750000000  0.4720480000000  0.5588000000000 1.0
C      1  0.5328710000000  0.5339850000000  0.4396450000000 1.0
C      1  0.5098390000000  0.5791810000000  0.4302770000000 1.0
C      1  0.4475520000000  0.5778680000000  0.4497760000000 1.0
C      1  0.4423480000000  0.4405780000000  0.5587030000000 1.0
C      1  0.5160650000000  0.5142110000000  0.4581910000000 1.0
C      1  0.4162050000000  0.5516920000000  0.5133600000000 1.0
C      1  0.5951630000000  0.5323530000000  0.5239680000000 1.0
C      1  0.4896750000000  0.5080760000000  0.3878530000000 1.0
C      1  0.4898950000000  0.4560050000000  0.6011410000000 1.0
C      1  0.4562900000000  0.5904890000000  0.5247300000000 1.0
C      1  0.4785680000000  0.5999880000000  0.5007810000000 1.0
C      1  0.5059230000000  0.5410440000000  0.4189170000000 1.0
C      1  0.5308080000000  0.5424960000000  0.5845410000000 1.0
C      1  0.4897900000000  0.3826520000000  0.5146960000000 1.0
C      1  0.5326600000000  0.5175350000000  0.4857330000000 1.0
C      1  0.5044800000000  0.5544760000000  0.4710560000000 1.0
C      1  0.5207780000000  0.5198000000000  0.6078280000000 1.0
C      1  0.5825880000000  0.4453860000000  0.4225790000000 1.0
C      1  0.4467180000000  0.4881150000000  0.5302410000000 1.0
C      1  0.5251500000000  0.4569850000000  0.4544010000000 1.0
C      1  0.5178650000000  0.5345900000000  0.3882300000000 1.0
C      1  0.5255550000000  0.4966030000000  0.5540890000000 1.0
C      1  0.5801210000000  0.4742900000000  0.4370190000000 1.0
C      1  0.4066490000000  0.5289770000000  0.5738950000000 1.0
C      1  0.4183490000000  0.4370970000000  0.5008360000000 1.0
C      1  0.5021290000000  0.4028810000000  0.5297210000000 1.0
C      1  0.5645840000000  0.5623740000000  0.4520070000000 1.0
C      1  0.5172770000000  0.5776230000000  0.5011720000000 1.0
C      1  0.4675920000000  0.5297630000000  0.6119560000000 1.0
C      1  0.5777580000000  0.5499750000000  0.5000930000000 1.0
C      1  0.5610160000000  0.4249610000000  0.4748180000000 1.0
C      1  0.5822130000000  0.4377340000000  0.4545190000000 1.0
C      1  0.4340150000000  0.5163010000000  0.4809440000000 1.0
C      1  0.5423750000000  0.4044780000000  0.4570820000000 1.0
C      1  0.5223570000000  0.5015090000000  0.3948530000000 1.0
C      1  0.4468830000000  0.4509730000000  0.4990950000000 1.0
C      1  0.5470750000000  0.4392190000000  0.5011550000000 1.0
C      1  0.5572510000000  0.5767880000000  0.5583600000000 1.0
C      1  0.4251920000000  0.5177310000000  0.4249250000000 1.0
C      1  0.4882220000000  0.5696380000000  0.5129660000000 1.0
C      1  0.5459340000000  0.6112640000000  0.4743280000000 1.0
C      1  0.4950900000000  0.4525240000000  0.4971160000000 1.0
C      1  0.4401760000000  0.5020540000000  0.3995230000000 1.0
C      1  0.5081720000000  0.5996000000000  0.5455780000000 1.0
C      1  0.5337040000000  0.4018820000000  0.5052340000000 1.0
C      1  0.5805070000000  0.4369690000000  0.5228000000000 1.0
C      1  0.4564620000000  0.5563680000000  0.4930560000000 1.0
C      1  0.5843720000000  0.5168630000000  0.4690890000000 1.0
C      1  0.4373620000000  0.3901080000000  0.5120610000000 1.0
C      1  0.5464600000000  0.5905160000000  0.4492750000000 1.0
C      1  0.4854760000000  0.5273580000000  0.5763680000000 1.0
C      1  0.5162680000000  0.4187230000000  0.5727530000000 1.0
C      1  0.4992580000000  0.5920900000000  0.4528800000000 1.0
C      1  0.5053220000000  0.6116090000000  0.5185080000000 1.0
C      1  0.3837680000000  0.5020440000000  0.4981740000000 1.0
C      1  0.5808310000000  0.4873690000000  0.5666420000000 1.0
C      1  0.5420960000000  0.4699820000000  0.6002390000000 1.0
C      1  0.5463790000000  0.3885640000000  0.4821850000000 1.0
C      1  0.3914850000000  0.4932980000000  0.5235670000000 1.0
C      1  0.4619620000000  0.5840980000000  0.5556790000000 1.0
C      1  0.5502920000000  0.4486130000000  0.4330640000000 1.0
C      1  0.4061510000000  0.4365230000000  0.4421830000000 1.0
C      1  0.4221340000000  0.5187910000000  0.5208610000000 1.0
C      1  0.4125720000000  0.5415150000000  0.4831690000000 1.0
C      1  0.5406880000000  0.5712310000000  0.4217560000000 1.0
C      1  0.4847910000000  0.4937700000000  0.4720070000000 1.0
C      1  0.4590590000000  0.5554160000000  0.5948300000000 1.0
C      1  0.4975890000000  0.5723980000000  0.5425420000000 1.0
C      1  0.5875050000000  0.5314310000000  0.4418880000000 1.0
C      1  0.5436400000000  0.5249170000000  0.4082080000000 1.0
C      1  0.5429860000000  0.4190270000000  0.5818270000000 1.0
C      1  0.4225940000000  0.4927650000000  0.4989000000000 1.0
C      1  0.5271390000000  0.5417270000000  0.5169690000000 1.0
C      1  0.4312060000000  0.4781050000000  0.4482170000000 1.0
C      1  0.5107590000000  0.4093920000000  0.4810520000000 1.0
C      1  0.4098510000000  0.5476960000000  0.5454020000000 1.0
C      1  0.5180610000000  0.4419640000000  0.4104300000000 1.0
C      1  0.4712550000000  0.4363140000000  0.5083980000000 1.0
C      1  0.4541820000000  0.4443230000000  0.4240110000000 1.0
C      1  0.5446580000000  0.4468320000000  0.5415550000000 1.0
C      1  0.3944290000000  0.5155500000000  0.4765130000000 1.0
C      1  0.6194160000000  0.4867050000000  0.5303220000000 1.0
C      1  0.4599730000000  0.5002000000000  0.5969180000000 1.0
C      1  0.5152320000000  0.4906770000000  0.5227730000000 1.0
C      1  0.5952140000000  0.4358000000000  0.4008000000000 1.0
C      1  0.5790320000000  0.5586640000000  0.5389740000000 1.0
C      1  0.5645490000000  0.5069480000000  0.5869100000000 1.0
C      1  0.5539380000000  0.5302370000000  0.5050290000000 1.0
C      1  0.4962390000000  0.5435420000000  0.6031620000000 1.0
C      1  0.4507730000000  0.4731210000000  0.4758950000000 1.0
C      1  0.5060940000000  0.4111360000000  0.4185950000000 1.0
C      1  0.4701330000000  0.5962560000000  0.4677700000000 1.0
C      1  0.5352420000000  0.5595620000000  0.5406310000000 1.0
C      1  0.4714290000000  0.4654700000000  0.4054490000000 1.0
C      1  0.5301720000000  0.4890400000000  0.4968550000000 1.0
C      1  0.4874460000000  0.5681360000000  0.4113880000000 1.0
C      1  0.5589490000000  0.5313430000000  0.5755140000000 1.0
C      1  0.5487370000000  0.4826770000000  0.4338870000000 1.0
C      1  0.5270800000000  0.5884060000000  0.5669680000000 1.0
C      1  0.4764120000000  0.5746800000000  0.5804810000000 1.0
C      1  0.5105860000000  0.4743390000000  0.4799090000000 1.0
C      1  0.5804520000000  0.4643330000000  0.5413990000000 1.0
C      1  0.5587380000000  0.4391060000000  0.5687950000000 1.0
C      1  0.4951120000000  0.4056970000000  0.5569810000000 1.0
C      1  0.4771930000000  0.5654280000000  0.4728510000000 1.0
C      1  0.5311970000000  0.5613510000000  0.4590120000000 1.0
C      1  0.4758300000000  0.4788660000000  0.5716550000000 1.0
C      1  0.5642160000000  0.4624860000000  0.5830390000000 1.0
C      1  0.4113050000000  0.4794150000000  0.4743670000000 1.0
C      1  0.4653870000000  0.4860340000000  0.5040200000000 1.0
C      1  0.5640450000000  0.5320860000000  0.5479480000000 1.0
C      1  0.4954260000000  0.4716100000000  0.4244540000000 1.0
C      1  0.5101310000000  0.3972890000000  0.4491080000000 1.0
C      1  0.4826040000000  0.4656150000000  0.4529600000000 1.0
C      1  0.4696060000000  0.4209400000000  0.4611090000000 1.0
C      1  0.4568470000000  0.5449380000000  0.4549610000000 1.0
C      1  0.4633310000000  0.3868010000000  0.5021560000000 1.0
C      1  0.4913880000000  0.4734180000000  0.5210750000000 1.0
C      1  0.4858110000000  0.5163180000000  0.4267820000000 1.0
C      1  0.4984840000000  0.5004140000000  0.5720680000000 1.0
C      1  0.3973680000000  0.5162000000000  0.5443060000000 1.0
C      1  0.5824190000000  0.5564540000000  0.4727620000000 1.0
C      1  0.4577400000000  0.5663210000000  0.4214790000000 1.0
C      1  0.5688810000000  0.5773990000000  0.5149410000000 1.0
C      1  0.4641500000000  0.4904220000000  0.3921090000000 1.0
C      1  0.5097380000000  0.5692840000000  0.5854020000000 1.0
C      1  0.5920390000000  0.4778600000000  0.5119230000000 1.0
C      1  0.5995750000000  0.4614170000000  0.4845700000000 1.0
C      1  0.5234310000000  0.4736170000000  0.4068030000000 1.0
C      1  0.5247750000000  0.5306160000000  0.5550750000000 1.0
C      1  0.5503810000000  0.4803170000000  0.5386930000000 1.0
C      1  0.4986660000000  0.4386540000000  0.4667580000000 1.0
C      1  0.4210660000000  0.5641030000000  0.4632250000000 1.0
C      1  0.5179100000000  0.4883680000000  0.4433550000000 1.0
C      1  0.4393940000000  0.5616700000000  0.5484410000000 1.0
C      1  0.5547500000000  0.4176740000000  0.5269940000000 1.0
C      1  0.4184130000000  0.4480880000000  0.4713390000000 1.0
C      1  0.5399870000000  0.5884440000000  0.5245460000000 1.0
C      1  0.4793120000000  0.3985480000000  0.4450340000000 1.0
C      1  0.4328420000000  0.5492430000000  0.5779760000000 1.0
C      1  0.4307320000000  0.5100380000000  0.5846710000000 1.0
C      1  0.5326530000000  0.6148950000000  0.5054450000000 1.0
C      1  0.5654100000000  0.5474910000000  0.4214420000000 1.0
C      1  0.5602450000000  0.4668280000000  0.5043990000000 1.0
C      1  0.5640700000000  0.5074260000000  0.5257480000000 1.0
C      1  0.4815710000000  0.4805780000000  0.6111630000000 1.0
C      1  0.4444550000000  0.5156470000000  0.4507700000000 1.0
C      1  0.5853120000000  0.4762450000000  0.4647960000000 1.0
C      1  0.5431420000000  0.4979760000000  0.6033860000000 1.0
C      1  0.4681840000000  0.4444470000000  0.5812670000000 1.0
C      1  0.4671860000000  0.4949230000000  0.4440550000000 1.0
C      1  0.5065090000000  0.5338640000000  0.4928200000000 1.0
C      1  0.4923740000000  0.5074610000000  0.6186270000000 1.0
C      1  0.4249350000000  0.4551910000000  0.4287360000000 1.0
C      1  0.5993580000000  0.5050860000000  0.5440680000000 1.0
C      1  0.4070150000000  0.5021120000000  0.4491020000000 1.0
C      1  0.5553190000000  0.5105680000000  0.4523470000000 1.0
C      1  0.5182550000000  0.4295500000000  0.5170110000000 1.0
C      1  0.5164590000000  0.5956410000000  0.4749600000000 1.0
C      1  0.4664720000000  0.5502060000000  0.5311560000000 1.0
C      1  0.4225370000000  0.4406170000000  0.5347730000000 1.0
C      1  0.5585570000000  0.4882810000000  0.4781680000000 1.0
C      1  0.5048500000000  0.5202080000000  0.5298650000000 1.0
C      1  0.4505290000000  0.5205680000000  0.5360880000000 1.0
C      1  0.5863520000000  0.4371320000000  0.4942340000000 1.0
C      1  0.4561820000000  0.5287070000000  0.4967360000000 1.0
C      1  0.4462910000000  0.5410750000000  0.4119900000000 1.0
C      1  0.4883620000000  0.4600260000000  0.5484050000000 1.0
C      1  0.5183270000000  0.4538150000000  0.6015370000000 1.0
C      1  0.5129650000000  0.4403970000000  0.5482290000000 1.0
END
