TITL C-2778424-3986-712 0.0178540639829393 125000 -207.736389647944 0 0 37 (C1) n - 1
REM
REM in /home/nfs/bkarasulu/CARBON/AIRSS/Generating-Clusters/REBO/Only-C1/SD-CG/HFTN-CG
REM
REM
REM
REM
REM
REM ./C.cell (11c1c37f851c82e70ff6c80c92926a4b)
REM
REM compiler GCC version 9.2.1 20190827 (Red Hat 9.2.1-1)
REM options -cpp -mtune=generic -march=x86-64 -g -O0 -fpre-include=/usr/include/finclude/math-vector-fortran.h
REM seed -1029733252 -2109783891 1262484590 -1634253618 -577540677 169776520 -2147267498 1084721777 269458834 824553382 -652316508 -893865222 -306172729 -827363181 -676657370 -1567732764 -1440548532 -1409499313 529912903 -1343756879 -1127569018 -2012345917 -1244774268 1377917580 -246450892 -94414792 1407793319 -262031370 206441410 1326836856 1359339228 -2092368220 -1396471869
REM
CELL 1.54180   50.00000   50.00000   50.00000   90.00000   90.00000   90.00000
LATT -1
SFAC C  
C      1  0.4967910000000  0.5663430000000  0.4864080000000 1.0
C      1  0.5278340000000  0.5287300000000  0.4749520000000 1.0
C      1  0.5604470000000  0.4736290000000  0.4330110000000 1.0
C      1  0.4552210000000  0.4598760000000  0.4784690000000 1.0
C      1  0.4771300000000  0.5401530000000  0.5618840000000 1.0
C      1  0.5359790000000  0.5072900000000  0.4587810000000 1.0
C      1  0.4424480000000  0.6044160000000  0.5149430000000 1.0
C      1  0.5266390000000  0.4635780000000  0.5509560000000 1.0
C      1  0.5041500000000  0.5896610000000  0.4742170000000 1.0
C      1  0.5001290000000  0.4326320000000  0.4885920000000 1.0
C      1  0.4871940000000  0.5513260000000  0.5329980000000 1.0
C      1  0.4464800000000  0.4647430000000  0.5315910000000 1.0
C      1  0.4738810000000  0.4912900000000  0.4947380000000 1.0
C      1  0.4744620000000  0.4390650000000  0.4790630000000 1.0
C      1  0.4793610000000  0.4506960000000  0.5686290000000 1.0
C      1  0.5746560000000  0.4666920000000  0.4121120000000 1.0
C      1  0.4567050000000  0.4557830000000  0.5548590000000 1.0
C      1  0.5177370000000  0.4562350000000  0.4973880000000 1.0
C      1  0.4508040000000  0.4733410000000  0.5056370000000 1.0
C      1  0.5453270000000  0.4810100000000  0.4552480000000 1.0
C      1  0.4615030000000  0.5865210000000  0.5130850000000 1.0
C      1  0.5056170000000  0.5305070000000  0.5500190000000 1.0
C      1  0.5306130000000  0.4518140000000  0.5254410000000 1.0
C      1  0.4718570000000  0.5399760000000  0.4347830000000 1.0
C      1  0.4699720000000  0.5044650000000  0.4675390000000 1.0
C      1  0.5334960000000  0.4907930000000  0.5539940000000 1.0
C      1  0.5385850000000  0.4625690000000  0.4753900000000 1.0
C      1  0.5431870000000  0.5337920000000  0.4980070000000 1.0
C      1  0.5452420000000  0.5274580000000  0.5241480000000 1.0
C      1  0.5100590000000  0.4069020000000  0.4904040000000 1.0
C      1  0.4818970000000  0.5673670000000  0.5110960000000 1.0
C      1  0.5294280000000  0.5171350000000  0.5450150000000 1.0
C      1  0.5021650000000  0.5410940000000  0.4729570000000 1.0
C      1  0.4997160000000  0.4816590000000  0.5005470000000 1.0
C      1  0.5062840000000  0.4529580000000  0.5673910000000 1.0
C      1  0.4562340000000  0.4800360000000  0.4578890000000 1.0
C      1  0.4807680000000  0.5284670000000  0.4578200000000 1.0
END
