TITL C-2778428-5639-1067 -0.0026729464649053 125000 -1003.91203763618 0 0 175 (C1) n - 1
REM
REM in /home/nfs/bkarasulu/CARBON/AIRSS/Generating-Clusters/REBO/Only-C1/SD-CG/HFTN-CG
REM
REM
REM
REM
REM
REM ./C.cell (11c1c37f851c82e70ff6c80c92926a4b)
REM
REM compiler GCC version 9.2.1 20190827 (Red Hat 9.2.1-1)
REM options -cpp -mtune=generic -march=x86-64 -g -O0 -fpre-include=/usr/include/finclude/math-vector-fortran.h
REM seed 1036586486 -970686415 -1967124498 779791487 -670367372 -1478805712 -967798023 140155195 -2058092421 -363743919 1750559735 592688888 -1176990780 -914349150 -810237938 -91874910 427707714 -1163164750 -400747325 -1954428916 -1539871156 -1275880754 871419477 -1451200881 228529312 1293976396 2101956822 1356782976 -1779803590 1223829980 -346527731 -374330967 96256581
REM
CELL 1.54180   50.00000   50.00000   50.00000   90.00000   90.00000   90.00000
LATT -1
SFAC C  
C      1  0.4853710000000  0.5864830000000  0.5468200000000 1.0
C      1  0.5779030000000  0.5640700000000  0.4705960000000 1.0
C      1  0.4594930000000  0.5447520000000  0.5524610000000 1.0
C      1  0.5746110000000  0.4622340000000  0.5178480000000 1.0
C      1  0.5399830000000  0.4027110000000  0.5370030000000 1.0
C      1  0.5261310000000  0.6129780000000  0.5241600000000 1.0
C      1  0.4797020000000  0.5727340000000  0.4935870000000 1.0
C      1  0.5086660000000  0.5279680000000  0.5926280000000 1.0
C      1  0.5516540000000  0.5856590000000  0.4501220000000 1.0
C      1  0.4792850000000  0.5634000000000  0.4161100000000 1.0
C      1  0.5598010000000  0.4558830000000  0.4208870000000 1.0
C      1  0.3879500000000  0.5014850000000  0.4880220000000 1.0
C      1  0.4520410000000  0.5816000000000  0.5390180000000 1.0
C      1  0.4290420000000  0.4328620000000  0.4951330000000 1.0
C      1  0.5763460000000  0.4490750000000  0.4749460000000 1.0
C      1  0.5526390000000  0.4845920000000  0.5913700000000 1.0
C      1  0.5253780000000  0.4452760000000  0.5056680000000 1.0
C      1  0.4918140000000  0.4689890000000  0.3916400000000 1.0
C      1  0.4796930000000  0.4697470000000  0.6163110000000 1.0
C      1  0.4542300000000  0.5298800000000  0.4529660000000 1.0
C      1  0.4053140000000  0.4577150000000  0.4409840000000 1.0
C      1  0.4750420000000  0.4841280000000  0.4979660000000 1.0
C      1  0.4116980000000  0.5450460000000  0.5328210000000 1.0
C      1  0.4419530000000  0.4917600000000  0.4160690000000 1.0
C      1  0.4797160000000  0.4243270000000  0.5090600000000 1.0
C      1  0.5758070000000  0.4732290000000  0.5470830000000 1.0
C      1  0.5185950000000  0.5920850000000  0.5487690000000 1.0
C      1  0.4464740000000  0.4037900000000  0.5163050000000 1.0
C      1  0.4729380000000  0.4519280000000  0.5954810000000 1.0
C      1  0.3954790000000  0.5209350000000  0.5505530000000 1.0
C      1  0.5141980000000  0.5621120000000  0.5348220000000 1.0
C      1  0.5689090000000  0.4892320000000  0.4270970000000 1.0
C      1  0.5001910000000  0.4139590000000  0.5535930000000 1.0
C      1  0.5558010000000  0.5310830000000  0.4189590000000 1.0
C      1  0.4884330000000  0.4732020000000  0.5337010000000 1.0
C      1  0.5289230000000  0.5767190000000  0.5088690000000 1.0
C      1  0.4842760000000  0.5586090000000  0.5608050000000 1.0
C      1  0.5522280000000  0.5624920000000  0.5379740000000 1.0
C      1  0.4660020000000  0.6189580000000  0.5000430000000 1.0
C      1  0.4811520000000  0.4984630000000  0.4162740000000 1.0
C      1  0.3917390000000  0.4881670000000  0.5446710000000 1.0
C      1  0.5271240000000  0.5865350000000  0.4699950000000 1.0
C      1  0.5583430000000  0.5258770000000  0.4671590000000 1.0
C      1  0.4309960000000  0.4468360000000  0.5562790000000 1.0
C      1  0.5542150000000  0.5383780000000  0.5690530000000 1.0
C      1  0.5563240000000  0.4279970000000  0.4578090000000 1.0
C      1  0.5042330000000  0.5312650000000  0.4353340000000 1.0
C      1  0.4861730000000  0.4592530000000  0.4490020000000 1.0
C      1  0.4341360000000  0.5052220000000  0.4525590000000 1.0
C      1  0.4081240000000  0.5476140000000  0.4909190000000 1.0
C      1  0.5256970000000  0.4761810000000  0.4906260000000 1.0
C      1  0.4089130000000  0.5135330000000  0.5198040000000 1.0
C      1  0.5655730000000  0.5561730000000  0.4398790000000 1.0
C      1  0.5239530000000  0.5359140000000  0.4089580000000 1.0
C      1  0.5635450000000  0.4343120000000  0.5030050000000 1.0
C      1  0.4211880000000  0.5795500000000  0.4891550000000 1.0
C      1  0.5240920000000  0.5066070000000  0.4755140000000 1.0
C      1  0.5406900000000  0.5166050000000  0.5911610000000 1.0
C      1  0.6191730000000  0.4989770000000  0.5194270000000 1.0
C      1  0.4427090000000  0.6044180000000  0.4799690000000 1.0
C      1  0.4750550000000  0.5012630000000  0.4712180000000 1.0
C      1  0.4563960000000  0.4578160000000  0.4610190000000 1.0
C      1  0.4695520000000  0.4969100000000  0.6164090000000 1.0
C      1  0.4875460000000  0.5060760000000  0.5503810000000 1.0
C      1  0.5954630000000  0.4732020000000  0.5004520000000 1.0
C      1  0.4582040000000  0.5757470000000  0.4745900000000 1.0
C      1  0.4988250000000  0.5181630000000  0.3980980000000 1.0
C      1  0.5435080000000  0.4599640000000  0.5279730000000 1.0
C      1  0.5234210000000  0.4381870000000  0.5866650000000 1.0
C      1  0.5075740000000  0.4678170000000  0.5832100000000 1.0
C      1  0.5952900000000  0.4836060000000  0.4680180000000 1.0
C      1  0.4994410000000  0.6200490000000  0.5061590000000 1.0
C      1  0.4255320000000  0.4361270000000  0.5269830000000 1.0
C      1  0.4583960000000  0.5385280000000  0.5190440000000 1.0
C      1  0.4520740000000  0.5764620000000  0.4266720000000 1.0
C      1  0.4545670000000  0.4504670000000  0.4923130000000 1.0
C      1  0.5970550000000  0.5175150000000  0.4698530000000 1.0
C      1  0.5128110000000  0.5403440000000  0.5105710000000 1.0
C      1  0.5864330000000  0.4296570000000  0.5374910000000 1.0
C      1  0.4895110000000  0.4680480000000  0.5624310000000 1.0
C      1  0.4600460000000  0.4673630000000  0.5214630000000 1.0
C      1  0.5351200000000  0.5670060000000  0.5662320000000 1.0
C      1  0.5360010000000  0.4428110000000  0.4190020000000 1.0
C      1  0.5884300000000  0.5445390000000  0.4886790000000 1.0
C      1  0.4348670000000  0.5633060000000  0.5158510000000 1.0
C      1  0.3992280000000  0.4922220000000  0.4638010000000 1.0
C      1  0.4868420000000  0.5657260000000  0.4479370000000 1.0
C      1  0.5296920000000  0.4817310000000  0.4254700000000 1.0
C      1  0.4400110000000  0.4217190000000  0.4662490000000 1.0
C      1  0.5459320000000  0.4775030000000  0.4511400000000 1.0
C      1  0.4996330000000  0.5887080000000  0.4543120000000 1.0
C      1  0.4046920000000  0.4539620000000  0.5063350000000 1.0
C      1  0.4316700000000  0.5305930000000  0.5641510000000 1.0
C      1  0.5667510000000  0.5158050000000  0.5155460000000 1.0
C      1  0.4661970000000  0.4677230000000  0.4115600000000 1.0
C      1  0.5142940000000  0.5022030000000  0.5427810000000 1.0
C      1  0.4390820000000  0.5152610000000  0.5346040000000 1.0
C      1  0.4695480000000  0.5081860000000  0.5711540000000 1.0
C      1  0.4721660000000  0.5355360000000  0.4049080000000 1.0
C      1  0.5346520000000  0.4620950000000  0.6060690000000 1.0
C      1  0.5136860000000  0.4879730000000  0.3959210000000 1.0
C      1  0.4766490000000  0.4384440000000  0.4258990000000 1.0
C      1  0.5690710000000  0.4628170000000  0.5750530000000 1.0
C      1  0.4881260000000  0.4028850000000  0.4764070000000 1.0
C      1  0.4516980000000  0.5084680000000  0.4930260000000 1.0
C      1  0.4310390000000  0.4426700000000  0.4440130000000 1.0
C      1  0.4632260000000  0.4925700000000  0.4429990000000 1.0
C      1  0.6144440000000  0.4775710000000  0.5389090000000 1.0
C      1  0.5662320000000  0.4067950000000  0.5221540000000 1.0
C      1  0.4145300000000  0.4725460000000  0.5604670000000 1.0
C      1  0.5207320000000  0.4282450000000  0.5346360000000 1.0
C      1  0.5213770000000  0.5378190000000  0.4620750000000 1.0
C      1  0.4299740000000  0.4759020000000  0.4662010000000 1.0
C      1  0.5390410000000  0.5159910000000  0.5489150000000 1.0
C      1  0.5319330000000  0.5596760000000  0.4400210000000 1.0
C      1  0.4923120000000  0.4312490000000  0.5778220000000 1.0
C      1  0.4044720000000  0.4551860000000  0.4737950000000 1.0
C      1  0.4538510000000  0.5952110000000  0.4489270000000 1.0
C      1  0.5769270000000  0.5316920000000  0.5442090000000 1.0
C      1  0.4123390000000  0.4879400000000  0.4324340000000 1.0
C      1  0.5066570000000  0.5520460000000  0.5751660000000 1.0
C      1  0.5445250000000  0.4282580000000  0.5674390000000 1.0
C      1  0.5431810000000  0.5032940000000  0.4039440000000 1.0
C      1  0.4415970000000  0.5517180000000  0.4697810000000 1.0
C      1  0.4319650000000  0.5545840000000  0.4311690000000 1.0
C      1  0.4467310000000  0.5253740000000  0.4205460000000 1.0
C      1  0.5423440000000  0.5359490000000  0.5249490000000 1.0
C      1  0.4400470000000  0.4814280000000  0.5384530000000 1.0
C      1  0.5844450000000  0.5513140000000  0.5171260000000 1.0
C      1  0.6068130000000  0.4497680000000  0.5380340000000 1.0
C      1  0.5535910000000  0.5060400000000  0.4893950000000 1.0
C      1  0.4141830000000  0.5638970000000  0.4587530000000 1.0
C      1  0.5759560000000  0.5178010000000  0.4429420000000 1.0
C      1  0.5578910000000  0.4376250000000  0.5460810000000 1.0
C      1  0.4831030000000  0.5420580000000  0.4993680000000 1.0
C      1  0.5710180000000  0.5783900000000  0.5218610000000 1.0
C      1  0.4581400000000  0.4064350000000  0.4884050000000 1.0
C      1  0.5613450000000  0.4994730000000  0.5618890000000 1.0
C      1  0.5107340000000  0.4342450000000  0.4242990000000 1.0
C      1  0.4803180000000  0.5437290000000  0.4654320000000 1.0
C      1  0.5112860000000  0.5655110000000  0.4163980000000 1.0
C      1  0.4729540000000  0.5926930000000  0.5174720000000 1.0
C      1  0.5524070000000  0.5994900000000  0.5069310000000 1.0
C      1  0.6093690000000  0.4497340000000  0.4838300000000 1.0
C      1  0.4998820000000  0.5054110000000  0.4547880000000 1.0
C      1  0.5596730000000  0.3965710000000  0.4903910000000 1.0
C      1  0.4610640000000  0.4386990000000  0.5664060000000 1.0
C      1  0.4461880000000  0.4939490000000  0.5683370000000 1.0
C      1  0.5095230000000  0.3904160000000  0.5335040000000 1.0
C      1  0.5153710000000  0.4962150000000  0.5998490000000 1.0
C      1  0.5929940000000  0.5021460000000  0.5493900000000 1.0
C      1  0.5622160000000  0.4019770000000  0.4636180000000 1.0
C      1  0.5937430000000  0.5064640000000  0.5006470000000 1.0
C      1  0.5084050000000  0.4725370000000  0.6227020000000 1.0
C      1  0.4339810000000  0.5270170000000  0.4895770000000 1.0
C      1  0.5178500000000  0.4802180000000  0.5223390000000 1.0
C      1  0.4877100000000  0.4525830000000  0.4960230000000 1.0
C      1  0.5633290000000  0.4803450000000  0.4779040000000 1.0
C      1  0.5345530000000  0.4154810000000  0.4995150000000 1.0
C      1  0.5841030000000  0.4623650000000  0.4438300000000 1.0
C      1  0.4799100000000  0.5143250000000  0.5964360000000 1.0
C      1  0.4140990000000  0.5040650000000  0.5735640000000 1.0
C      1  0.4302620000000  0.5627930000000  0.5552860000000 1.0
C      1  0.5008040000000  0.4816260000000  0.4357290000000 1.0
C      1  0.5053580000000  0.4478510000000  0.4713050000000 1.0
C      1  0.5364390000000  0.4525770000000  0.4681170000000 1.0
C      1  0.5049300000000  0.5912200000000  0.4937310000000 1.0
C      1  0.4576600000000  0.4267830000000  0.5351000000000 1.0
C      1  0.3955780000000  0.4828120000000  0.5132400000000 1.0
C      1  0.5057240000000  0.4028540000000  0.5039000000000 1.0
C      1  0.4684250000000  0.4168170000000  0.4512750000000 1.0
C      1  0.5009500000000  0.4223390000000  0.4529580000000 1.0
C      1  0.5662140000000  0.5920800000000  0.4793970000000 1.0
C      1  0.5228840000000  0.5568200000000  0.4840980000000 1.0
C      1  0.3846090000000  0.5286330000000  0.4918970000000 1.0
END
