TITL C-2778424-3986-531 -0.00747570272791388 125000 -179.91600913337 0 0 31 (C1) n - 1
REM
REM in /home/nfs/bkarasulu/CARBON/AIRSS/Generating-Clusters/REBO/Only-C1/SD-CG/HFTN-CG
REM
REM
REM
REM
REM
REM ./C.cell (11c1c37f851c82e70ff6c80c92926a4b)
REM
REM compiler GCC version 9.2.1 20190827 (Red Hat 9.2.1-1)
REM options -cpp -mtune=generic -march=x86-64 -g -O0 -fpre-include=/usr/include/finclude/math-vector-fortran.h
REM seed 293023187 -2139332281 1247775760 878729346 744355096 -1387044541 2015012561 -487211510 -1905910069 118159233 1970918113 -1171969056 1659162561 -2040464998 839344525 -1229593538 360960802 1870609807 1011604087 -1110589535 266031177 561737597 -521605359 1082454963 1017252381 1370802280 -1818070084 1356801161 1482606822 1382698881 284165902 -878861030 2142919668
REM
CELL 1.54180   50.00000   50.00000   50.00000   90.00000   90.00000   90.00000
LATT -1
SFAC C  
C      1  0.4768780000000  0.4971020000000  0.5200640000000 1.0
C      1  0.5622280000000  0.4903250000000  0.4961890000000 1.0
C      1  0.4948260000000  0.5526190000000  0.4975940000000 1.0
C      1  0.5371040000000  0.4634660000000  0.4818560000000 1.0
C      1  0.5193160000000  0.4880060000000  0.5422480000000 1.0
C      1  0.5170350000000  0.5133610000000  0.4975240000000 1.0
C      1  0.5264830000000  0.5074340000000  0.4566050000000 1.0
C      1  0.5510270000000  0.4891570000000  0.4655320000000 1.0
C      1  0.4781780000000  0.4493800000000  0.5239580000000 1.0
C      1  0.5053310000000  0.4431480000000  0.5302830000000 1.0
C      1  0.5318970000000  0.5088160000000  0.5279540000000 1.0
C      1  0.4616890000000  0.5509290000000  0.5029600000000 1.0
C      1  0.5550140000000  0.5153810000000  0.5093990000000 1.0
C      1  0.4909200000000  0.4927750000000  0.5448360000000 1.0
C      1  0.5477200000000  0.4632910000000  0.5108540000000 1.0
C      1  0.4566220000000  0.4637180000000  0.5395060000000 1.0
C      1  0.5272510000000  0.4617880000000  0.5319950000000 1.0
C      1  0.5420470000000  0.5369920000000  0.4917010000000 1.0
C      1  0.4721690000000  0.4784830000000  0.4538580000000 1.0
C      1  0.5102770000000  0.5311350000000  0.4558710000000 1.0
C      1  0.4480730000000  0.5383060000000  0.5244510000000 1.0
C      1  0.4728080000000  0.5023630000000  0.4398550000000 1.0
C      1  0.4680250000000  0.5314510000000  0.4776350000000 1.0
C      1  0.4431500000000  0.5146830000000  0.5369770000000 1.0
C      1  0.5137430000000  0.4854920000000  0.4787510000000 1.0
C      1  0.4866070000000  0.5199610000000  0.5039380000000 1.0
C      1  0.4814770000000  0.5261840000000  0.4530990000000 1.0
C      1  0.4856800000000  0.4744860000000  0.4783890000000 1.0
C      1  0.4741950000000  0.4728300000000  0.5047500000000 1.0
C      1  0.4451310000000  0.4882390000000  0.5426680000000 1.0
C      1  0.5170980000000  0.5486980000000  0.4787010000000 1.0
END
