TITL C-2778424-3986-655 0.000928750839825667 125000 -584.005198045399 0 0 101 (C1) n - 1
REM
REM in /home/nfs/bkarasulu/CARBON/AIRSS/Generating-Clusters/REBO/Only-C1/SD-CG/HFTN-CG
REM
REM
REM
REM
REM
REM ./C.cell (11c1c37f851c82e70ff6c80c92926a4b)
REM
REM compiler GCC version 9.2.1 20190827 (Red Hat 9.2.1-1)
REM options -cpp -mtune=generic -march=x86-64 -g -O0 -fpre-include=/usr/include/finclude/math-vector-fortran.h
REM seed -1470515446 -1822288711 235240865 747441970 -1507315661 509466527 -493802027 447118207 1096222026 -1279621660 -1667148316 -472487558 -220511297 -1190939773 1321121928 865892115 915234390 -1162209416 -1383389497 1035625204 -616521959 2056474634 -753873874 1149575393 -1402680296 1698424877 1670978923 180998607 -1946290095 130728941 1260519530 -1299112860 1985848151
REM
CELL 1.54180   50.00000   50.00000   50.00000   90.00000   90.00000   90.00000
LATT -1
SFAC C  
C      1  0.4406280000000  0.4985270000000  0.5709860000000 1.0
C      1  0.5441050000000  0.4592440000000  0.4441230000000 1.0
C      1  0.4666720000000  0.4410970000000  0.4385980000000 1.0
C      1  0.4573520000000  0.4569480000000  0.4659820000000 1.0
C      1  0.4768120000000  0.4543640000000  0.4162010000000 1.0
C      1  0.5404890000000  0.4849570000000  0.5803990000000 1.0
C      1  0.5041160000000  0.5641100000000  0.4583200000000 1.0
C      1  0.4778930000000  0.5415100000000  0.4261990000000 1.0
C      1  0.4505330000000  0.4857250000000  0.5422700000000 1.0
C      1  0.4610420000000  0.5479300000000  0.5101980000000 1.0
C      1  0.4084430000000  0.5047130000000  0.4968480000000 1.0
C      1  0.4962670000000  0.5366870000000  0.4040270000000 1.0
C      1  0.4947470000000  0.4748260000000  0.5653480000000 1.0
C      1  0.5081080000000  0.4726440000000  0.4638000000000 1.0
C      1  0.5368460000000  0.5655650000000  0.4513290000000 1.0
C      1  0.4432710000000  0.5476860000000  0.4868360000000 1.0
C      1  0.5320890000000  0.5539490000000  0.5416940000000 1.0
C      1  0.5102150000000  0.5684180000000  0.5527720000000 1.0
C      1  0.4865980000000  0.4280370000000  0.5463750000000 1.0
C      1  0.4085990000000  0.5005850000000  0.5480260000000 1.0
C      1  0.4536100000000  0.4370240000000  0.5466170000000 1.0
C      1  0.4866260000000  0.5234610000000  0.5426090000000 1.0
C      1  0.5642890000000  0.4789450000000  0.5219290000000 1.0
C      1  0.5363550000000  0.4976390000000  0.4074260000000 1.0
C      1  0.4749050000000  0.5793440000000  0.4658860000000 1.0
C      1  0.5024190000000  0.4888320000000  0.4396350000000 1.0
C      1  0.4515650000000  0.5481150000000  0.4362000000000 1.0
C      1  0.4432650000000  0.4650070000000  0.5187320000000 1.0
C      1  0.4266450000000  0.5208720000000  0.4809060000000 1.0
C      1  0.4137320000000  0.4723100000000  0.5056400000000 1.0
C      1  0.5497850000000  0.5052940000000  0.4580760000000 1.0
C      1  0.5813160000000  0.4863040000000  0.4246120000000 1.0
C      1  0.5069390000000  0.4987940000000  0.5533680000000 1.0
C      1  0.6055110000000  0.4956020000000  0.4998970000000 1.0
C      1  0.5337650000000  0.4818810000000  0.5109600000000 1.0
C      1  0.3967980000000  0.4940650000000  0.5238780000000 1.0
C      1  0.4628660000000  0.5107140000000  0.5280180000000 1.0
C      1  0.5647680000000  0.5649700000000  0.5000570000000 1.0
C      1  0.5230960000000  0.5920810000000  0.4658780000000 1.0
C      1  0.5724270000000  0.4508740000000  0.5133060000000 1.0
C      1  0.5641420000000  0.4446600000000  0.4650640000000 1.0
C      1  0.4722390000000  0.4651780000000  0.5461710000000 1.0
C      1  0.5405970000000  0.5217270000000  0.5501420000000 1.0
C      1  0.4724620000000  0.4942990000000  0.5011480000000 1.0
C      1  0.5477650000000  0.4341710000000  0.5223440000000 1.0
C      1  0.5627060000000  0.5508950000000  0.4404690000000 1.0
C      1  0.4559290000000  0.5068740000000  0.4762880000000 1.0
C      1  0.4153630000000  0.4397760000000  0.5059140000000 1.0
C      1  0.4969090000000  0.4740540000000  0.4154700000000 1.0
C      1  0.5324440000000  0.5343800000000  0.4642170000000 1.0
C      1  0.4154450000000  0.4762990000000  0.5665070000000 1.0
C      1  0.5813850000000  0.4997620000000  0.5095320000000 1.0
C      1  0.5153460000000  0.4431370000000  0.4537340000000 1.0
C      1  0.4742230000000  0.5119540000000  0.5876340000000 1.0
C      1  0.5141540000000  0.5333330000000  0.5125340000000 1.0
C      1  0.4262390000000  0.5090980000000  0.4501220000000 1.0
C      1  0.5008040000000  0.4438410000000  0.4991960000000 1.0
C      1  0.5119580000000  0.5955530000000  0.5580090000000 1.0
C      1  0.4838230000000  0.5228210000000  0.4759050000000 1.0
C      1  0.4958470000000  0.5999450000000  0.4736240000000 1.0
C      1  0.5759720000000  0.5426370000000  0.4835700000000 1.0
C      1  0.4626120000000  0.5342960000000  0.5722940000000 1.0
C      1  0.4841260000000  0.5548220000000  0.5553350000000 1.0
C      1  0.5155240000000  0.5164230000000  0.4407990000000 1.0
C      1  0.5378670000000  0.4315740000000  0.4717680000000 1.0
C      1  0.5451780000000  0.4880330000000  0.5486870000000 1.0
C      1  0.4648750000000  0.4310640000000  0.4873310000000 1.0
C      1  0.5812810000000  0.4476090000000  0.4874100000000 1.0
C      1  0.5716310000000  0.5314040000000  0.4582530000000 1.0
C      1  0.5123820000000  0.5288080000000  0.5653380000000 1.0
C      1  0.5219050000000  0.4944600000000  0.5981440000000 1.0
C      1  0.5218140000000  0.5232340000000  0.4110430000000 1.0
C      1  0.5156010000000  0.5035140000000  0.5240170000000 1.0
C      1  0.4757480000000  0.4539780000000  0.5180790000000 1.0
C      1  0.5328710000000  0.4586120000000  0.5359960000000 1.0
C      1  0.5285980000000  0.4329530000000  0.4981880000000 1.0
C      1  0.4528640000000  0.5613600000000  0.4629590000000 1.0
C      1  0.5668940000000  0.5348720000000  0.5383580000000 1.0
C      1  0.4821970000000  0.4205460000000  0.5147330000000 1.0
C      1  0.5041950000000  0.5007230000000  0.4920140000000 1.0
C      1  0.4875000000000  0.5391520000000  0.5027410000000 1.0
C      1  0.4546230000000  0.5473310000000  0.5410380000000 1.0
C      1  0.4657720000000  0.4798160000000  0.5825750000000 1.0
C      1  0.4835610000000  0.4680190000000  0.4822830000000 1.0
C      1  0.5026060000000  0.5139390000000  0.5908740000000 1.0
C      1  0.5523110000000  0.4108490000000  0.5367430000000 1.0
C      1  0.5079350000000  0.4486640000000  0.5524760000000 1.0
C      1  0.5538370000000  0.4874610000000  0.4321240000000 1.0
C      1  0.4425090000000  0.4826120000000  0.4586100000000 1.0
C      1  0.5318880000000  0.4877480000000  0.4787910000000 1.0
C      1  0.4861120000000  0.4304270000000  0.4605120000000 1.0
C      1  0.4351740000000  0.5217960000000  0.5464550000000 1.0
C      1  0.5184270000000  0.4777810000000  0.3972180000000 1.0
C      1  0.5674930000000  0.5262100000000  0.5094430000000 1.0
C      1  0.4944810000000  0.5364370000000  0.4519580000000 1.0
C      1  0.4418290000000  0.4586810000000  0.5703790000000 1.0
C      1  0.5378810000000  0.5351670000000  0.4953070000000 1.0
C      1  0.5479030000000  0.5657030000000  0.5214320000000 1.0
C      1  0.4308970000000  0.5291980000000  0.4310350000000 1.0
C      1  0.4437660000000  0.4308830000000  0.5143660000000 1.0
C      1  0.5840720000000  0.5498020000000  0.5513390000000 1.0
END
