TITL C-2778423-5760-236 0.000133033753776278 125000 -1136.12287374825 0 0 195 (C1) n - 1
REM
REM in /home/nfs/bkarasulu/CARBON/AIRSS/Generating-Clusters/REBO/Only-C1/SD-CG/HFTN-CG
REM
REM
REM
REM
REM
REM ./C.cell (11c1c37f851c82e70ff6c80c92926a4b)
REM
REM compiler GCC version 9.2.1 20190827 (Red Hat 9.2.1-1)
REM options -cpp -mtune=generic -march=x86-64 -g -O0 -fpre-include=/usr/include/finclude/math-vector-fortran.h
REM seed 1532433447 -1794814303 1194451090 2091833320 -194940214 -293299760 -939254458 -1475269357 -1525404342 -489112306 -683066705 562624465 855839022 200208162 13882447 1056023842 336070348 -189060003 1800744096 1245242139 -226281976 -1710503241 859956387 1011565329 -1348445828 -151005627 2052651574 -408498519 309094342 7065421 2049383124 -1082051775 941047305
REM
CELL 1.54180   50.00000   50.00000   50.00000   90.00000   90.00000   90.00000
LATT -1
SFAC C  
C      1  0.5758500000000  0.5584760000000  0.5268930000000 1.0
C      1  0.4176220000000  0.4205560000000  0.4761790000000 1.0
C      1  0.5206030000000  0.5250390000000  0.4389020000000 1.0
C      1  0.4079850000000  0.4983940000000  0.5691660000000 1.0
C      1  0.4053720000000  0.5184670000000  0.4313740000000 1.0
C      1  0.5307740000000  0.5006020000000  0.5038010000000 1.0
C      1  0.4925250000000  0.4233020000000  0.5650120000000 1.0
C      1  0.5579500000000  0.5755580000000  0.5665400000000 1.0
C      1  0.6094950000000  0.5210480000000  0.4873330000000 1.0
C      1  0.4783690000000  0.5686330000000  0.4982150000000 1.0
C      1  0.5579960000000  0.4843870000000  0.4574680000000 1.0
C      1  0.5383970000000  0.5960040000000  0.4585060000000 1.0
C      1  0.5718280000000  0.4332070000000  0.5324810000000 1.0
C      1  0.4358310000000  0.4616720000000  0.4962540000000 1.0
C      1  0.5138230000000  0.3890180000000  0.5357160000000 1.0
C      1  0.5566950000000  0.5960750000000  0.5474830000000 1.0
C      1  0.4085560000000  0.4739660000000  0.4796200000000 1.0
C      1  0.4381840000000  0.4781900000000  0.4094650000000 1.0
C      1  0.5323310000000  0.6057010000000  0.4905690000000 1.0
C      1  0.4097390000000  0.4973750000000  0.4549780000000 1.0
C      1  0.4203520000000  0.5320870000000  0.4161340000000 1.0
C      1  0.4536720000000  0.5394870000000  0.5293180000000 1.0
C      1  0.5483860000000  0.5048330000000  0.4020700000000 1.0
C      1  0.5674350000000  0.4324200000000  0.4525430000000 1.0
C      1  0.5212890000000  0.4115040000000  0.5554360000000 1.0
C      1  0.4319330000000  0.5062400000000  0.4798960000000 1.0
C      1  0.4603680000000  0.5029110000000  0.4033120000000 1.0
C      1  0.5252050000000  0.4590600000000  0.4334100000000 1.0
C      1  0.4923340000000  0.5329140000000  0.6020110000000 1.0
C      1  0.5671050000000  0.5131110000000  0.5126130000000 1.0
C      1  0.5731260000000  0.5101700000000  0.4464260000000 1.0
C      1  0.5514060000000  0.4253060000000  0.5562950000000 1.0
C      1  0.4811310000000  0.5600870000000  0.4472030000000 1.0
C      1  0.5269140000000  0.4955830000000  0.4547920000000 1.0
C      1  0.4286480000000  0.5078320000000  0.5112090000000 1.0
C      1  0.4954030000000  0.5080050000000  0.4337250000000 1.0
C      1  0.4731060000000  0.5787150000000  0.5640780000000 1.0
C      1  0.5377640000000  0.4251630000000  0.4073110000000 1.0
C      1  0.5059230000000  0.4818520000000  0.6015950000000 1.0
C      1  0.4524300000000  0.5973020000000  0.4724820000000 1.0
C      1  0.4532360000000  0.5715580000000  0.4196140000000 1.0
C      1  0.4720710000000  0.4981070000000  0.5703770000000 1.0
C      1  0.5064030000000  0.4714870000000  0.4568570000000 1.0
C      1  0.4366250000000  0.4766570000000  0.4513950000000 1.0
C      1  0.4874170000000  0.4330680000000  0.5046210000000 1.0
C      1  0.5088140000000  0.4292770000000  0.3980160000000 1.0
C      1  0.5000480000000  0.5834600000000  0.4827010000000 1.0
C      1  0.4661280000000  0.4669990000000  0.4264750000000 1.0
C      1  0.5558640000000  0.5572800000000  0.4281050000000 1.0
C      1  0.5220780000000  0.5166750000000  0.4778170000000 1.0
C      1  0.5429070000000  0.4598610000000  0.5378470000000 1.0
C      1  0.4331800000000  0.5686910000000  0.4336210000000 1.0
C      1  0.4014380000000  0.4440160000000  0.4839150000000 1.0
C      1  0.5437290000000  0.5396110000000  0.4754700000000 1.0
C      1  0.4691120000000  0.4001860000000  0.4567900000000 1.0
C      1  0.4895350000000  0.4629260000000  0.4062430000000 1.0
C      1  0.6064320000000  0.5146060000000  0.5153330000000 1.0
C      1  0.4987910000000  0.5292060000000  0.4920980000000 1.0
C      1  0.4791260000000  0.5525500000000  0.5841100000000 1.0
C      1  0.4709260000000  0.4679420000000  0.5699840000000 1.0
C      1  0.4986880000000  0.4451320000000  0.5875400000000 1.0
C      1  0.5615490000000  0.5752770000000  0.4483230000000 1.0
C      1  0.4701590000000  0.5184190000000  0.4846000000000 1.0
C      1  0.5497910000000  0.5710880000000  0.4993870000000 1.0
C      1  0.4353330000000  0.4266090000000  0.5802550000000 1.0
C      1  0.4974790000000  0.5084200000000  0.5819260000000 1.0
C      1  0.5720530000000  0.4328860000000  0.5027980000000 1.0
C      1  0.5120120000000  0.5103890000000  0.6187390000000 1.0
C      1  0.5608860000000  0.4909790000000  0.4891910000000 1.0
C      1  0.4328050000000  0.5259110000000  0.5601990000000 1.0
C      1  0.4547230000000  0.4820790000000  0.4783860000000 1.0
C      1  0.5129900000000  0.6044410000000  0.5565720000000 1.0
C      1  0.6103810000000  0.4725200000000  0.4963130000000 1.0
C      1  0.4679470000000  0.4023850000000  0.5542460000000 1.0
C      1  0.4844140000000  0.3903510000000  0.5270050000000 1.0
C      1  0.5273220000000  0.5686780000000  0.4738530000000 1.0
C      1  0.5577920000000  0.4554330000000  0.4395210000000 1.0
C      1  0.4387750000000  0.4695430000000  0.5284480000000 1.0
C      1  0.5322690000000  0.4764350000000  0.4059520000000 1.0
C      1  0.4536420000000  0.4960240000000  0.5246910000000 1.0
C      1  0.4523900000000  0.5629140000000  0.4774050000000 1.0
C      1  0.4723830000000  0.5105540000000  0.4564880000000 1.0
C      1  0.5587660000000  0.5392070000000  0.5824550000000 1.0
C      1  0.5431030000000  0.5326180000000  0.5075180000000 1.0
C      1  0.3866140000000  0.4796220000000  0.5225020000000 1.0
C      1  0.4299420000000  0.4096150000000  0.5038800000000 1.0
C      1  0.5400370000000  0.5323580000000  0.4152690000000 1.0
C      1  0.5874560000000  0.4559100000000  0.5459260000000 1.0
C      1  0.5915030000000  0.4493280000000  0.4887100000000 1.0
C      1  0.5286440000000  0.4378170000000  0.4604550000000 1.0
C      1  0.4955300000000  0.3943260000000  0.4404310000000 1.0
C      1  0.5843140000000  0.5544710000000  0.5674880000000 1.0
C      1  0.6055530000000  0.5651670000000  0.5443150000000 1.0
C      1  0.5004500000000  0.6156690000000  0.4939970000000 1.0
C      1  0.5428570000000  0.5561170000000  0.5290060000000 1.0
C      1  0.5533920000000  0.4239860000000  0.4794290000000 1.0
C      1  0.5545460000000  0.4429660000000  0.5795960000000 1.0
C      1  0.3938620000000  0.5228820000000  0.4994150000000 1.0
C      1  0.5286650000000  0.4062760000000  0.4850470000000 1.0
C      1  0.5975220000000  0.4870380000000  0.5178580000000 1.0
C      1  0.3944170000000  0.5298540000000  0.5695400000000 1.0
C      1  0.4919530000000  0.4722150000000  0.4996850000000 1.0
C      1  0.4501330000000  0.5377470000000  0.4963280000000 1.0
C      1  0.5155190000000  0.5101520000000  0.3929730000000 1.0
C      1  0.5036040000000  0.4814730000000  0.5302930000000 1.0
C      1  0.5963040000000  0.4852640000000  0.4145850000000 1.0
C      1  0.4836280000000  0.5445590000000  0.5170440000000 1.0
C      1  0.4917900000000  0.4603150000000  0.5502630000000 1.0
C      1  0.5506260000000  0.4842450000000  0.5927230000000 1.0
C      1  0.4959390000000  0.5153620000000  0.5294490000000 1.0
C      1  0.4530800000000  0.5903040000000  0.5060180000000 1.0
C      1  0.4542600000000  0.3971700000000  0.4835070000000 1.0
C      1  0.5438170000000  0.5117520000000  0.6102970000000 1.0
C      1  0.4017610000000  0.5509040000000  0.5576690000000 1.0
C      1  0.4768420000000  0.4490290000000  0.4797160000000 1.0
C      1  0.4454040000000  0.4046170000000  0.5745460000000 1.0
C      1  0.5949760000000  0.5428610000000  0.4747220000000 1.0
C      1  0.5819060000000  0.4879210000000  0.5569660000000 1.0
C      1  0.4201160000000  0.4697270000000  0.5547930000000 1.0
C      1  0.5717190000000  0.5104330000000  0.5925540000000 1.0
C      1  0.4548950000000  0.4070650000000  0.5236070000000 1.0
C      1  0.4922100000000  0.4367780000000  0.4266820000000 1.0
C      1  0.5990580000000  0.4988910000000  0.4393600000000 1.0
C      1  0.5544970000000  0.4515770000000  0.4073950000000 1.0
C      1  0.3821900000000  0.5308960000000  0.5275360000000 1.0
C      1  0.4420320000000  0.5027630000000  0.4323210000000 1.0
C      1  0.5837210000000  0.5699370000000  0.4658970000000 1.0
C      1  0.4282160000000  0.5592630000000  0.5405910000000 1.0
C      1  0.4819580000000  0.3949720000000  0.4946500000000 1.0
C      1  0.5882320000000  0.4695310000000  0.4641480000000 1.0
C      1  0.4087650000000  0.4351900000000  0.5122520000000 1.0
C      1  0.4512360000000  0.4481390000000  0.4583180000000 1.0
C      1  0.4131570000000  0.5195740000000  0.5356760000000 1.0
C      1  0.5433480000000  0.5297880000000  0.5565710000000 1.0
C      1  0.5050610000000  0.5668840000000  0.5672840000000 1.0
C      1  0.4015110000000  0.4556530000000  0.5308480000000 1.0
C      1  0.4793210000000  0.5551250000000  0.4075600000000 1.0
C      1  0.5075330000000  0.5701450000000  0.4192340000000 1.0
C      1  0.4183260000000  0.5543390000000  0.4584960000000 1.0
C      1  0.5322690000000  0.5605310000000  0.5822180000000 1.0
C      1  0.5334950000000  0.4686850000000  0.5070780000000 1.0
C      1  0.5100500000000  0.5414380000000  0.4016130000000 1.0
C      1  0.5138620000000  0.5954730000000  0.5179510000000 1.0
C      1  0.4772370000000  0.4989100000000  0.5066530000000 1.0
C      1  0.4449790000000  0.4751510000000  0.5992860000000 1.0
C      1  0.5437990000000  0.4778020000000  0.5635170000000 1.0
C      1  0.5091010000000  0.5921690000000  0.4424270000000 1.0
C      1  0.4397740000000  0.4559400000000  0.5740380000000 1.0
C      1  0.5715570000000  0.4807170000000  0.4032420000000 1.0
C      1  0.4766860000000  0.4782760000000  0.4525810000000 1.0
C      1  0.5662910000000  0.4735800000000  0.5175180000000 1.0
C      1  0.5132420000000  0.4242640000000  0.5171660000000 1.0
C      1  0.5311960000000  0.3967290000000  0.5127510000000 1.0
C      1  0.5185610000000  0.4425530000000  0.5417880000000 1.0
C      1  0.5013950000000  0.4511610000000  0.3773320000000 1.0
C      1  0.5125290000000  0.5196810000000  0.5582500000000 1.0
C      1  0.4364450000000  0.4254600000000  0.4559820000000 1.0
C      1  0.4170600000000  0.5429430000000  0.4904380000000 1.0
C      1  0.4792950000000  0.5906760000000  0.4581500000000 1.0
C      1  0.5605660000000  0.5058430000000  0.5409240000000 1.0
C      1  0.4801550000000  0.6031540000000  0.5182900000000 1.0
C      1  0.5289550000000  0.4578230000000  0.5943840000000 1.0
C      1  0.5969960000000  0.5334620000000  0.5362430000000 1.0
C      1  0.4399750000000  0.4479970000000  0.4200040000000 1.0
C      1  0.5254360000000  0.5390270000000  0.6046870000000 1.0
C      1  0.4769930000000  0.4658250000000  0.6028860000000 1.0
C      1  0.4508050000000  0.4404540000000  0.5184720000000 1.0
C      1  0.4892970000000  0.4943180000000  0.4064760000000 1.0
C      1  0.4256560000000  0.4954390000000  0.5970260000000 1.0
C      1  0.5143060000000  0.4787430000000  0.3794970000000 1.0
C      1  0.6060730000000  0.5839510000000  0.5209970000000 1.0
C      1  0.5158920000000  0.4559340000000  0.4843050000000 1.0
C      1  0.4864790000000  0.4294670000000  0.4563560000000 1.0
C      1  0.5543960000000  0.6003480000000  0.5159260000000 1.0
C      1  0.3855090000000  0.5011500000000  0.5437140000000 1.0
C      1  0.5773180000000  0.4598890000000  0.5756110000000 1.0
C      1  0.4501800000000  0.5545900000000  0.5661300000000 1.0
C      1  0.5230920000000  0.5756840000000  0.5406920000000 1.0
C      1  0.4275220000000  0.5683850000000  0.5110450000000 1.0
C      1  0.4585860000000  0.5125180000000  0.5496460000000 1.0
C      1  0.4796600000000  0.4355620000000  0.5357160000000 1.0
C      1  0.5124520000000  0.5528150000000  0.4481530000000 1.0
C      1  0.4236300000000  0.5806270000000  0.4794520000000 1.0
C      1  0.5279780000000  0.4962970000000  0.5431450000000 1.0
C      1  0.5889630000000  0.5202630000000  0.5649240000000 1.0
C      1  0.4636630000000  0.5371120000000  0.4396590000000 1.0
C      1  0.3931140000000  0.4932620000000  0.4978630000000 1.0
C      1  0.4847460000000  0.6028780000000  0.5495060000000 1.0
C      1  0.5812120000000  0.5834260000000  0.5041850000000 1.0
C      1  0.5191020000000  0.4183700000000  0.4349910000000 1.0
C      1  0.4361650000000  0.5273100000000  0.4552100000000 1.0
C      1  0.5693930000000  0.5329520000000  0.4615590000000 1.0
C      1  0.6122030000000  0.4933990000000  0.4692800000000 1.0
C      1  0.5021060000000  0.4077950000000  0.4774880000000 1.0
C      1  0.4532920000000  0.5331210000000  0.4091420000000 1.0
END
