TITL C-2778425-5191-857 -0.00264482725409213 125000 -1120.87136590892 0 0 192 (C1) n - 1
REM
REM in /home/nfs/bkarasulu/CARBON/AIRSS/Generating-Clusters/REBO/Only-C1/SD-CG/HFTN-CG
REM
REM
REM
REM
REM
REM ./C.cell (11c1c37f851c82e70ff6c80c92926a4b)
REM
REM compiler GCC version 9.2.1 20190827 (Red Hat 9.2.1-1)
REM options -cpp -mtune=generic -march=x86-64 -g -O0 -fpre-include=/usr/include/finclude/math-vector-fortran.h
REM seed 1090905003 754850781 -2011980358 -1974004581 2141941829 -959597718 378103638 -374194656 572712409 -181189779 -1753517564 1331366433 -1489889150 -913619404 309540881 -358954483 1978698618 1937436509 -1217537919 -254950561 1429180223 690054459 -1863023641 -1814459567 -151452801 1237752503 391764620 1274088752 69144289 -773395508 -1504917576 -1612072358 212643174
REM
CELL 1.54180   50.00000   50.00000   50.00000   90.00000   90.00000   90.00000
LATT -1
SFAC C  
C      1  0.4448900000000  0.5506870000000  0.4521890000000 1.0
C      1  0.5637280000000  0.5756150000000  0.5381970000000 1.0
C      1  0.4141640000000  0.5089870000000  0.4356240000000 1.0
C      1  0.4550730000000  0.4426950000000  0.5786350000000 1.0
C      1  0.4375810000000  0.4391600000000  0.4714970000000 1.0
C      1  0.5708770000000  0.4183080000000  0.4653200000000 1.0
C      1  0.4818520000000  0.4243930000000  0.4541410000000 1.0
C      1  0.6042300000000  0.5641840000000  0.4735020000000 1.0
C      1  0.5648120000000  0.5339300000000  0.4136730000000 1.0
C      1  0.4132240000000  0.4211220000000  0.4863220000000 1.0
C      1  0.5007450000000  0.4251980000000  0.5631150000000 1.0
C      1  0.5361530000000  0.4712050000000  0.5762840000000 1.0
C      1  0.5978470000000  0.5166280000000  0.5447670000000 1.0
C      1  0.4355520000000  0.4457280000000  0.5585600000000 1.0
C      1  0.4873730000000  0.5736000000000  0.4136910000000 1.0
C      1  0.4653510000000  0.5591300000000  0.5941880000000 1.0
C      1  0.3941550000000  0.4978050000000  0.5036330000000 1.0
C      1  0.4881900000000  0.5141730000000  0.3903830000000 1.0
C      1  0.5212840000000  0.5522470000000  0.6012370000000 1.0
C      1  0.4467900000000  0.5243410000000  0.5539770000000 1.0
C      1  0.5393670000000  0.5883030000000  0.5488180000000 1.0
C      1  0.3936380000000  0.5076540000000  0.5535390000000 1.0
C      1  0.5065830000000  0.4707140000000  0.4750320000000 1.0
C      1  0.5226540000000  0.6091620000000  0.5410680000000 1.0
C      1  0.5610550000000  0.5786470000000  0.4855200000000 1.0
C      1  0.5127040000000  0.4882700000000  0.5488110000000 1.0
C      1  0.4309040000000  0.5730360000000  0.5455320000000 1.0
C      1  0.3853590000000  0.5293410000000  0.5072060000000 1.0
C      1  0.4594680000000  0.4212590000000  0.5161030000000 1.0
C      1  0.4995560000000  0.6313130000000  0.4764320000000 1.0
C      1  0.4587540000000  0.5278000000000  0.6025360000000 1.0
C      1  0.4755590000000  0.4275660000000  0.4863210000000 1.0
C      1  0.4709630000000  0.4913950000000  0.4955390000000 1.0
C      1  0.4735380000000  0.5440050000000  0.5291960000000 1.0
C      1  0.4239170000000  0.3911430000000  0.4893200000000 1.0
C      1  0.4460260000000  0.5669300000000  0.5680190000000 1.0
C      1  0.5914370000000  0.5208720000000  0.4685030000000 1.0
C      1  0.4717020000000  0.5964540000000  0.5452860000000 1.0
C      1  0.4420880000000  0.5605100000000  0.5034080000000 1.0
C      1  0.5497710000000  0.4383020000000  0.4264180000000 1.0
C      1  0.4327810000000  0.5053310000000  0.4705470000000 1.0
C      1  0.5700540000000  0.4588950000000  0.5265190000000 1.0
C      1  0.4344790000000  0.5204770000000  0.5844820000000 1.0
C      1  0.5370010000000  0.4653430000000  0.4895480000000 1.0
C      1  0.4127250000000  0.5536850000000  0.5372720000000 1.0
C      1  0.5206880000000  0.4145900000000  0.4585230000000 1.0
C      1  0.4213030000000  0.4837410000000  0.5183810000000 1.0
C      1  0.5343970000000  0.5135780000000  0.6019490000000 1.0
C      1  0.4081370000000  0.4841300000000  0.5589130000000 1.0
C      1  0.5034250000000  0.5575150000000  0.5583850000000 1.0
C      1  0.4320650000000  0.4104210000000  0.5195070000000 1.0
C      1  0.4322130000000  0.4909450000000  0.5719600000000 1.0
C      1  0.4199670000000  0.5320950000000  0.4585520000000 1.0
C      1  0.4979670000000  0.5259320000000  0.5192440000000 1.0
C      1  0.5727320000000  0.5368570000000  0.5412220000000 1.0
C      1  0.5629890000000  0.4763660000000  0.5022500000000 1.0
C      1  0.4776920000000  0.5740600000000  0.5661490000000 1.0
C      1  0.4146710000000  0.4599760000000  0.4360370000000 1.0
C      1  0.5171180000000  0.4950630000000  0.4582700000000 1.0
C      1  0.4567570000000  0.4517540000000  0.5119190000000 1.0
C      1  0.4918450000000  0.5565230000000  0.4803790000000 1.0
C      1  0.5288940000000  0.4503930000000  0.5151360000000 1.0
C      1  0.5426960000000  0.5157820000000  0.3954010000000 1.0
C      1  0.4103460000000  0.4356670000000  0.5163600000000 1.0
C      1  0.4965880000000  0.5444800000000  0.3884130000000 1.0
C      1  0.5363100000000  0.4241820000000  0.5297440000000 1.0
C      1  0.5708650000000  0.5314020000000  0.5104330000000 1.0
C      1  0.5902620000000  0.5391080000000  0.4431380000000 1.0
C      1  0.4680240000000  0.5339260000000  0.4404420000000 1.0
C      1  0.5565140000000  0.5270180000000  0.5800180000000 1.0
C      1  0.5558880000000  0.4057150000000  0.5001890000000 1.0
C      1  0.5376470000000  0.5743390000000  0.4308790000000 1.0
C      1  0.5093120000000  0.5243670000000  0.6168160000000 1.0
C      1  0.5287710000000  0.5707620000000  0.5759980000000 1.0
C      1  0.6145210000000  0.4965530000000  0.4988520000000 1.0
C      1  0.5112340000000  0.5208040000000  0.4376570000000 1.0
C      1  0.4605030000000  0.5630700000000  0.4774800000000 1.0
C      1  0.5974570000000  0.4703560000000  0.5358360000000 1.0
C      1  0.4728710000000  0.5644420000000  0.3853800000000 1.0
C      1  0.5217210000000  0.3934660000000  0.5507570000000 1.0
C      1  0.5038630000000  0.4169880000000  0.4290530000000 1.0
C      1  0.5371520000000  0.4141270000000  0.5644530000000 1.0
C      1  0.5801570000000  0.4349770000000  0.4845210000000 1.0
C      1  0.5652230000000  0.5037620000000  0.5069780000000 1.0
C      1  0.4493430000000  0.4074100000000  0.4771380000000 1.0
C      1  0.4952520000000  0.4866590000000  0.5129280000000 1.0
C      1  0.4715290000000  0.4571750000000  0.3939390000000 1.0
C      1  0.6067730000000  0.4961220000000  0.5269110000000 1.0
C      1  0.4071810000000  0.4841210000000  0.4483990000000 1.0
C      1  0.4781550000000  0.5345300000000  0.5602810000000 1.0
C      1  0.5285850000000  0.5098320000000  0.5693730000000 1.0
C      1  0.5002120000000  0.4574100000000  0.5554040000000 1.0
C      1  0.5213810000000  0.5009240000000  0.4988600000000 1.0
C      1  0.6024650000000  0.5658120000000  0.5052640000000 1.0
C      1  0.5911460000000  0.4833730000000  0.4449290000000 1.0
C      1  0.5151500000000  0.4580020000000  0.4384830000000 1.0
C      1  0.4763460000000  0.5852720000000  0.4401240000000 1.0
C      1  0.4165510000000  0.3658650000000  0.5071640000000 1.0
C      1  0.5576220000000  0.5555130000000  0.5654260000000 1.0
C      1  0.5438860000000  0.5248120000000  0.4393510000000 1.0
C      1  0.5412970000000  0.4610170000000  0.4579220000000 1.0
C      1  0.5420800000000  0.4617680000000  0.5441590000000 1.0
C      1  0.4898370000000  0.3919930000000  0.4474930000000 1.0
C      1  0.6071510000000  0.4847150000000  0.4751850000000 1.0
C      1  0.4483000000000  0.5851520000000  0.5229490000000 1.0
C      1  0.4473600000000  0.4900340000000  0.4467370000000 1.0
C      1  0.5410640000000  0.4846540000000  0.6041830000000 1.0
C      1  0.4937590000000  0.4050930000000  0.5045880000000 1.0
C      1  0.5379850000000  0.3934500000000  0.4891880000000 1.0
C      1  0.4941100000000  0.5496040000000  0.4368720000000 1.0
C      1  0.4115010000000  0.4583370000000  0.5389170000000 1.0
C      1  0.4098310000000  0.4851330000000  0.4802490000000 1.0
C      1  0.4859780000000  0.4557550000000  0.4523280000000 1.0
C      1  0.4905640000000  0.5508330000000  0.6096530000000 1.0
C      1  0.4606030000000  0.4663890000000  0.4892660000000 1.0
C      1  0.5697390000000  0.4959450000000  0.4681350000000 1.0
C      1  0.4508570000000  0.4637210000000  0.5360180000000 1.0
C      1  0.5111960000000  0.4379820000000  0.4774140000000 1.0
C      1  0.5113950000000  0.3865500000000  0.4733330000000 1.0
C      1  0.4362460000000  0.5058650000000  0.4154530000000 1.0
C      1  0.4809710000000  0.6079190000000  0.4860440000000 1.0
C      1  0.4769310000000  0.4670530000000  0.5760970000000 1.0
C      1  0.4305280000000  0.5814290000000  0.4594150000000 1.0
C      1  0.5672370000000  0.4611000000000  0.4400730000000 1.0
C      1  0.4041300000000  0.5498800000000  0.5101380000000 1.0
C      1  0.4876990000000  0.4944520000000  0.4178500000000 1.0
C      1  0.4552440000000  0.5949410000000  0.4723870000000 1.0
C      1  0.3782780000000  0.5090110000000  0.5303370000000 1.0
C      1  0.4562920000000  0.5032930000000  0.3950140000000 1.0
C      1  0.4559950000000  0.4627910000000  0.4578070000000 1.0
C      1  0.4965560000000  0.6162630000000  0.5413130000000 1.0
C      1  0.5791770000000  0.4492340000000  0.5643080000000 1.0
C      1  0.4486590000000  0.5331310000000  0.5150610000000 1.0
C      1  0.4992740000000  0.4321770000000  0.5970550000000 1.0
C      1  0.5771570000000  0.5774180000000  0.5142400000000 1.0
C      1  0.5452180000000  0.4826690000000  0.4002270000000 1.0
C      1  0.5809990000000  0.4650730000000  0.4788330000000 1.0
C      1  0.4791880000000  0.5939170000000  0.5131080000000 1.0
C      1  0.4891920000000  0.5039670000000  0.5669200000000 1.0
C      1  0.5193440000000  0.5311580000000  0.4085140000000 1.0
C      1  0.4231300000000  0.3825280000000  0.5283030000000 1.0
C      1  0.5238770000000  0.5971920000000  0.5909810000000 1.0
C      1  0.5876690000000  0.5111100000000  0.4256950000000 1.0
C      1  0.5183940000000  0.5633270000000  0.4082890000000 1.0
C      1  0.4566070000000  0.4778290000000  0.3814140000000 1.0
C      1  0.4702520000000  0.5063340000000  0.4362760000000 1.0
C      1  0.5734000000000  0.4279690000000  0.5158440000000 1.0
C      1  0.4735180000000  0.4208990000000  0.5829100000000 1.0
C      1  0.5974490000000  0.5353190000000  0.4947790000000 1.0
C      1  0.5231300000000  0.5957530000000  0.4529910000000 1.0
C      1  0.4912010000000  0.5650660000000  0.5122550000000 1.0
C      1  0.5172580000000  0.3992990000000  0.5228870000000 1.0
C      1  0.5585900000000  0.4980460000000  0.5459260000000 1.0
C      1  0.4550320000000  0.4804960000000  0.5604780000000 1.0
C      1  0.5004860000000  0.4666800000000  0.4024470000000 1.0
C      1  0.5798970000000  0.5073080000000  0.5707980000000 1.0
C      1  0.4178340000000  0.5579350000000  0.4805930000000 1.0
C      1  0.4134420000000  0.5305090000000  0.5589480000000 1.0
C      1  0.4438180000000  0.5024120000000  0.5290130000000 1.0
C      1  0.5583440000000  0.4973070000000  0.4272060000000 1.0
C      1  0.5422440000000  0.5055540000000  0.4743130000000 1.0
C      1  0.4798330000000  0.5109050000000  0.6138550000000 1.0
C      1  0.5184380000000  0.6259150000000  0.4602290000000 1.0
C      1  0.5330590000000  0.4891710000000  0.5253680000000 1.0
C      1  0.5692410000000  0.4755830000000  0.5695570000000 1.0
C      1  0.4973040000000  0.4578800000000  0.6090500000000 1.0
C      1  0.4330630000000  0.4439230000000  0.4244580000000 1.0
C      1  0.4530660000000  0.5121510000000  0.4915270000000 1.0
C      1  0.4807180000000  0.4824500000000  0.6182300000000 1.0
C      1  0.5053770000000  0.4813580000000  0.5869280000000 1.0
C      1  0.5491530000000  0.4183580000000  0.4476670000000 1.0
C      1  0.5800010000000  0.5732500000000  0.4610980000000 1.0
C      1  0.5034560000000  0.5281270000000  0.4884860000000 1.0
C      1  0.5665020000000  0.5616930000000  0.4335020000000 1.0
C      1  0.4930210000000  0.5852890000000  0.4638060000000 1.0
C      1  0.5289820000000  0.5771740000000  0.4792680000000 1.0
C      1  0.4216520000000  0.4589200000000  0.4942160000000 1.0
C      1  0.5277750000000  0.4854300000000  0.4294370000000 1.0
C      1  0.5237900000000  0.5628780000000  0.5091360000000 1.0
C      1  0.5508430000000  0.5489130000000  0.4965270000000 1.0
C      1  0.5404200000000  0.5268930000000  0.5435490000000 1.0
C      1  0.5212900000000  0.5560740000000  0.4535140000000 1.0
C      1  0.4774390000000  0.5037590000000  0.5348870000000 1.0
C      1  0.4559530000000  0.4401980000000  0.4102180000000 1.0
C      1  0.5002330000000  0.4586990000000  0.5229680000000 1.0
C      1  0.4897770000000  0.4272550000000  0.5307740000000 1.0
C      1  0.4777840000000  0.3887040000000  0.4792060000000 1.0
C      1  0.5188120000000  0.4398880000000  0.4124280000000 1.0
C      1  0.5420230000000  0.5366130000000  0.4703170000000 1.0
C      1  0.5181280000000  0.5439570000000  0.5343740000000 1.0
C      1  0.5154350000000  0.4948810000000  0.3900800000000 1.0
C      1  0.5646270000000  0.4263690000000  0.5487600000000 1.0
END
