TITL C-2778426-5645-713 -0.000378757623613266 125000 -168.87926606299 0 0 31 (C1) n - 1
REM
REM in /home/nfs/bkarasulu/CARBON/AIRSS/Generating-Clusters/REBO/Only-C1/SD-CG/HFTN-CG
REM
REM
REM
REM
REM
REM ./C.cell (11c1c37f851c82e70ff6c80c92926a4b)
REM
REM compiler GCC version 9.2.1 20190827 (Red Hat 9.2.1-1)
REM options -cpp -mtune=generic -march=x86-64 -g -O0 -fpre-include=/usr/include/finclude/math-vector-fortran.h
REM seed 810160007 -1809080571 547927651 650083295 -208866528 586703379 1403540214 1751441444 1272317482 -1664617753 -2085487164 1656757088 866007563 -876085329 208572454 -2094481530 -1326183781 -961007104 127659320 -269716288 1940931954 1675441033 -824345437 -566354052 498259871 -1970407463 -1831663050 1091455104 977165177 -319846508 666829535 -729146620 -1875287900
REM
CELL 1.54180   50.00000   50.00000   50.00000   90.00000   90.00000   90.00000
LATT -1
SFAC C  
C      1  0.4906080000000  0.5411880000000  0.4954060000000 1.0
C      1  0.4543970000000  0.4504920000000  0.5024630000000 1.0
C      1  0.5464530000000  0.5355610000000  0.5436310000000 1.0
C      1  0.5290790000000  0.5312820000000  0.5225880000000 1.0
C      1  0.4797880000000  0.4970490000000  0.4773550000000 1.0
C      1  0.4476430000000  0.5338910000000  0.4731800000000 1.0
C      1  0.5338210000000  0.4678260000000  0.5247410000000 1.0
C      1  0.5028620000000  0.5413820000000  0.5210540000000 1.0
C      1  0.4522310000000  0.5149520000000  0.5174870000000 1.0
C      1  0.5289310000000  0.5216310000000  0.4748930000000 1.0
C      1  0.5114530000000  0.4345640000000  0.4524070000000 1.0
C      1  0.4822440000000  0.4502680000000  0.5015590000000 1.0
C      1  0.5183450000000  0.5743560000000  0.4728170000000 1.0
C      1  0.5773710000000  0.4826660000000  0.5532170000000 1.0
C      1  0.5217540000000  0.4852420000000  0.5060690000000 1.0
C      1  0.4608020000000  0.5287110000000  0.5404860000000 1.0
C      1  0.5223850000000  0.4420980000000  0.5276470000000 1.0
C      1  0.5029920000000  0.5519360000000  0.4721890000000 1.0
C      1  0.5051940000000  0.4529520000000  0.4689590000000 1.0
C      1  0.4344530000000  0.4673280000000  0.5097330000000 1.0
C      1  0.4989500000000  0.4333160000000  0.5165690000000 1.0
C      1  0.5562780000000  0.4754780000000  0.5394240000000 1.0
C      1  0.5003950000000  0.5358860000000  0.4488700000000 1.0
C      1  0.5649160000000  0.5066990000000  0.5012890000000 1.0
C      1  0.4344600000000  0.4934640000000  0.5168790000000 1.0
C      1  0.4850180000000  0.5414600000000  0.5430960000000 1.0
C      1  0.5367460000000  0.5114900000000  0.5003490000000 1.0
C      1  0.4664810000000  0.5219540000000  0.4911490000000 1.0
C      1  0.4671330000000  0.4883750000000  0.4468420000000 1.0
C      1  0.4894820000000  0.5104540000000  0.4479070000000 1.0
C      1  0.4973340000000  0.4760480000000  0.4897460000000 1.0
END
