TITL C-2778427-5640-204 -0.00785676676632188 125000 -850.223975487633 0 0 149 (C1) n - 1
REM
REM in /home/nfs/bkarasulu/CARBON/AIRSS/Generating-Clusters/REBO/Only-C1/SD-CG/HFTN-CG
REM
REM
REM
REM
REM
REM ./C.cell (11c1c37f851c82e70ff6c80c92926a4b)
REM
REM compiler GCC version 9.2.1 20190827 (Red Hat 9.2.1-1)
REM options -cpp -mtune=generic -march=x86-64 -g -O0 -fpre-include=/usr/include/finclude/math-vector-fortran.h
REM seed -1769601009 -871242513 -1507174560 -327141514 500928986 881270431 1539677432 905348481 700768200 891038765 -778605153 305712658 460810131 861225504 521054273 -1306582127 -1693895021 -1982575256 134341028 1826505664 141988815 255003900 739519296 -558801477 1597882121 -1953388529 -1471123898 -672745340 -797629096 1113837788 15848686 -1751191745 1984170605
REM
CELL 1.54180   50.00000   50.00000   50.00000   90.00000   90.00000   90.00000
LATT -1
SFAC C  
C      1  0.5088930000000  0.4923650000000  0.5922640000000 1.0
C      1  0.5051300000000  0.4449790000000  0.4637760000000 1.0
C      1  0.4974750000000  0.4669730000000  0.5772020000000 1.0
C      1  0.4660310000000  0.4664640000000  0.4361230000000 1.0
C      1  0.5424840000000  0.4776250000000  0.5205860000000 1.0
C      1  0.4670980000000  0.5254520000000  0.4194160000000 1.0
C      1  0.4925080000000  0.5940500000000  0.4516790000000 1.0
C      1  0.4837430000000  0.5315650000000  0.5405970000000 1.0
C      1  0.5623230000000  0.4553860000000  0.5580240000000 1.0
C      1  0.3947800000000  0.5133210000000  0.4971690000000 1.0
C      1  0.5219050000000  0.5200970000000  0.5423380000000 1.0
C      1  0.5570650000000  0.4250510000000  0.4522160000000 1.0
C      1  0.4652850000000  0.4945250000000  0.4529570000000 1.0
C      1  0.5059640000000  0.5468680000000  0.5272190000000 1.0
C      1  0.4141020000000  0.4373540000000  0.4639210000000 1.0
C      1  0.4861570000000  0.4666530000000  0.4166560000000 1.0
C      1  0.4924430000000  0.4666760000000  0.4842880000000 1.0
C      1  0.5848500000000  0.4470130000000  0.5338950000000 1.0
C      1  0.4192190000000  0.4702240000000  0.5384160000000 1.0
C      1  0.5060520000000  0.5309690000000  0.4141830000000 1.0
C      1  0.5164450000000  0.5313720000000  0.5929530000000 1.0
C      1  0.4779490000000  0.5869870000000  0.5276300000000 1.0
C      1  0.4598340000000  0.4395070000000  0.4459630000000 1.0
C      1  0.4667240000000  0.4699200000000  0.5777060000000 1.0
C      1  0.4532780000000  0.4546890000000  0.5523190000000 1.0
C      1  0.4833240000000  0.4249960000000  0.4542810000000 1.0
C      1  0.5159750000000  0.4908240000000  0.5588610000000 1.0
C      1  0.4318730000000  0.5690860000000  0.5557620000000 1.0
C      1  0.4113620000000  0.5608410000000  0.4929950000000 1.0
C      1  0.5773470000000  0.4832360000000  0.5615090000000 1.0
C      1  0.4279510000000  0.4488600000000  0.5209210000000 1.0
C      1  0.4898550000000  0.5399810000000  0.4510540000000 1.0
C      1  0.4737250000000  0.4906180000000  0.5549890000000 1.0
C      1  0.5735520000000  0.5195420000000  0.4716980000000 1.0
C      1  0.5013740000000  0.4383130000000  0.5691620000000 1.0
C      1  0.5525530000000  0.4879490000000  0.4106350000000 1.0
C      1  0.5430160000000  0.4740780000000  0.4825400000000 1.0
C      1  0.4400150000000  0.4849890000000  0.5008280000000 1.0
C      1  0.4794870000000  0.5530880000000  0.4150410000000 1.0
C      1  0.4385930000000  0.4000240000000  0.5122630000000 1.0
C      1  0.4858950000000  0.6002210000000  0.4825940000000 1.0
C      1  0.4487520000000  0.4963470000000  0.5318780000000 1.0
C      1  0.4675470000000  0.4562170000000  0.4986320000000 1.0
C      1  0.4446660000000  0.4875650000000  0.5926760000000 1.0
C      1  0.4573810000000  0.5065600000000  0.6082740000000 1.0
C      1  0.5435200000000  0.4222000000000  0.4895390000000 1.0
C      1  0.5385720000000  0.5355630000000  0.5672440000000 1.0
C      1  0.4460510000000  0.4477800000000  0.4853600000000 1.0
C      1  0.5901030000000  0.5129330000000  0.5507240000000 1.0
C      1  0.5913150000000  0.4980020000000  0.5197020000000 1.0
C      1  0.4144390000000  0.4539280000000  0.4913220000000 1.0
C      1  0.5264000000000  0.5650270000000  0.5141840000000 1.0
C      1  0.5248910000000  0.5071730000000  0.4044770000000 1.0
C      1  0.5892210000000  0.5216220000000  0.4248090000000 1.0
C      1  0.4575210000000  0.4238520000000  0.5579900000000 1.0
C      1  0.4897140000000  0.3901840000000  0.5714060000000 1.0
C      1  0.5830050000000  0.5593110000000  0.5163330000000 1.0
C      1  0.4247910000000  0.5538510000000  0.4522140000000 1.0
C      1  0.5727040000000  0.5377090000000  0.5666780000000 1.0
C      1  0.5079730000000  0.5894010000000  0.5370150000000 1.0
C      1  0.5240180000000  0.5907950000000  0.5853750000000 1.0
C      1  0.5259770000000  0.5966510000000  0.4533030000000 1.0
C      1  0.4878440000000  0.5172570000000  0.5690870000000 1.0
C      1  0.5107600000000  0.5123410000000  0.4857110000000 1.0
C      1  0.5650360000000  0.5615720000000  0.5440060000000 1.0
C      1  0.4898250000000  0.5054610000000  0.4309390000000 1.0
C      1  0.5363940000000  0.4277810000000  0.5283900000000 1.0
C      1  0.5399180000000  0.5777330000000  0.5401640000000 1.0
C      1  0.5118370000000  0.5800480000000  0.4272230000000 1.0
C      1  0.5617820000000  0.5253730000000  0.4434380000000 1.0
C      1  0.4762650000000  0.5113560000000  0.5219430000000 1.0
C      1  0.4119900000000  0.5340950000000  0.5144670000000 1.0
C      1  0.4476010000000  0.5706180000000  0.4509760000000 1.0
C      1  0.4292250000000  0.4744080000000  0.5665060000000 1.0
C      1  0.5989580000000  0.5122650000000  0.4911930000000 1.0
C      1  0.4610470000000  0.5338640000000  0.4579950000000 1.0
C      1  0.4834590000000  0.4223380000000  0.5259990000000 1.0
C      1  0.5556360000000  0.4491040000000  0.5191580000000 1.0
C      1  0.4729740000000  0.5739380000000  0.4343430000000 1.0
C      1  0.5807730000000  0.4933370000000  0.4289110000000 1.0
C      1  0.5307130000000  0.4623880000000  0.5474080000000 1.0
C      1  0.5140470000000  0.5909860000000  0.4993810000000 1.0
C      1  0.5357530000000  0.5308890000000  0.4732620000000 1.0
C      1  0.5531110000000  0.5050710000000  0.5630850000000 1.0
C      1  0.4931470000000  0.4762800000000  0.5317860000000 1.0
C      1  0.5505190000000  0.4503090000000  0.4380960000000 1.0
C      1  0.4338760000000  0.5395000000000  0.5598690000000 1.0
C      1  0.5556620000000  0.4757590000000  0.4545270000000 1.0
C      1  0.5148830000000  0.4777520000000  0.4024870000000 1.0
C      1  0.4018470000000  0.4808790000000  0.4920240000000 1.0
C      1  0.4587730000000  0.5803260000000  0.5501690000000 1.0
C      1  0.4131260000000  0.5235610000000  0.4418450000000 1.0
C      1  0.4285210000000  0.4055060000000  0.4304070000000 1.0
C      1  0.4676360000000  0.4972070000000  0.4966290000000 1.0
C      1  0.5626370000000  0.4382100000000  0.5803150000000 1.0
C      1  0.5265320000000  0.4468640000000  0.4878350000000 1.0
C      1  0.4397370000000  0.5772660000000  0.4983680000000 1.0
C      1  0.5419380000000  0.4571470000000  0.4073210000000 1.0
C      1  0.5591550000000  0.4993560000000  0.5300730000000 1.0
C      1  0.5430330000000  0.5009790000000  0.4393490000000 1.0
C      1  0.5496320000000  0.5036790000000  0.4886620000000 1.0
C      1  0.4660910000000  0.5496360000000  0.5613390000000 1.0
C      1  0.5038710000000  0.5663670000000  0.4780700000000 1.0
C      1  0.5246260000000  0.5553680000000  0.4205520000000 1.0
C      1  0.5889320000000  0.5441770000000  0.4872930000000 1.0
C      1  0.4699910000000  0.5644190000000  0.4756890000000 1.0
C      1  0.4974300000000  0.5504590000000  0.5729020000000 1.0
C      1  0.4257100000000  0.5189050000000  0.5398500000000 1.0
C      1  0.5861930000000  0.4821900000000  0.4587270000000 1.0
C      1  0.5434590000000  0.5930230000000  0.4823240000000 1.0
C      1  0.4935480000000  0.3789400000000  0.5463210000000 1.0
C      1  0.5179390000000  0.4576020000000  0.4391790000000 1.0
C      1  0.5711860000000  0.5311530000000  0.5286150000000 1.0
C      1  0.4295220000000  0.3786080000000  0.5017620000000 1.0
C      1  0.5104470000000  0.5772000000000  0.5665400000000 1.0
C      1  0.5376460000000  0.4039000000000  0.5121850000000 1.0
C      1  0.5086270000000  0.4378930000000  0.5389000000000 1.0
C      1  0.5460300000000  0.5491570000000  0.4974570000000 1.0
C      1  0.4676920000000  0.4615870000000  0.5261950000000 1.0
C      1  0.4334470000000  0.4273770000000  0.4459030000000 1.0
C      1  0.5143020000000  0.4879340000000  0.4419680000000 1.0
C      1  0.4811610000000  0.4175220000000  0.5727480000000 1.0
C      1  0.5134290000000  0.4701870000000  0.5095370000000 1.0
C      1  0.5838900000000  0.4503800000000  0.4999880000000 1.0
C      1  0.5103690000000  0.4442170000000  0.4086870000000 1.0
C      1  0.5316660000000  0.5209700000000  0.5114150000000 1.0
C      1  0.5347850000000  0.4069230000000  0.4515920000000 1.0
C      1  0.4375080000000  0.5017980000000  0.4711760000000 1.0
C      1  0.5460500000000  0.5699590000000  0.4576950000000 1.0
C      1  0.4643430000000  0.5270880000000  0.4877320000000 1.0
C      1  0.4873230000000  0.5151350000000  0.6017770000000 1.0
C      1  0.4956400000000  0.4929820000000  0.4684030000000 1.0
C      1  0.4495750000000  0.4259540000000  0.5249770000000 1.0
C      1  0.5382650000000  0.5050190000000  0.5918880000000 1.0
C      1  0.5072680000000  0.4069290000000  0.4516640000000 1.0
C      1  0.4438360000000  0.5438930000000  0.5053000000000 1.0
C      1  0.4037660000000  0.5030190000000  0.4659450000000 1.0
C      1  0.4939960000000  0.5364930000000  0.4906610000000 1.0
C      1  0.4084260000000  0.4951220000000  0.5226530000000 1.0
C      1  0.4264050000000  0.5333640000000  0.4777400000000 1.0
C      1  0.4424580000000  0.5224810000000  0.4353880000000 1.0
C      1  0.5134230000000  0.5361620000000  0.4536880000000 1.0
C      1  0.4898330000000  0.3950030000000  0.5240570000000 1.0
C      1  0.5934100000000  0.4785710000000  0.4913970000000 1.0
C      1  0.4622440000000  0.5949260000000  0.5002520000000 1.0
C      1  0.5710710000000  0.4290330000000  0.4793420000000 1.0
C      1  0.5469100000000  0.5509820000000  0.4376890000000 1.0
C      1  0.4799010000000  0.5603010000000  0.5085850000000 1.0
C      1  0.5685630000000  0.5714800000000  0.4891450000000 1.0
END
