TITL C-2778427-5640-341 -0.000566271178675831 125000 -179.234357993624 0 0 33 (C1) n - 1
REM
REM in /home/nfs/bkarasulu/CARBON/AIRSS/Generating-Clusters/REBO/Only-C1/SD-CG/HFTN-CG
REM
REM
REM
REM
REM
REM ./C.cell (11c1c37f851c82e70ff6c80c92926a4b)
REM
REM compiler GCC version 9.2.1 20190827 (Red Hat 9.2.1-1)
REM options -cpp -mtune=generic -march=x86-64 -g -O0 -fpre-include=/usr/include/finclude/math-vector-fortran.h
REM seed 888843811 -125141222 1114927591 -840667677 -1087434466 -1804922904 65236838 -863716620 565915333 1069856172 -652224488 -806488364 -899211397 1697035162 427288175 -1575654541 1291873443 -386027256 1972112666 -951456702 -174303583 594604030 1884808663 1181629361 -402841893 2061503417 -949651478 590906256 -1769385108 -28135744 -520349905 941030823 1725013890
REM
CELL 1.54180   50.00000   50.00000   50.00000   90.00000   90.00000   90.00000
LATT -1
SFAC C  
C      1  0.6082380000000  0.5587960000000  0.4711270000000 1.0
C      1  0.4391630000000  0.5128230000000  0.5370520000000 1.0
C      1  0.4554720000000  0.5359100000000  0.5363710000000 1.0
C      1  0.6129030000000  0.5373930000000  0.4951440000000 1.0
C      1  0.5086160000000  0.3496570000000  0.5407950000000 1.0
C      1  0.5477490000000  0.5082680000000  0.5290900000000 1.0
C      1  0.5119250000000  0.5643970000000  0.4964520000000 1.0
C      1  0.5156940000000  0.4996570000000  0.4623560000000 1.0
C      1  0.4754890000000  0.4401530000000  0.4969830000000 1.0
C      1  0.4774550000000  0.5355340000000  0.5177180000000 1.0
C      1  0.4837480000000  0.4175920000000  0.5079050000000 1.0
C      1  0.5004150000000  0.3720610000000  0.5299490000000 1.0
C      1  0.4751920000000  0.4726020000000  0.4532450000000 1.0
C      1  0.4445970000000  0.4630710000000  0.4596280000000 1.0
C      1  0.5100530000000  0.5079360000000  0.4918150000000 1.0
C      1  0.4845140000000  0.5108260000000  0.5039000000000 1.0
C      1  0.4898340000000  0.5609350000000  0.5131910000000 1.0
C      1  0.4502110000000  0.5583830000000  0.5520240000000 1.0
C      1  0.4972890000000  0.4856470000000  0.4473170000000 1.0
C      1  0.4435210000000  0.4915260000000  0.5204750000000 1.0
C      1  0.4660220000000  0.4660160000000  0.4844610000000 1.0
C      1  0.4796100000000  0.5827310000000  0.5261830000000 1.0
C      1  0.4206340000000  0.4418470000000  0.4480750000000 1.0
C      1  0.4452680000000  0.5795020000000  0.5667330000000 1.0
C      1  0.5403370000000  0.5144660000000  0.5037060000000 1.0
C      1  0.5550580000000  0.5375110000000  0.4847260000000 1.0
C      1  0.4123940000000  0.4707630000000  0.4517550000000 1.0
C      1  0.4920810000000  0.3948260000000  0.5189270000000 1.0
C      1  0.6291720000000  0.5248010000000  0.5116790000000 1.0
C      1  0.5833100000000  0.5428760000000  0.4839410000000 1.0
C      1  0.5358740000000  0.5614440000000  0.4848810000000 1.0
C      1  0.5428610000000  0.5103610000000  0.4697440000000 1.0
C      1  0.4653010000000  0.4896870000000  0.5026540000000 1.0
END
