TITL C-2778422-5617-1421 -0.00348752076261254 125000 -524.34954900833 0 0 91 (C1) n - 1
REM
REM in /home/nfs/bkarasulu/CARBON/AIRSS/Generating-Clusters/REBO/Only-C1/SD-CG/HFTN-CG
REM
REM
REM
REM
REM
REM ./C.cell (11c1c37f851c82e70ff6c80c92926a4b)
REM
REM compiler GCC version 9.2.1 20190827 (Red Hat 9.2.1-1)
REM options -cpp -mtune=generic -march=x86-64 -g -O0 -fpre-include=/usr/include/finclude/math-vector-fortran.h
REM seed 859265455 722855689 296516352 -1510106774 -1080083297 448442397 -923170010 1210255553 -1957105150 -366948656 1244007746 -1461009498 -984634462 1913867566 1694437495 1982787374 1984906950 -63284366 -2017513611 490754891 -224218222 49597286 1480485546 1707517472 -1225075308 -1981962915 -1311173546 1363505059 -613254899 -1927664056 460455174 -1023845245 -78046997
REM
CELL 1.54180   50.00000   50.00000   50.00000   90.00000   90.00000   90.00000
LATT -1
SFAC C  
C      1  0.5706840000000  0.5550750000000  0.4714800000000 1.0
C      1  0.5777220000000  0.4704680000000  0.5380170000000 1.0
C      1  0.5888120000000  0.5116520000000  0.5048950000000 1.0
C      1  0.4992170000000  0.5056620000000  0.5390200000000 1.0
C      1  0.5762200000000  0.4949110000000  0.5241980000000 1.0
C      1  0.4588150000000  0.4703380000000  0.5198290000000 1.0
C      1  0.4097320000000  0.5067860000000  0.5056230000000 1.0
C      1  0.5599160000000  0.4233360000000  0.5406370000000 1.0
C      1  0.4943630000000  0.5571980000000  0.4931210000000 1.0
C      1  0.4233180000000  0.4873250000000  0.5470260000000 1.0
C      1  0.5501170000000  0.4379520000000  0.5684190000000 1.0
C      1  0.4902960000000  0.5495250000000  0.5436720000000 1.0
C      1  0.4436010000000  0.5635220000000  0.4950280000000 1.0
C      1  0.5120660000000  0.4989340000000  0.4534020000000 1.0
C      1  0.5140120000000  0.4932670000000  0.5649720000000 1.0
C      1  0.4940090000000  0.4394840000000  0.4577740000000 1.0
C      1  0.4452980000000  0.5421180000000  0.5282870000000 1.0
C      1  0.5574730000000  0.5538230000000  0.5137090000000 1.0
C      1  0.5485470000000  0.5061970000000  0.5284490000000 1.0
C      1  0.4430590000000  0.5734420000000  0.5246570000000 1.0
C      1  0.4493880000000  0.4591780000000  0.4712310000000 1.0
C      1  0.5790130000000  0.5386060000000  0.5069460000000 1.0
C      1  0.4671610000000  0.5669690000000  0.4798540000000 1.0
C      1  0.4978240000000  0.5074500000000  0.5997860000000 1.0
C      1  0.4254280000000  0.4993810000000  0.4816220000000 1.0
C      1  0.4656400000000  0.4366140000000  0.4595190000000 1.0
C      1  0.5354990000000  0.5407990000000  0.5633940000000 1.0
C      1  0.5188980000000  0.4703400000000  0.4690050000000 1.0
C      1  0.4118900000000  0.4595450000000  0.5102100000000 1.0
C      1  0.5624520000000  0.5287930000000  0.4564980000000 1.0
C      1  0.4484430000000  0.5152380000000  0.4532340000000 1.0
C      1  0.5293330000000  0.4669720000000  0.5546030000000 1.0
C      1  0.5187320000000  0.4658520000000  0.5014420000000 1.0
C      1  0.5103980000000  0.4170110000000  0.5346390000000 1.0
C      1  0.5613160000000  0.4695330000000  0.5644780000000 1.0
C      1  0.4206920000000  0.5268480000000  0.4372900000000 1.0
C      1  0.5132640000000  0.4355420000000  0.5089320000000 1.0
C      1  0.4552210000000  0.5115580000000  0.4846780000000 1.0
C      1  0.5138320000000  0.5755360000000  0.4532530000000 1.0
C      1  0.4271580000000  0.4795970000000  0.4600730000000 1.0
C      1  0.4675020000000  0.5330500000000  0.5428620000000 1.0
C      1  0.5303110000000  0.4102620000000  0.5486870000000 1.0
C      1  0.5102690000000  0.5203190000000  0.5156100000000 1.0
C      1  0.5349260000000  0.4741440000000  0.4328880000000 1.0
C      1  0.5722740000000  0.5027740000000  0.4593360000000 1.0
C      1  0.5092760000000  0.5474790000000  0.5641970000000 1.0
C      1  0.5077040000000  0.5224580000000  0.4109640000000 1.0
C      1  0.4707240000000  0.5035670000000  0.5550000000000 1.0
C      1  0.5930800000000  0.5007110000000  0.4787620000000 1.0
C      1  0.4391120000000  0.4553590000000  0.5021570000000 1.0
C      1  0.5451630000000  0.4864940000000  0.4938230000000 1.0
C      1  0.5037500000000  0.4164790000000  0.5778850000000 1.0
C      1  0.5234610000000  0.4844250000000  0.5273310000000 1.0
C      1  0.5163060000000  0.4403630000000  0.5717210000000 1.0
C      1  0.4529060000000  0.4129740000000  0.4527480000000 1.0
C      1  0.4265970000000  0.5343400000000  0.5008520000000 1.0
C      1  0.4069170000000  0.4849140000000  0.5235730000000 1.0
C      1  0.5185600000000  0.5601700000000  0.4752920000000 1.0
C      1  0.5035890000000  0.4625100000000  0.4394240000000 1.0
C      1  0.4969350000000  0.4663530000000  0.5772660000000 1.0
C      1  0.5131700000000  0.4312950000000  0.4753420000000 1.0
C      1  0.4938940000000  0.5943650000000  0.5248590000000 1.0
C      1  0.4512690000000  0.4845140000000  0.5426170000000 1.0
C      1  0.4818220000000  0.5303570000000  0.4864860000000 1.0
C      1  0.5009320000000  0.5671920000000  0.5210990000000 1.0
C      1  0.4950480000000  0.5521420000000  0.4157080000000 1.0
C      1  0.4924140000000  0.4983200000000  0.4808110000000 1.0
C      1  0.4676130000000  0.4805250000000  0.4903570000000 1.0
C      1  0.4655440000000  0.5671300000000  0.4511960000000 1.0
C      1  0.4876320000000  0.5202050000000  0.4544760000000 1.0
C      1  0.4420540000000  0.5531550000000  0.4429200000000 1.0
C      1  0.5410230000000  0.5402410000000  0.4798850000000 1.0
C      1  0.5570550000000  0.4549090000000  0.4980860000000 1.0
C      1  0.5431770000000  0.4322300000000  0.4829800000000 1.0
C      1  0.4788680000000  0.4920600000000  0.5832590000000 1.0
C      1  0.4526030000000  0.5240830000000  0.4144930000000 1.0
C      1  0.4231130000000  0.4931210000000  0.4326590000000 1.0
C      1  0.4561700000000  0.4897330000000  0.4345020000000 1.0
C      1  0.5328540000000  0.5628270000000  0.5193360000000 1.0
C      1  0.5437540000000  0.4200970000000  0.5124380000000 1.0
C      1  0.5204790000000  0.5003620000000  0.4216580000000 1.0
C      1  0.4908780000000  0.5712890000000  0.4367330000000 1.0
C      1  0.5519040000000  0.4981700000000  0.5764390000000 1.0
C      1  0.5358870000000  0.5182850000000  0.5001560000000 1.0
C      1  0.5704000000000  0.4481860000000  0.5222610000000 1.0
C      1  0.4776940000000  0.5266200000000  0.4256670000000 1.0
C      1  0.4792450000000  0.4780660000000  0.4295320000000 1.0
C      1  0.5274430000000  0.5024580000000  0.5945470000000 1.0
C      1  0.5498200000000  0.5180680000000  0.5562180000000 1.0
C      1  0.4275530000000  0.5373430000000  0.4694140000000 1.0
C      1  0.5504650000000  0.4811280000000  0.4605820000000 1.0
END
