TITL C-2778436-5916-1351 -0.00011815770037238 125000 -117.717472489308 0 0 23 (C1) n - 1
REM
REM in /home/nfs/bkarasulu/CARBON/AIRSS/Generating-Clusters/REBO/Only-C1/SD-CG/HFTN-CG
REM
REM
REM
REM
REM
REM ./C.cell (11c1c37f851c82e70ff6c80c92926a4b)
REM
REM compiler GCC version 9.2.1 20190827 (Red Hat 9.2.1-1)
REM options -cpp -mtune=generic -march=x86-64 -g -O0 -fpre-include=/usr/include/finclude/math-vector-fortran.h
REM seed 199431284 1480874859 -55187296 826860346 379856768 1733291133 1523828668 125314480 -922440347 1388948382 1700099120 -315255158 1537075536 -1419166589 1490020660 -1972940507 234363138 -672693999 1460110632 -353738103 1611704356 1349853259 -1110030319 -325056162 -1828300089 -516677923 660507386 1611876966 38822468 -1329027332 -471060596 1391322156 1652678752
REM
CELL 1.54180   50.00000   50.00000   50.00000   90.00000   90.00000   90.00000
LATT -1
SFAC C  
C      1  0.5153570000000  0.5237130000000  0.4745420000000 1.0
C      1  0.4813770000000  0.4248940000000  0.5316370000000 1.0
C      1  0.5300310000000  0.4465000000000  0.4659940000000 1.0
C      1  0.5355800000000  0.4237690000000  0.4537790000000 1.0
C      1  0.4693360000000  0.4545620000000  0.5486480000000 1.0
C      1  0.5147210000000  0.4979160000000  0.5242350000000 1.0
C      1  0.5201990000000  0.4683570000000  0.5219550000000 1.0
C      1  0.5157930000000  0.5089090000000  0.4283200000000 1.0
C      1  0.4964850000000  0.4532170000000  0.5315730000000 1.0
C      1  0.5080200000000  0.5450110000000  0.5075110000000 1.0
C      1  0.4730160000000  0.5354110000000  0.5434690000000 1.0
C      1  0.4987500000000  0.5492770000000  0.4749140000000 1.0
C      1  0.5247480000000  0.5163710000000  0.5025280000000 1.0
C      1  0.5185770000000  0.5035020000000  0.4548220000000 1.0
C      1  0.5243800000000  0.4628340000000  0.4927800000000 1.0
C      1  0.4780890000000  0.5550130000000  0.5203430000000 1.0
C      1  0.4767940000000  0.5633280000000  0.4907890000000 1.0
C      1  0.4584710000000  0.5813180000000  0.4802150000000 1.0
C      1  0.5433760000000  0.4612860000000  0.5369580000000 1.0
C      1  0.4539320000000  0.4260510000000  0.5488320000000 1.0
C      1  0.4981560000000  0.5224180000000  0.5313120000000 1.0
C      1  0.5236320000000  0.4780470000000  0.4646070000000 1.0
C      1  0.4411790000000  0.5982960000000  0.4702360000000 1.0
END
