TITL C-2778430-5657-1347 -0.000639988617653737 125000 -486.368379387408 0 0 85 (C1) n - 1
REM
REM in /home/nfs/bkarasulu/CARBON/AIRSS/Generating-Clusters/REBO/Only-C1/SD-CG/HFTN-CG
REM
REM
REM
REM
REM
REM ./C.cell (11c1c37f851c82e70ff6c80c92926a4b)
REM
REM compiler GCC version 9.2.1 20190827 (Red Hat 9.2.1-1)
REM options -cpp -mtune=generic -march=x86-64 -g -O0 -fpre-include=/usr/include/finclude/math-vector-fortran.h
REM seed 878837896 -1404510459 1485948735 -987718754 1899508960 206406337 1611900009 2122518394 466808488 -2102281422 1101134799 1588852730 1917512837 -1965772562 1951129795 1391727338 -253050121 -2024160541 -1876751850 -146987906 -1982809504 216171195 1391236365 -1596054621 1462988321 -1501359201 -411435186 1931315167 1809454988 -1745470899 -904572751 -622593627 -1672415607
REM
CELL 1.54180   50.00000   50.00000   50.00000   90.00000   90.00000   90.00000
LATT -1
SFAC C  
C      1  0.4301740000000  0.5178860000000  0.5136350000000 1.0
C      1  0.5345150000000  0.5648360000000  0.5351400000000 1.0
C      1  0.5051180000000  0.5139230000000  0.5068390000000 1.0
C      1  0.5128470000000  0.4585490000000  0.5403150000000 1.0
C      1  0.4368280000000  0.5008510000000  0.5680210000000 1.0
C      1  0.4733220000000  0.4858480000000  0.5330600000000 1.0
C      1  0.5777130000000  0.4970960000000  0.4850950000000 1.0
C      1  0.5260360000000  0.5670770000000  0.4658400000000 1.0
C      1  0.5243150000000  0.5026930000000  0.4923620000000 1.0
C      1  0.5373770000000  0.4700210000000  0.5296600000000 1.0
C      1  0.5425290000000  0.4905610000000  0.5635840000000 1.0
C      1  0.4615980000000  0.5108720000000  0.5470820000000 1.0
C      1  0.4415680000000  0.4464640000000  0.4674990000000 1.0
C      1  0.4213980000000  0.5151500000000  0.4824280000000 1.0
C      1  0.4670780000000  0.4333140000000  0.4623300000000 1.0
C      1  0.5650740000000  0.4786310000000  0.4595620000000 1.0
C      1  0.5417620000000  0.5347820000000  0.4321900000000 1.0
C      1  0.4978890000000  0.5701540000000  0.5004130000000 1.0
C      1  0.5120120000000  0.4281860000000  0.5539460000000 1.0
C      1  0.4977320000000  0.4986260000000  0.4628330000000 1.0
C      1  0.4688830000000  0.5027340000000  0.4945230000000 1.0
C      1  0.4380550000000  0.4513220000000  0.4973750000000 1.0
C      1  0.4223020000000  0.5114950000000  0.5401200000000 1.0
C      1  0.4779680000000  0.4310080000000  0.5153920000000 1.0
C      1  0.4825450000000  0.5715630000000  0.4463130000000 1.0
C      1  0.5305860000000  0.5394980000000  0.4782070000000 1.0
C      1  0.5457940000000  0.5748550000000  0.4887170000000 1.0
C      1  0.5364240000000  0.5385120000000  0.5053670000000 1.0
C      1  0.4708500000000  0.5690280000000  0.5174720000000 1.0
C      1  0.5203260000000  0.5097710000000  0.4234650000000 1.0
C      1  0.5630920000000  0.4601460000000  0.4856210000000 1.0
C      1  0.5224770000000  0.4759940000000  0.4290010000000 1.0
C      1  0.4698510000000  0.4593450000000  0.5749760000000 1.0
C      1  0.5755300000000  0.5277370000000  0.5001090000000 1.0
C      1  0.4896780000000  0.4857510000000  0.5819530000000 1.0
C      1  0.4558010000000  0.4596100000000  0.5445910000000 1.0
C      1  0.5662400000000  0.5256090000000  0.5286110000000 1.0
C      1  0.4939090000000  0.4612490000000  0.4276730000000 1.0
C      1  0.4722320000000  0.5614420000000  0.5436060000000 1.0
C      1  0.5101030000000  0.4696280000000  0.4756400000000 1.0
C      1  0.5823730000000  0.5242980000000  0.4667960000000 1.0
C      1  0.4673960000000  0.5102600000000  0.5800580000000 1.0
C      1  0.4587720000000  0.5070430000000  0.4309420000000 1.0
C      1  0.5357420000000  0.4735150000000  0.4978990000000 1.0
C      1  0.5277680000000  0.5129380000000  0.4625680000000 1.0
C      1  0.5551730000000  0.4785930000000  0.5834450000000 1.0
C      1  0.4408050000000  0.4430440000000  0.5239700000000 1.0
C      1  0.5575890000000  0.4969670000000  0.5359740000000 1.0
C      1  0.4982040000000  0.5763490000000  0.4680020000000 1.0
C      1  0.5157260000000  0.4191520000000  0.5209110000000 1.0
C      1  0.4811000000000  0.4403980000000  0.4386490000000 1.0
C      1  0.5672620000000  0.5548630000000  0.4811480000000 1.0
C      1  0.4780550000000  0.5364880000000  0.5609240000000 1.0
C      1  0.4818250000000  0.4249220000000  0.4855590000000 1.0
C      1  0.5136380000000  0.4990340000000  0.5650340000000 1.0
C      1  0.4583850000000  0.5255640000000  0.5097820000000 1.0
C      1  0.4860310000000  0.4745470000000  0.4941220000000 1.0
C      1  0.4321420000000  0.4695330000000  0.4531140000000 1.0
C      1  0.5295860000000  0.4347610000000  0.4741910000000 1.0
C      1  0.4870930000000  0.5381140000000  0.4980410000000 1.0
C      1  0.5457990000000  0.4966130000000  0.4427000000000 1.0
C      1  0.5082620000000  0.5307220000000  0.5631840000000 1.0
C      1  0.4383700000000  0.4702530000000  0.5709130000000 1.0
C      1  0.4856900000000  0.4898730000000  0.4359060000000 1.0
C      1  0.5223340000000  0.5344100000000  0.5361620000000 1.0
C      1  0.5722700000000  0.4795220000000  0.5128780000000 1.0
C      1  0.4495580000000  0.5633390000000  0.5003200000000 1.0
C      1  0.4529710000000  0.4762930000000  0.4913440000000 1.0
C      1  0.4767690000000  0.5420350000000  0.4374750000000 1.0
C      1  0.4344690000000  0.5010510000000  0.4543440000000 1.0
C      1  0.4893220000000  0.5183190000000  0.4192480000000 1.0
C      1  0.5363220000000  0.4604680000000  0.4559920000000 1.0
C      1  0.5268330000000  0.5769400000000  0.5109160000000 1.0
C      1  0.4282140000000  0.5447130000000  0.4842570000000 1.0
C      1  0.4883150000000  0.4593630000000  0.5213190000000 1.0
C      1  0.4843090000000  0.5274820000000  0.4673100000000 1.0
C      1  0.5003940000000  0.5049310000000  0.5348650000000 1.0
C      1  0.4881260000000  0.4118480000000  0.5370340000000 1.0
C      1  0.5605020000000  0.5414160000000  0.4505030000000 1.0
C      1  0.4454390000000  0.5324690000000  0.4470320000000 1.0
C      1  0.4586400000000  0.5494290000000  0.4720680000000 1.0
C      1  0.5116100000000  0.4239190000000  0.4930380000000 1.0
C      1  0.5592640000000  0.5487900000000  0.5411380000000 1.0
C      1  0.5021110000000  0.4556370000000  0.5714470000000 1.0
C      1  0.5599080000000  0.4479680000000  0.5169130000000 1.0
END
