TITL C-2778433-5640-25 -0.1153417394361 125000 -277.626866270437 0 0 48 (C1) n - 1
REM
REM in /home/nfs/bkarasulu/CARBON/AIRSS/Generating-Clusters/REBO/Only-C1/SD-CG/HFTN-CG
REM
REM
REM
REM
REM
REM ./C.cell (11c1c37f851c82e70ff6c80c92926a4b)
REM
REM compiler GCC version 9.2.1 20190827 (Red Hat 9.2.1-1)
REM options -cpp -mtune=generic -march=x86-64 -g -O0 -fpre-include=/usr/include/finclude/math-vector-fortran.h
REM seed 1574026051 1089853079 -1328994079 227964518 959576997 1100635345 1460842944 1258672543 1599481122 2050673680 1468398565 -1086223149 1855591198 46581810 -200505010 851421633 -1774598634 1049786347 -1417374339 1777318375 1909205768 -1696824613 288505895 719163781 -878269344 -1847455180 1729596405 -1013622230 1491138967 1998727418 730230763 1730447070 1794598460
REM
CELL 1.54180   50.00000   50.00000   50.00000   90.00000   90.00000   90.00000
LATT -1
SFAC C  
C      1  0.5476680000000  0.4827290000000  0.5390830000000 1.0
C      1  0.4409550000000  0.5130240000000  0.4700270000000 1.0
C      1  0.5166980000000  0.5205080000000  0.5288790000000 1.0
C      1  0.5569200000000  0.5266810000000  0.4891280000000 1.0
C      1  0.4728740000000  0.4747250000000  0.4488620000000 1.0
C      1  0.5406010000000  0.4451260000000  0.4972060000000 1.0
C      1  0.4455250000000  0.4805530000000  0.4655070000000 1.0
C      1  0.5203970000000  0.4816620000000  0.4453630000000 1.0
C      1  0.4948990000000  0.5509230000000  0.4629000000000 1.0
C      1  0.5017990000000  0.4395580000000  0.4639450000000 1.0
C      1  0.5256560000000  0.5152670000000  0.4820390000000 1.0
C      1  0.4622470000000  0.4165350000000  0.4882140000000 1.0
C      1  0.4968620000000  0.4924390000000  0.5705270000000 1.0
C      1  0.4998580000000  0.5410700000000  0.5501980000000 1.0
C      1  0.4709020000000  0.5360840000000  0.5672720000000 1.0
C      1  0.4700120000000  0.5516110000000  0.5375070000000 1.0
C      1  0.5068380000000  0.5547550000000  0.4927680000000 1.0
C      1  0.5585620000000  0.5067510000000  0.4616200000000 1.0
C      1  0.5082590000000  0.5127870000000  0.5034270000000 1.0
C      1  0.5404560000000  0.4554280000000  0.5230540000000 1.0
C      1  0.4903020000000  0.5223800000000  0.4453770000000 1.0
C      1  0.4527180000000  0.5166200000000  0.5461150000000 1.0
C      1  0.5202150000000  0.5488380000000  0.4436440000000 1.0
C      1  0.4985400000000  0.4631990000000  0.4497050000000 1.0
C      1  0.5528120000000  0.4604140000000  0.4766580000000 1.0
C      1  0.4440010000000  0.5381440000000  0.5212180000000 1.0
C      1  0.5340040000000  0.5499960000000  0.4997280000000 1.0
C      1  0.4419220000000  0.5336750000000  0.4941330000000 1.0
C      1  0.5554280000000  0.5082290000000  0.5406610000000 1.0
C      1  0.4768110000000  0.5153410000000  0.5006350000000 1.0
C      1  0.4449850000000  0.4783380000000  0.5127520000000 1.0
C      1  0.5078540000000  0.4662900000000  0.5702740000000 1.0
C      1  0.4690400000000  0.5372230000000  0.4757500000000 1.0
C      1  0.4406450000000  0.4639530000000  0.4890700000000 1.0
C      1  0.5112590000000  0.5072660000000  0.4360590000000 1.0
C      1  0.4863490000000  0.5453100000000  0.5107930000000 1.0
C      1  0.4704500000000  0.5030120000000  0.5718110000000 1.0
C      1  0.4581040000000  0.5008930000000  0.5191950000000 1.0
C      1  0.5624600000000  0.5362900000000  0.5535800000000 1.0
C      1  0.5196300000000  0.4284270000000  0.4879540000000 1.0
C      1  0.5142890000000  0.5121760000000  0.5593140000000 1.0
C      1  0.4434130000000  0.4361150000000  0.4887890000000 1.0
C      1  0.5291070000000  0.4600430000000  0.5530600000000 1.0
C      1  0.5464790000000  0.4809690000000  0.4583380000000 1.0
C      1  0.4664640000000  0.5065780000000  0.4502580000000 1.0
C      1  0.5566560000000  0.5352680000000  0.5203910000000 1.0
C      1  0.4895890000000  0.4165500000000  0.4831250000000 1.0
C      1  0.5384880000000  0.5302460000000  0.4540870000000 1.0
END
