TITL C-2778427-5640-656 -1.67415683307787e-05 125000 -347.149111287442 0 0 62 (C1) n - 1
REM
REM in /home/nfs/bkarasulu/CARBON/AIRSS/Generating-Clusters/REBO/Only-C1/SD-CG/HFTN-CG
REM
REM
REM
REM
REM
REM ./C.cell (11c1c37f851c82e70ff6c80c92926a4b)
REM
REM compiler GCC version 9.2.1 20190827 (Red Hat 9.2.1-1)
REM options -cpp -mtune=generic -march=x86-64 -g -O0 -fpre-include=/usr/include/finclude/math-vector-fortran.h
REM seed 964436859 -1389512029 -1425881153 747352115 -723819114 -582474359 1315682445 2098130718 500350237 -549206648 8524747 -828724973 -1774991612 1729461357 1208610506 2049611959 -1799388185 -1391454659 -938069551 1927608077 -747720730 7847286 2059850044 1284423398 -947966246 563476668 625983884 355822822 -1966572853 1949335072 941211916 1589140968 1980752865
REM
CELL 1.54180   50.00000   50.00000   50.00000   90.00000   90.00000   90.00000
LATT -1
SFAC C  
C      1  0.4396180000000  0.4613850000000  0.5083350000000 1.0
C      1  0.5031160000000  0.5534800000000  0.4684190000000 1.0
C      1  0.5047210000000  0.4785920000000  0.5033080000000 1.0
C      1  0.4600960000000  0.4707490000000  0.5451240000000 1.0
C      1  0.4751100000000  0.5482120000000  0.4785950000000 1.0
C      1  0.5005650000000  0.5036950000000  0.4804920000000 1.0
C      1  0.4894380000000  0.5540210000000  0.5054290000000 1.0
C      1  0.4282350000000  0.4692570000000  0.5357960000000 1.0
C      1  0.4507970000000  0.5397770000000  0.5319940000000 1.0
C      1  0.4495950000000  0.5298960000000  0.4768550000000 1.0
C      1  0.4743430000000  0.5119420000000  0.4618370000000 1.0
C      1  0.5583160000000  0.5351780000000  0.4649150000000 1.0
C      1  0.5157210000000  0.5082450000000  0.4526160000000 1.0
C      1  0.4773060000000  0.4770010000000  0.5729500000000 1.0
C      1  0.5705400000000  0.4906080000000  0.4785600000000 1.0
C      1  0.4761430000000  0.4940260000000  0.5016810000000 1.0
C      1  0.4372660000000  0.5001080000000  0.4702320000000 1.0
C      1  0.4952100000000  0.5437010000000  0.5513930000000 1.0
C      1  0.5266790000000  0.4945780000000  0.5480960000000 1.0
C      1  0.4609570000000  0.4415060000000  0.5080640000000 1.0
C      1  0.5140150000000  0.4717740000000  0.5321390000000 1.0
C      1  0.4764090000000  0.4100590000000  0.5435990000000 1.0
C      1  0.5183990000000  0.4781210000000  0.4061600000000 1.0
C      1  0.5856130000000  0.5018770000000  0.5069320000000 1.0
C      1  0.4442920000000  0.5220120000000  0.5538110000000 1.0
C      1  0.4559200000000  0.4983450000000  0.5737040000000 1.0
C      1  0.5251550000000  0.5486560000000  0.5617150000000 1.0
C      1  0.5521320000000  0.4893750000000  0.5581620000000 1.0
C      1  0.5892420000000  0.5562020000000  0.5285530000000 1.0
C      1  0.4749970000000  0.4354710000000  0.5327450000000 1.0
C      1  0.5019890000000  0.4431280000000  0.4537640000000 1.0
C      1  0.5546170000000  0.4652230000000  0.4818510000000 1.0
C      1  0.4909270000000  0.4593560000000  0.5471420000000 1.0
C      1  0.5379470000000  0.4518370000000  0.5273190000000 1.0
C      1  0.5314260000000  0.4568980000000  0.4650600000000 1.0
C      1  0.4354220000000  0.4869810000000  0.4453040000000 1.0
C      1  0.4757930000000  0.4413790000000  0.4836030000000 1.0
C      1  0.5410960000000  0.5600060000000  0.4689300000000 1.0
C      1  0.5031400000000  0.4911650000000  0.4317530000000 1.0
C      1  0.4473620000000  0.4829100000000  0.4901430000000 1.0
C      1  0.4569400000000  0.4953490000000  0.5265330000000 1.0
C      1  0.5501490000000  0.5602310000000  0.5563110000000 1.0
C      1  0.5157420000000  0.5189870000000  0.5526380000000 1.0
C      1  0.5622750000000  0.5529730000000  0.5315540000000 1.0
C      1  0.5551190000000  0.4533310000000  0.5063850000000 1.0
C      1  0.5467860000000  0.5168100000000  0.4439090000000 1.0
C      1  0.5619590000000  0.5210460000000  0.4920240000000 1.0
C      1  0.4285700000000  0.4927330000000  0.5558810000000 1.0
C      1  0.5227260000000  0.5407460000000  0.4469460000000 1.0
C      1  0.5190220000000  0.4621130000000  0.4338900000000 1.0
C      1  0.4728950000000  0.4954990000000  0.4342780000000 1.0
C      1  0.4576880000000  0.4674110000000  0.4398620000000 1.0
C      1  0.5472280000000  0.5416190000000  0.5102650000000 1.0
C      1  0.5056630000000  0.4535130000000  0.4861640000000 1.0
C      1  0.5847650000000  0.4921630000000  0.4544720000000 1.0
C      1  0.5219740000000  0.5571690000000  0.4969000000000 1.0
C      1  0.4362970000000  0.5332750000000  0.5052250000000 1.0
C      1  0.4327880000000  0.5067260000000  0.5187570000000 1.0
C      1  0.4613750000000  0.5098860000000  0.4129460000000 1.0
C      1  0.5629810000000  0.5761530000000  0.5742570000000 1.0
C      1  0.4777120000000  0.5490260000000  0.5301490000000 1.0
C      1  0.4696870000000  0.4465080000000  0.4535710000000 1.0
END
