TITL C-2778432-5617-801 -0.00581160319854166 125000 -727.452323457355 0 0 123 (C1) n - 1
REM
REM in /home/nfs/bkarasulu/CARBON/AIRSS/Generating-Clusters/REBO/Only-C1/SD-CG/HFTN-CG
REM
REM
REM
REM
REM
REM ./C.cell (11c1c37f851c82e70ff6c80c92926a4b)
REM
REM compiler GCC version 9.2.1 20190827 (Red Hat 9.2.1-1)
REM options -cpp -mtune=generic -march=x86-64 -g -O0 -fpre-include=/usr/include/finclude/math-vector-fortran.h
REM seed -1264236298 -1610040152 1675855138 -1441389790 -1884402761 2083685099 -1864759044 1786515488 -716087341 1699596034 -1545213762 -2035068781 499694748 -2020968271 -713094535 -967416603 1837514735 -1260188077 -608493858 2007373923 2019989970 -917494163 -1330714034 938332842 389464771 -580974093 1733045510 -1352201927 -336976041 2096938074 746180297 -1405337176 1551824974
REM
CELL 1.54180   50.00000   50.00000   50.00000   90.00000   90.00000   90.00000
LATT -1
SFAC C  
C      1  0.4892170000000  0.5705040000000  0.5362480000000 1.0
C      1  0.4592780000000  0.4939900000000  0.4972520000000 1.0
C      1  0.4664790000000  0.5941580000000  0.4904910000000 1.0
C      1  0.5234450000000  0.5532130000000  0.4735840000000 1.0
C      1  0.5017800000000  0.5426620000000  0.4930790000000 1.0
C      1  0.5084830000000  0.4767400000000  0.4454720000000 1.0
C      1  0.5467010000000  0.4495580000000  0.4364580000000 1.0
C      1  0.4915730000000  0.5268580000000  0.5733540000000 1.0
C      1  0.5455750000000  0.4767280000000  0.4880200000000 1.0
C      1  0.5484510000000  0.5668860000000  0.4902070000000 1.0
C      1  0.5211620000000  0.5161210000000  0.5809460000000 1.0
C      1  0.4077990000000  0.5356830000000  0.5341230000000 1.0
C      1  0.5435510000000  0.5087240000000  0.4830480000000 1.0
C      1  0.4740960000000  0.5696510000000  0.4435890000000 1.0
C      1  0.5665710000000  0.4444460000000  0.4706910000000 1.0
C      1  0.4891610000000  0.4627120000000  0.4249850000000 1.0
C      1  0.4933640000000  0.5895270000000  0.5597070000000 1.0
C      1  0.5916310000000  0.5175610000000  0.5057530000000 1.0
C      1  0.5255040000000  0.5725220000000  0.4449480000000 1.0
C      1  0.5578200000000  0.5258640000000  0.4202050000000 1.0
C      1  0.5559510000000  0.4960260000000  0.4049340000000 1.0
C      1  0.5102730000000  0.4609010000000  0.5918010000000 1.0
C      1  0.4832500000000  0.4744450000000  0.5826250000000 1.0
C      1  0.5649890000000  0.5315110000000  0.4535300000000 1.0
C      1  0.5741930000000  0.4648350000000  0.4949270000000 1.0
C      1  0.5166140000000  0.4854190000000  0.5450410000000 1.0
C      1  0.5830960000000  0.5482770000000  0.5100290000000 1.0
C      1  0.5708490000000  0.5447370000000  0.4787700000000 1.0
C      1  0.4247320000000  0.4824490000000  0.5758240000000 1.0
C      1  0.5251920000000  0.4800120000000  0.5137870000000 1.0
C      1  0.4606720000000  0.4332420000000  0.4526190000000 1.0
C      1  0.4769850000000  0.4194620000000  0.4682770000000 1.0
C      1  0.5053060000000  0.4759500000000  0.4793900000000 1.0
C      1  0.5637080000000  0.5501530000000  0.5371090000000 1.0
C      1  0.4892470000000  0.5084560000000  0.4597260000000 1.0
C      1  0.4445400000000  0.4682960000000  0.5891130000000 1.0
C      1  0.5686460000000  0.5195490000000  0.5516080000000 1.0
C      1  0.4454110000000  0.5763510000000  0.4822780000000 1.0
C      1  0.5205530000000  0.4928210000000  0.5992700000000 1.0
C      1  0.5259180000000  0.5467580000000  0.5691410000000 1.0
C      1  0.5538050000000  0.5006870000000  0.4444280000000 1.0
C      1  0.4245860000000  0.4587380000000  0.5246870000000 1.0
C      1  0.4158600000000  0.5403330000000  0.5075900000000 1.0
C      1  0.4531470000000  0.4660010000000  0.4793990000000 1.0
C      1  0.4723910000000  0.5419510000000  0.5080300000000 1.0
C      1  0.5000810000000  0.5163970000000  0.4160040000000 1.0
C      1  0.5508140000000  0.4326700000000  0.4989640000000 1.0
C      1  0.4640020000000  0.4522140000000  0.5664440000000 1.0
C      1  0.5262360000000  0.4474870000000  0.5105970000000 1.0
C      1  0.4415460000000  0.5557940000000  0.5043810000000 1.0
C      1  0.4886860000000  0.5373610000000  0.5441590000000 1.0
C      1  0.4391990000000  0.4992070000000  0.5517500000000 1.0
C      1  0.4623840000000  0.4878950000000  0.6041700000000 1.0
C      1  0.5081470000000  0.4532650000000  0.5377620000000 1.0
C      1  0.5398900000000  0.5686960000000  0.5201130000000 1.0
C      1  0.4462210000000  0.5129170000000  0.4192140000000 1.0
C      1  0.4076710000000  0.4969830000000  0.4686290000000 1.0
C      1  0.5208660000000  0.5037540000000  0.4360410000000 1.0
C      1  0.4827580000000  0.5479750000000  0.4229960000000 1.0
C      1  0.5100340000000  0.4163420000000  0.4690600000000 1.0
C      1  0.5122500000000  0.5151980000000  0.4785530000000 1.0
C      1  0.5365620000000  0.5083640000000  0.5535810000000 1.0
C      1  0.5310950000000  0.4612880000000  0.4638860000000 1.0
C      1  0.5906460000000  0.4764650000000  0.5384310000000 1.0
C      1  0.5418930000000  0.4230610000000  0.4685000000000 1.0
C      1  0.4843650000000  0.4299700000000  0.5599260000000 1.0
C      1  0.4762540000000  0.5300460000000  0.4482680000000 1.0
C      1  0.4700150000000  0.5113190000000  0.4134800000000 1.0
C      1  0.5876720000000  0.4910590000000  0.4633280000000 1.0
C      1  0.4558380000000  0.5158630000000  0.6027150000000 1.0
C      1  0.4427400000000  0.4666570000000  0.5441380000000 1.0
C      1  0.5906480000000  0.5053400000000  0.5309110000000 1.0
C      1  0.4866780000000  0.4450250000000  0.5147140000000 1.0
C      1  0.4761170000000  0.5120520000000  0.5155710000000 1.0
C      1  0.4384330000000  0.4268720000000  0.5050840000000 1.0
C      1  0.4692050000000  0.5089850000000  0.5455690000000 1.0
C      1  0.5368090000000  0.5301950000000  0.5302570000000 1.0
C      1  0.4125360000000  0.5194730000000  0.4888770000000 1.0
C      1  0.4294310000000  0.4518510000000  0.4889440000000 1.0
C      1  0.5455950000000  0.5856780000000  0.4665190000000 1.0
C      1  0.5317110000000  0.5333710000000  0.4491180000000 1.0
C      1  0.4926120000000  0.4176650000000  0.4976870000000 1.0
C      1  0.5723540000000  0.4866130000000  0.5607480000000 1.0
C      1  0.4418960000000  0.5131540000000  0.4809210000000 1.0
C      1  0.4822520000000  0.4073800000000  0.5454250000000 1.0
C      1  0.5230950000000  0.4278090000000  0.4405040000000 1.0
C      1  0.5079390000000  0.5773540000000  0.5118700000000 1.0
C      1  0.4479700000000  0.5451560000000  0.5598610000000 1.0
C      1  0.4720760000000  0.4869250000000  0.4601930000000 1.0
C      1  0.4875480000000  0.3975110000000  0.5205990000000 1.0
C      1  0.4039800000000  0.4715710000000  0.4808410000000 1.0
C      1  0.4509040000000  0.5287190000000  0.4597710000000 1.0
C      1  0.4270480000000  0.5272430000000  0.5526590000000 1.0
C      1  0.4224660000000  0.5072170000000  0.4419770000000 1.0
C      1  0.4610860000000  0.4566690000000  0.4369120000000 1.0
C      1  0.5352090000000  0.5515070000000  0.4210190000000 1.0
C      1  0.4874990000000  0.4768940000000  0.4005410000000 1.0
C      1  0.4580010000000  0.5600320000000  0.5335290000000 1.0
C      1  0.4447370000000  0.4815430000000  0.4436970000000 1.0
C      1  0.5022820000000  0.4997330000000  0.5044430000000 1.0
C      1  0.5522000000000  0.4727110000000  0.4129670000000 1.0
C      1  0.4636060000000  0.5345170000000  0.5821660000000 1.0
C      1  0.5797860000000  0.4567940000000  0.5211630000000 1.0
C      1  0.4938180000000  0.5849000000000  0.4870210000000 1.0
C      1  0.5671670000000  0.4713150000000  0.4499960000000 1.0
C      1  0.5142730000000  0.4403490000000  0.5670080000000 1.0
C      1  0.5026240000000  0.4342750000000  0.4219000000000 1.0
C      1  0.3999230000000  0.4669550000000  0.5106740000000 1.0
C      1  0.5098790000000  0.5451120000000  0.4052730000000 1.0
C      1  0.5458620000000  0.4445410000000  0.5559520000000 1.0
C      1  0.5538270000000  0.5299970000000  0.5044530000000 1.0
C      1  0.5419890000000  0.4700160000000  0.5961450000000 1.0
C      1  0.4925310000000  0.4948360000000  0.5625210000000 1.0
C      1  0.5288510000000  0.5632590000000  0.5512750000000 1.0
C      1  0.4808190000000  0.4673380000000  0.4958760000000 1.0
C      1  0.4283820000000  0.5413100000000  0.4433230000000 1.0
C      1  0.4968090000000  0.5787800000000  0.4584920000000 1.0
C      1  0.4598300000000  0.4267330000000  0.5185460000000 1.0
C      1  0.5099230000000  0.5390610000000  0.5229110000000 1.0
C      1  0.5587500000000  0.4385260000000  0.5316560000000 1.0
C      1  0.5776710000000  0.5057020000000  0.4837580000000 1.0
C      1  0.4466400000000  0.5679010000000  0.4542150000000 1.0
C      1  0.5572970000000  0.4658200000000  0.5727730000000 1.0
END
