TITL C-2778435-5768-1424 0.00403399398875637 125000 -326.704777479025 0 0 56 (C1) n - 1
REM
REM in /home/nfs/bkarasulu/CARBON/AIRSS/Generating-Clusters/REBO/Only-C1/SD-CG/HFTN-CG
REM
REM
REM
REM
REM
REM ./C.cell (11c1c37f851c82e70ff6c80c92926a4b)
REM
REM compiler GCC version 9.2.1 20190827 (Red Hat 9.2.1-1)
REM options -cpp -mtune=generic -march=x86-64 -g -O0 -fpre-include=/usr/include/finclude/math-vector-fortran.h
REM seed -2081160255 877228562 526315525 -1001496797 1273999444 -1264675038 2065349517 1003133041 1798897875 -1483429299 1774933951 1502963237 1892024601 -1878169474 2138409053 -782786139 1706073595 1511107083 695448777 -1960824381 -144148819 -1544714934 241408353 -1763467239 1813218296 -757864597 -1245577712 1421514432 396959636 -898104384 -163370892 1928945059 1707990569
REM
CELL 1.54180   50.00000   50.00000   50.00000   90.00000   90.00000   90.00000
LATT -1
SFAC C  
C      1  0.4848130000000  0.4359070000000  0.4982910000000 1.0
C      1  0.5548970000000  0.4604260000000  0.5130240000000 1.0
C      1  0.5180280000000  0.5624580000000  0.4508210000000 1.0
C      1  0.5180470000000  0.4307370000000  0.4950270000000 1.0
C      1  0.5453670000000  0.4841400000000  0.4442730000000 1.0
C      1  0.4953630000000  0.5144430000000  0.4519570000000 1.0
C      1  0.4570880000000  0.4392170000000  0.5085840000000 1.0
C      1  0.4857020000000  0.4788660000000  0.4368670000000 1.0
C      1  0.5503810000000  0.5586870000000  0.4977100000000 1.0
C      1  0.5518570000000  0.4867820000000  0.4715460000000 1.0
C      1  0.5268390000000  0.5169220000000  0.5608460000000 1.0
C      1  0.5183140000000  0.4880600000000  0.5210080000000 1.0
C      1  0.4682610000000  0.5149280000000  0.5419500000000 1.0
C      1  0.4933900000000  0.5163760000000  0.5635340000000 1.0
C      1  0.5076620000000  0.5600050000000  0.5327600000000 1.0
C      1  0.5156290000000  0.5283210000000  0.5326200000000 1.0
C      1  0.4549360000000  0.5461490000000  0.5408780000000 1.0
C      1  0.5352000000000  0.5088120000000  0.4850220000000 1.0
C      1  0.5356560000000  0.5099400000000  0.4308970000000 1.0
C      1  0.5495110000000  0.5361480000000  0.4767970000000 1.0
C      1  0.4874610000000  0.5527990000000  0.4581250000000 1.0
C      1  0.5030250000000  0.4568920000000  0.4464000000000 1.0
C      1  0.4852680000000  0.4897620000000  0.4992980000000 1.0
C      1  0.4394980000000  0.5028840000000  0.5164340000000 1.0
C      1  0.4585410000000  0.5343240000000  0.4888160000000 1.0
C      1  0.5432210000000  0.5395340000000  0.4464360000000 1.0
C      1  0.5043060000000  0.4992090000000  0.4227500000000 1.0
C      1  0.4567000000000  0.4476780000000  0.5362610000000 1.0
C      1  0.5455500000000  0.4841300000000  0.5272230000000 1.0
C      1  0.5302870000000  0.4608930000000  0.4373640000000 1.0
C      1  0.5080700000000  0.4684690000000  0.5625290000000 1.0
C      1  0.5292800000000  0.4852190000000  0.5732310000000 1.0
C      1  0.4989740000000  0.4619470000000  0.5109630000000 1.0
C      1  0.5204490000000  0.5631110000000  0.4820320000000 1.0
C      1  0.5044500000000  0.5023520000000  0.4777530000000 1.0
C      1  0.4920340000000  0.5085300000000  0.5243640000000 1.0
C      1  0.4456630000000  0.5300770000000  0.5127500000000 1.0
C      1  0.4363410000000  0.4914260000000  0.5439180000000 1.0
C      1  0.5126470000000  0.5350880000000  0.4329950000000 1.0
C      1  0.4432810000000  0.4566950000000  0.4910390000000 1.0
C      1  0.4583060000000  0.4727520000000  0.5507050000000 1.0
C      1  0.4875740000000  0.5409170000000  0.4861930000000 1.0
C      1  0.5327450000000  0.4414600000000  0.5171650000000 1.0
C      1  0.4469280000000  0.4782570000000  0.4668890000000 1.0
C      1  0.5166340000000  0.5335960000000  0.4993610000000 1.0
C      1  0.5006500000000  0.4412030000000  0.4691150000000 1.0
C      1  0.4869850000000  0.5480050000000  0.5522400000000 1.0
C      1  0.5253370000000  0.5715260000000  0.5146480000000 1.0
C      1  0.5511450000000  0.4951350000000  0.5527770000000 1.0
C      1  0.4375630000000  0.5206840000000  0.5556840000000 1.0
C      1  0.4547800000000  0.4866320000000  0.4970180000000 1.0
C      1  0.5140860000000  0.4528980000000  0.5395290000000 1.0
C      1  0.4658020000000  0.5256210000000  0.4565230000000 1.0
C      1  0.4831460000000  0.4837790000000  0.5617460000000 1.0
C      1  0.5641080000000  0.4666040000000  0.4869570000000 1.0
C      1  0.4622250000000  0.4925870000000  0.4483570000000 1.0
END
