TITL C-2778429-3646-115 -0.00425158286194856 125000 -1147.85230197145 0 0 196 (C1) n - 1
REM
REM in /home/nfs/bkarasulu/CARBON/AIRSS/Generating-Clusters/REBO/Only-C1/SD-CG/HFTN-CG
REM
REM
REM
REM
REM
REM ./C.cell (11c1c37f851c82e70ff6c80c92926a4b)
REM
REM compiler GCC version 9.2.1 20190827 (Red Hat 9.2.1-1)
REM options -cpp -mtune=generic -march=x86-64 -g -O0 -fpre-include=/usr/include/finclude/math-vector-fortran.h
REM seed 340632553 2089665127 1315686477 -47126052 -299336486 25327299 -1098806917 -511035908 -540979120 -1696786418 -478115942 -533085846 -1328123327 -2008755539 -1600138730 225714376 675683294 -1874846976 -1854360551 1984056541 -2107104953 337207114 1806909878 1173820764 -954321854 1572394422 -1124358679 -1859048825 395873797 704822994 222445792 -1065306725 719163941
REM
CELL 1.54180   50.00000   50.00000   50.00000   90.00000   90.00000   90.00000
LATT -1
SFAC C  
C      1  0.4025060000000  0.4317750000000  0.4873240000000 1.0
C      1  0.4543130000000  0.4907400000000  0.3957440000000 1.0
C      1  0.4993210000000  0.4348380000000  0.5440800000000 1.0
C      1  0.4707100000000  0.5264620000000  0.5308690000000 1.0
C      1  0.3740440000000  0.4281820000000  0.5485780000000 1.0
C      1  0.4610280000000  0.4989730000000  0.5156790000000 1.0
C      1  0.4473610000000  0.5050120000000  0.5601410000000 1.0
C      1  0.4637310000000  0.5996130000000  0.5458590000000 1.0
C      1  0.5875820000000  0.5311690000000  0.5484060000000 1.0
C      1  0.5729150000000  0.4747180000000  0.5866360000000 1.0
C      1  0.5334210000000  0.4353450000000  0.4642090000000 1.0
C      1  0.5774030000000  0.4801520000000  0.4676090000000 1.0
C      1  0.5272460000000  0.4088570000000  0.5326570000000 1.0
C      1  0.5184940000000  0.4528460000000  0.4277620000000 1.0
C      1  0.5623620000000  0.4461530000000  0.4245940000000 1.0
C      1  0.5201700000000  0.5632940000000  0.4520020000000 1.0
C      1  0.3927180000000  0.4863740000000  0.4980580000000 1.0
C      1  0.4680370000000  0.4230050000000  0.5548360000000 1.0
C      1  0.4707840000000  0.5049010000000  0.4847320000000 1.0
C      1  0.4913750000000  0.4663480000000  0.4875210000000 1.0
C      1  0.5046490000000  0.5234130000000  0.3959750000000 1.0
C      1  0.5473420000000  0.5079030000000  0.5604600000000 1.0
C      1  0.4978250000000  0.4392110000000  0.5009820000000 1.0
C      1  0.5734670000000  0.4278490000000  0.5819590000000 1.0
C      1  0.4907170000000  0.4834510000000  0.5118520000000 1.0
C      1  0.5312370000000  0.4823070000000  0.4384000000000 1.0
C      1  0.5925030000000  0.5391120000000  0.5206380000000 1.0
C      1  0.5334430000000  0.5096390000000  0.3982590000000 1.0
C      1  0.5531800000000  0.5262700000000  0.4072230000000 1.0
C      1  0.4317800000000  0.4830560000000  0.5140740000000 1.0
C      1  0.4391580000000  0.4450860000000  0.4105320000000 1.0
C      1  0.5251410000000  0.4793920000000  0.3991930000000 1.0
C      1  0.4325210000000  0.5227630000000  0.5415730000000 1.0
C      1  0.5504630000000  0.4444150000000  0.5421530000000 1.0
C      1  0.5337300000000  0.3867390000000  0.4868520000000 1.0
C      1  0.5038490000000  0.5554940000000  0.4005400000000 1.0
C      1  0.4541140000000  0.5309590000000  0.4917190000000 1.0
C      1  0.5523610000000  0.4898930000000  0.6041190000000 1.0
C      1  0.5273920000000  0.5818800000000  0.5589260000000 1.0
C      1  0.5605960000000  0.5163410000000  0.4526510000000 1.0
C      1  0.4794570000000  0.4570990000000  0.4335050000000 1.0
C      1  0.5501240000000  0.5985550000000  0.4579540000000 1.0
C      1  0.5740070000000  0.5165940000000  0.5045550000000 1.0
C      1  0.5383610000000  0.5145710000000  0.5987920000000 1.0
C      1  0.4294150000000  0.5003210000000  0.4858500000000 1.0
C      1  0.5012420000000  0.5101710000000  0.5569410000000 1.0
C      1  0.5285950000000  0.5670600000000  0.4201940000000 1.0
C      1  0.5600930000000  0.4014410000000  0.5370710000000 1.0
C      1  0.5048790000000  0.5921180000000  0.5278250000000 1.0
C      1  0.4500410000000  0.5707730000000  0.5535770000000 1.0
C      1  0.4258990000000  0.4171640000000  0.4919380000000 1.0
C      1  0.6016470000000  0.4443110000000  0.4597400000000 1.0
C      1  0.4019990000000  0.4920700000000  0.5283220000000 1.0
C      1  0.5583410000000  0.4478750000000  0.3745710000000 1.0
C      1  0.3996650000000  0.5152190000000  0.4535290000000 1.0
C      1  0.3907440000000  0.5092810000000  0.4819580000000 1.0
C      1  0.4825130000000  0.5640760000000  0.5757600000000 1.0
C      1  0.4521350000000  0.5534880000000  0.5242800000000 1.0
C      1  0.5280630000000  0.4072430000000  0.4251250000000 1.0
C      1  0.4549910000000  0.4333720000000  0.4337880000000 1.0
C      1  0.5267110000000  0.5686220000000  0.5180760000000 1.0
C      1  0.5970920000000  0.4489420000000  0.5420930000000 1.0
C      1  0.4421090000000  0.4718310000000  0.5929150000000 1.0
C      1  0.4297190000000  0.4750750000000  0.4133210000000 1.0
C      1  0.4652590000000  0.5407720000000  0.5596410000000 1.0
C      1  0.5240170000000  0.5880630000000  0.4730250000000 1.0
C      1  0.4908900000000  0.4668220000000  0.6086880000000 1.0
C      1  0.4721680000000  0.5436760000000  0.4075170000000 1.0
C      1  0.4718420000000  0.4296090000000  0.5156970000000 1.0
C      1  0.4290840000000  0.5224820000000  0.5121540000000 1.0
C      1  0.5905850000000  0.5242520000000  0.4502240000000 1.0
C      1  0.4932900000000  0.5872120000000  0.5583670000000 1.0
C      1  0.5084380000000  0.4831710000000  0.5854630000000 1.0
C      1  0.5050750000000  0.3924950000000  0.4800380000000 1.0
C      1  0.5420710000000  0.4616850000000  0.4707450000000 1.0
C      1  0.5603070000000  0.4704990000000  0.4441620000000 1.0
C      1  0.5402970000000  0.3854890000000  0.5143860000000 1.0
C      1  0.5685620000000  0.5454850000000  0.5644960000000 1.0
C      1  0.4807110000000  0.4967800000000  0.4372900000000 1.0
C      1  0.3997250000000  0.5296960000000  0.5630750000000 1.0
C      1  0.5441530000000  0.5175850000000  0.5145210000000 1.0
C      1  0.5588910000000  0.5701800000000  0.5523120000000 1.0
C      1  0.4770790000000  0.4965740000000  0.5563660000000 1.0
C      1  0.3991110000000  0.4599100000000  0.4828870000000 1.0
C      1  0.5923080000000  0.4432560000000  0.4363980000000 1.0
C      1  0.5443950000000  0.4251430000000  0.4397010000000 1.0
C      1  0.4639710000000  0.4809580000000  0.6114170000000 1.0
C      1  0.4565770000000  0.5701240000000  0.5930310000000 1.0
C      1  0.4849030000000  0.5417140000000  0.4970570000000 1.0
C      1  0.5554810000000  0.5501140000000  0.4211080000000 1.0
C      1  0.4981840000000  0.5891280000000  0.4425850000000 1.0
C      1  0.4818060000000  0.4714190000000  0.5396990000000 1.0
C      1  0.5301640000000  0.5977270000000  0.4348060000000 1.0
C      1  0.5849860000000  0.4518720000000  0.5739680000000 1.0
C      1  0.5323480000000  0.5627010000000  0.4899920000000 1.0
C      1  0.4937140000000  0.4802980000000  0.4130420000000 1.0
C      1  0.5061300000000  0.5277660000000  0.4287810000000 1.0
C      1  0.4357770000000  0.5259590000000  0.4664590000000 1.0
C      1  0.3942600000000  0.4448000000000  0.5415600000000 1.0
C      1  0.5322820000000  0.5136900000000  0.4389050000000 1.0
C      1  0.4763530000000  0.5939960000000  0.4640560000000 1.0
C      1  0.3929460000000  0.5211870000000  0.5367660000000 1.0
C      1  0.4723140000000  0.3994970000000  0.5318230000000 1.0
C      1  0.4457850000000  0.5836170000000  0.4565730000000 1.0
C      1  0.5226590000000  0.4398040000000  0.5228350000000 1.0
C      1  0.4162650000000  0.5698900000000  0.5309020000000 1.0
C      1  0.5247560000000  0.4869680000000  0.5556870000000 1.0
C      1  0.5342630000000  0.4878780000000  0.4897600000000 1.0
C      1  0.5538720000000  0.4020840000000  0.4727490000000 1.0
C      1  0.4843560000000  0.6113680000000  0.4872930000000 1.0
C      1  0.4490570000000  0.4389640000000  0.4843760000000 1.0
C      1  0.5033100000000  0.4603310000000  0.4562500000000 1.0
C      1  0.5264620000000  0.5346260000000  0.4624660000000 1.0
C      1  0.4749580000000  0.3905890000000  0.4795560000000 1.0
C      1  0.5915690000000  0.4991820000000  0.5482660000000 1.0
C      1  0.5291630000000  0.5581380000000  0.5820820000000 1.0
C      1  0.4406770000000  0.5914400000000  0.5209370000000 1.0
C      1  0.4974800000000  0.5149970000000  0.5125120000000 1.0
C      1  0.5010070000000  0.4059380000000  0.4300290000000 1.0
C      1  0.4887060000000  0.4157750000000  0.4520680000000 1.0
C      1  0.4158460000000  0.4380190000000  0.5244750000000 1.0
C      1  0.5394880000000  0.5287460000000  0.5427540000000 1.0
C      1  0.4883540000000  0.5635490000000  0.4281730000000 1.0
C      1  0.5331820000000  0.6246540000000  0.5022700000000 1.0
C      1  0.6008740000000  0.5431820000000  0.4917970000000 1.0
C      1  0.4116580000000  0.5469720000000  0.4560040000000 1.0
C      1  0.4864530000000  0.5422500000000  0.4525190000000 1.0
C      1  0.5225340000000  0.4057180000000  0.5722040000000 1.0
C      1  0.5710120000000  0.4987800000000  0.5699890000000 1.0
C      1  0.6033050000000  0.4648810000000  0.5124780000000 1.0
C      1  0.5360220000000  0.4858130000000  0.5235500000000 1.0
C      1  0.4700650000000  0.4803850000000  0.4645430000000 1.0
C      1  0.4615940000000  0.5135350000000  0.4190260000000 1.0
C      1  0.5601120000000  0.4657290000000  0.5102120000000 1.0
C      1  0.5499780000000  0.4184200000000  0.5640340000000 1.0
C      1  0.4154190000000  0.4805960000000  0.4658440000000 1.0
C      1  0.5601950000000  0.5027820000000  0.4810990000000 1.0
C      1  0.4591270000000  0.4500920000000  0.5390490000000 1.0
C      1  0.4468960000000  0.4709200000000  0.5591800000000 1.0
C      1  0.4843920000000  0.4472040000000  0.3885490000000 1.0
C      1  0.5847020000000  0.4218310000000  0.5318880000000 1.0
C      1  0.4304580000000  0.5660900000000  0.4407230000000 1.0
C      1  0.5113140000000  0.5337330000000  0.5458390000000 1.0
C      1  0.5145850000000  0.4903080000000  0.4658610000000 1.0
C      1  0.5498510000000  0.4565520000000  0.3981260000000 1.0
C      1  0.4738900000000  0.5620390000000  0.4750180000000 1.0
C      1  0.4930680000000  0.5127340000000  0.4633080000000 1.0
C      1  0.4330700000000  0.4526180000000  0.5089880000000 1.0
C      1  0.5866890000000  0.5693010000000  0.4754210000000 1.0
C      1  0.4174340000000  0.4924470000000  0.4354370000000 1.0
C      1  0.4350180000000  0.5194030000000  0.4355290000000 1.0
C      1  0.5110160000000  0.4477870000000  0.3984190000000 1.0
C      1  0.4489140000000  0.5801310000000  0.4895620000000 1.0
C      1  0.5552380000000  0.5477680000000  0.4733450000000 1.0
C      1  0.5834920000000  0.4534460000000  0.4871060000000 1.0
C      1  0.6022510000000  0.4893550000000  0.4874650000000 1.0
C      1  0.4422870000000  0.5480830000000  0.4204500000000 1.0
C      1  0.3972920000000  0.4717130000000  0.5514120000000 1.0
C      1  0.5875030000000  0.5770740000000  0.5080280000000 1.0
C      1  0.4556050000000  0.4544090000000  0.4588080000000 1.0
C      1  0.5009470000000  0.4011540000000  0.5500840000000 1.0
C      1  0.5946170000000  0.4955420000000  0.5187000000000 1.0
C      1  0.4584500000000  0.4584540000000  0.3914740000000 1.0
C      1  0.4894150000000  0.4395460000000  0.6068090000000 1.0
C      1  0.5603820000000  0.4323940000000  0.5118310000000 1.0
C      1  0.4737010000000  0.5115700000000  0.6046680000000 1.0
C      1  0.5586700000000  0.6080250000000  0.5048330000000 1.0
C      1  0.4239420000000  0.5507550000000  0.5562410000000 1.0
C      1  0.5229680000000  0.5299120000000  0.4953850000000 1.0
C      1  0.6043890000000  0.5199360000000  0.4751280000000 1.0
C      1  0.5694080000000  0.5980070000000  0.4794140000000 1.0
C      1  0.4166140000000  0.4741390000000  0.5716900000000 1.0
C      1  0.4771980000000  0.5728610000000  0.5203620000000 1.0
C      1  0.5080040000000  0.4243070000000  0.4757700000000 1.0
C      1  0.5388550000000  0.5965570000000  0.5299990000000 1.0
C      1  0.5747590000000  0.5532840000000  0.4475300000000 1.0
C      1  0.4846110000000  0.5016610000000  0.3888400000000 1.0
C      1  0.4979360000000  0.4592830000000  0.5654970000000 1.0
C      1  0.5014170000000  0.5525160000000  0.5250810000000 1.0
C      1  0.4277390000000  0.5592770000000  0.5012460000000 1.0
C      1  0.5497890000000  0.5386590000000  0.5857560000000 1.0
C      1  0.4554900000000  0.4039620000000  0.5024560000000 1.0
C      1  0.4538050000000  0.5230030000000  0.5856640000000 1.0
C      1  0.4704190000000  0.6051570000000  0.5126320000000 1.0
C      1  0.5748290000000  0.5793150000000  0.5312850000000 1.0
C      1  0.5724120000000  0.4711040000000  0.5412740000000 1.0
C      1  0.4414700000000  0.5499620000000  0.5965030000000 1.0
C      1  0.4584030000000  0.4148400000000  0.4622500000000 1.0
C      1  0.5040890000000  0.5473340000000  0.5886250000000 1.0
C      1  0.3962530000000  0.5444760000000  0.5195020000000 1.0
C      1  0.4633020000000  0.5055010000000  0.6349690000000 1.0
C      1  0.5043470000000  0.5150990000000  0.5966650000000 1.0
C      1  0.5667980000000  0.4236700000000  0.4827620000000 1.0
C      1  0.5125420000000  0.6115190000000  0.4881670000000 1.0
C      1  0.4029870000000  0.5399010000000  0.4880320000000 1.0
C      1  0.4852270000000  0.4316900000000  0.5807830000000 1.0
END
