TITL C-2778431-5191-1454 0.00270332888521351 125000 -249.87169009154 0 0 44 (C1) n - 1
REM
REM in /home/nfs/bkarasulu/CARBON/AIRSS/Generating-Clusters/REBO/Only-C1/SD-CG/HFTN-CG
REM
REM
REM
REM
REM
REM ./C.cell (11c1c37f851c82e70ff6c80c92926a4b)
REM
REM compiler GCC version 9.2.1 20190827 (Red Hat 9.2.1-1)
REM options -cpp -mtune=generic -march=x86-64 -g -O0 -fpre-include=/usr/include/finclude/math-vector-fortran.h
REM seed 1590893640 -2005609839 2056472540 -2024742274 -920568404 1590605408 -114951533 -1636844623 557632743 1131535856 -386990185 -479868013 773838123 -1993489599 -928405427 -1615838431 -1698402835 1638138275 -485723438 -835890461 1486896991 -1461861155 -1305235361 542950091 -449123065 -1253634939 -845639658 -1452259298 -1587039284 1762723673 -506853786 -534359353 -1458618955
REM
CELL 1.54180   50.00000   50.00000   50.00000   90.00000   90.00000   90.00000
LATT -1
SFAC C  
C      1  0.4924900000000  0.4508930000000  0.4508980000000 1.0
C      1  0.5156820000000  0.5388970000000  0.5012500000000 1.0
C      1  0.5000540000000  0.5071950000000  0.5199090000000 1.0
C      1  0.4806220000000  0.4834650000000  0.4854420000000 1.0
C      1  0.4328280000000  0.5079860000000  0.4877460000000 1.0
C      1  0.4859180000000  0.5102100000000  0.4385500000000 1.0
C      1  0.5347050000000  0.5448190000000  0.5219400000000 1.0
C      1  0.4661830000000  0.4540650000000  0.4886260000000 1.0
C      1  0.4987050000000  0.6048900000000  0.5531120000000 1.0
C      1  0.5530410000000  0.4949270000000  0.4748670000000 1.0
C      1  0.5468140000000  0.5207550000000  0.5374550000000 1.0
C      1  0.4646980000000  0.5530610000000  0.5017000000000 1.0
C      1  0.4396600000000  0.5338810000000  0.4903880000000 1.0
C      1  0.5162110000000  0.4956090000000  0.5397590000000 1.0
C      1  0.4474780000000  0.4846610000000  0.4795320000000 1.0
C      1  0.5499350000000  0.5222890000000  0.4703970000000 1.0
C      1  0.4582280000000  0.5479060000000  0.4691590000000 1.0
C      1  0.4999140000000  0.4261190000000  0.4730520000000 1.0
C      1  0.4615830000000  0.4640700000000  0.4564200000000 1.0
C      1  0.5037740000000  0.4919280000000  0.4965790000000 1.0
C      1  0.5268410000000  0.5352630000000  0.5596180000000 1.0
C      1  0.5032590000000  0.3969860000000  0.4665320000000 1.0
C      1  0.4936250000000  0.4638950000000  0.5679160000000 1.0
C      1  0.5012660000000  0.5217990000000  0.5657700000000 1.0
C      1  0.5336080000000  0.4833810000000  0.4987930000000 1.0
C      1  0.4928740000000  0.5407040000000  0.4241030000000 1.0
C      1  0.4863130000000  0.5356450000000  0.5152250000000 1.0
C      1  0.5644250000000  0.4718720000000  0.5375770000000 1.0
C      1  0.5222960000000  0.5634670000000  0.5439030000000 1.0
C      1  0.4838610000000  0.4332910000000  0.4983290000000 1.0
C      1  0.5418130000000  0.4649920000000  0.4726370000000 1.0
C      1  0.5061000000000  0.3722380000000  0.4609930000000 1.0
C      1  0.5003390000000  0.5815740000000  0.5390330000000 1.0
C      1  0.4882480000000  0.4325890000000  0.5250940000000 1.0
C      1  0.4810900000000  0.5312380000000  0.5473620000000 1.0
C      1  0.4839390000000  0.4818180000000  0.4396220000000 1.0
C      1  0.5451150000000  0.4892190000000  0.5279810000000 1.0
C      1  0.5233840000000  0.4474070000000  0.4627460000000 1.0
C      1  0.5243060000000  0.5343190000000  0.4746240000000 1.0
C      1  0.5033630000000  0.4903740000000  0.5664090000000 1.0
C      1  0.4682220000000  0.5387150000000  0.4460280000000 1.0
C      1  0.4801870000000  0.5747650000000  0.5200980000000 1.0
C      1  0.5069130000000  0.5331020000000  0.4530430000000 1.0
C      1  0.4900930000000  0.4437220000000  0.5497810000000 1.0
END
