TITL C-2778423-5760-430 -0.00877944872575635 125000 -756.42030553795 0 0 132 (C1) n - 1
REM
REM in /home/nfs/bkarasulu/CARBON/AIRSS/Generating-Clusters/REBO/Only-C1/SD-CG/HFTN-CG
REM
REM
REM
REM
REM
REM ./C.cell (11c1c37f851c82e70ff6c80c92926a4b)
REM
REM compiler GCC version 9.2.1 20190827 (Red Hat 9.2.1-1)
REM options -cpp -mtune=generic -march=x86-64 -g -O0 -fpre-include=/usr/include/finclude/math-vector-fortran.h
REM seed 1308246793 1321717217 180629533 754423323 1716664571 1599740179 642841450 -1060854749 600105636 -2053282476 1603709 -1834262922 291645567 1005565788 1161390434 -1923054006 -2103236848 -846253623 -1408683071 54782917 42597808 -1596173633 -1248660345 -973006641 -1005941779 -1378614742 -6825630 1302222878 -1456867866 1077677399 -552666247 464067136 -1098136085
REM
CELL 1.54180   50.00000   50.00000   50.00000   90.00000   90.00000   90.00000
LATT -1
SFAC C  
C      1  0.5439550000000  0.4751680000000  0.4278660000000 1.0
C      1  0.4698600000000  0.4686940000000  0.5128450000000 1.0
C      1  0.5096040000000  0.5728100000000  0.4919600000000 1.0
C      1  0.4624990000000  0.4626540000000  0.4151280000000 1.0
C      1  0.5515190000000  0.5696310000000  0.4919520000000 1.0
C      1  0.4747070000000  0.4798490000000  0.4814960000000 1.0
C      1  0.4146550000000  0.4550530000000  0.4497870000000 1.0
C      1  0.4439430000000  0.4900060000000  0.5190360000000 1.0
C      1  0.5512080000000  0.4532030000000  0.4961660000000 1.0
C      1  0.4211850000000  0.5089470000000  0.4603590000000 1.0
C      1  0.4188990000000  0.5445020000000  0.5103720000000 1.0
C      1  0.5169810000000  0.4466800000000  0.5778900000000 1.0
C      1  0.5333240000000  0.4998570000000  0.5254090000000 1.0
C      1  0.4611540000000  0.4891880000000  0.5572290000000 1.0
C      1  0.4516750000000  0.5453660000000  0.5404810000000 1.0
C      1  0.4874120000000  0.4525270000000  0.4656990000000 1.0
C      1  0.4414960000000  0.4399690000000  0.4628290000000 1.0
C      1  0.4707090000000  0.4198300000000  0.4810150000000 1.0
C      1  0.5660670000000  0.4916200000000  0.5622540000000 1.0
C      1  0.4328680000000  0.4725670000000  0.5563220000000 1.0
C      1  0.5307190000000  0.5480030000000  0.4155140000000 1.0
C      1  0.4211300000000  0.5369630000000  0.4489170000000 1.0
C      1  0.4925530000000  0.4534080000000  0.4064870000000 1.0
C      1  0.5242520000000  0.5940930000000  0.5143740000000 1.0
C      1  0.4649520000000  0.4999530000000  0.5855440000000 1.0
C      1  0.5484590000000  0.5618210000000  0.5478220000000 1.0
C      1  0.5129440000000  0.5867010000000  0.4616920000000 1.0
C      1  0.5107500000000  0.4351450000000  0.4491550000000 1.0
C      1  0.5039110000000  0.4719620000000  0.5951560000000 1.0
C      1  0.4336690000000  0.4469810000000  0.5371860000000 1.0
C      1  0.5884210000000  0.4792840000000  0.4848600000000 1.0
C      1  0.5185830000000  0.5048180000000  0.5552170000000 1.0
C      1  0.5757960000000  0.5245690000000  0.5408780000000 1.0
C      1  0.4723060000000  0.4699300000000  0.4423490000000 1.0
C      1  0.4516600000000  0.5069830000000  0.4032820000000 1.0
C      1  0.5421530000000  0.4597110000000  0.5597800000000 1.0
C      1  0.4907440000000  0.5754290000000  0.4429180000000 1.0
C      1  0.4670620000000  0.5330370000000  0.4678400000000 1.0
C      1  0.4738710000000  0.5906170000000  0.4914370000000 1.0
C      1  0.4921190000000  0.5343530000000  0.4448890000000 1.0
C      1  0.4687880000000  0.5397230000000  0.4999550000000 1.0
C      1  0.5477870000000  0.5137150000000  0.5806690000000 1.0
C      1  0.4156320000000  0.5002320000000  0.4927550000000 1.0
C      1  0.4228040000000  0.4846870000000  0.4365350000000 1.0
C      1  0.4262450000000  0.5040670000000  0.5447540000000 1.0
C      1  0.5699140000000  0.4232440000000  0.4355400000000 1.0
C      1  0.5757560000000  0.4735260000000  0.5430720000000 1.0
C      1  0.5212270000000  0.4770020000000  0.4825850000000 1.0
C      1  0.5168080000000  0.4702090000000  0.4070530000000 1.0
C      1  0.5377960000000  0.5993210000000  0.4829820000000 1.0
C      1  0.5231290000000  0.4147170000000  0.4858110000000 1.0
C      1  0.4883790000000  0.4975900000000  0.6004100000000 1.0
C      1  0.4757550000000  0.4570810000000  0.5833210000000 1.0
C      1  0.4599810000000  0.5760470000000  0.5434410000000 1.0
C      1  0.4382810000000  0.5284130000000  0.5612790000000 1.0
C      1  0.5152380000000  0.4250440000000  0.5549750000000 1.0
C      1  0.4392690000000  0.4738610000000  0.4645430000000 1.0
C      1  0.5083830000000  0.4939230000000  0.5058560000000 1.0
C      1  0.4782760000000  0.4123380000000  0.5228570000000 1.0
C      1  0.4827070000000  0.4478910000000  0.5573790000000 1.0
C      1  0.5000470000000  0.4031390000000  0.4766120000000 1.0
C      1  0.4865520000000  0.4344820000000  0.4300320000000 1.0
C      1  0.4960880000000  0.5234690000000  0.4935780000000 1.0
C      1  0.4820520000000  0.5449830000000  0.5859320000000 1.0
C      1  0.5007470000000  0.5225580000000  0.6024670000000 1.0
C      1  0.4633190000000  0.5140950000000  0.5337270000000 1.0
C      1  0.5342070000000  0.4434090000000  0.5243020000000 1.0
C      1  0.5137420000000  0.5451020000000  0.5052250000000 1.0
C      1  0.5462040000000  0.4034710000000  0.4995010000000 1.0
C      1  0.5465900000000  0.5321760000000  0.4376810000000 1.0
C      1  0.5101680000000  0.4639880000000  0.5483400000000 1.0
C      1  0.5138520000000  0.4932660000000  0.4469460000000 1.0
C      1  0.5242590000000  0.4429330000000  0.4858200000000 1.0
C      1  0.5117470000000  0.4972070000000  0.4197500000000 1.0
C      1  0.4546010000000  0.4093590000000  0.5159030000000 1.0
C      1  0.5325780000000  0.5090330000000  0.4785490000000 1.0
C      1  0.5632050000000  0.4449890000000  0.5411610000000 1.0
C      1  0.4865390000000  0.4429230000000  0.4985140000000 1.0
C      1  0.5016630000000  0.6066480000000  0.4922390000000 1.0
C      1  0.4958720000000  0.5122920000000  0.5316940000000 1.0
C      1  0.4413420000000  0.4826930000000  0.4114520000000 1.0
C      1  0.5848050000000  0.4994960000000  0.4406710000000 1.0
C      1  0.5568120000000  0.4194890000000  0.5194320000000 1.0
C      1  0.4625150000000  0.4304770000000  0.4421080000000 1.0
C      1  0.5974590000000  0.5261950000000  0.4778010000000 1.0
C      1  0.5125580000000  0.5668880000000  0.5311700000000 1.0
C      1  0.5306620000000  0.5317360000000  0.5285980000000 1.0
C      1  0.4906480000000  0.5541150000000  0.5549000000000 1.0
C      1  0.5565010000000  0.5531880000000  0.4619910000000 1.0
C      1  0.5293180000000  0.4849100000000  0.5765440000000 1.0
C      1  0.4747000000000  0.4983720000000  0.4443050000000 1.0
C      1  0.4872210000000  0.4822710000000  0.5376510000000 1.0
C      1  0.4487060000000  0.4634670000000  0.5850630000000 1.0
C      1  0.5684560000000  0.4621030000000  0.4766840000000 1.0
C      1  0.5455030000000  0.5819380000000  0.4550950000000 1.0
C      1  0.4148830000000  0.5171080000000  0.5154530000000 1.0
C      1  0.4656690000000  0.5234500000000  0.4263520000000 1.0
C      1  0.5614550000000  0.4538860000000  0.4478370000000 1.0
C      1  0.4734170000000  0.5665970000000  0.4707270000000 1.0
C      1  0.5584090000000  0.5367230000000  0.5582760000000 1.0
C      1  0.5903160000000  0.4849100000000  0.5153390000000 1.0
C      1  0.5147690000000  0.5560450000000  0.5864020000000 1.0
C      1  0.4739800000000  0.3896990000000  0.4654860000000 1.0
C      1  0.5303230000000  0.5297750000000  0.5999610000000 1.0
C      1  0.4391630000000  0.5524330000000  0.4923980000000 1.0
C      1  0.5050580000000  0.5551890000000  0.4232420000000 1.0
C      1  0.5714850000000  0.5362330000000  0.4830200000000 1.0
C      1  0.4205080000000  0.4725680000000  0.5014350000000 1.0
C      1  0.5543630000000  0.5169770000000  0.4942630000000 1.0
C      1  0.4393050000000  0.4266400000000  0.4917250000000 1.0
C      1  0.4899530000000  0.5883120000000  0.5553990000000 1.0
C      1  0.4567430000000  0.5723310000000  0.4427920000000 1.0
C      1  0.5400580000000  0.4275180000000  0.4457770000000 1.0
C      1  0.4938800000000  0.5036360000000  0.4700670000000 1.0
C      1  0.5521780000000  0.5655300000000  0.5191500000000 1.0
C      1  0.4704560000000  0.5665350000000  0.5126990000000 1.0
C      1  0.5233210000000  0.4641350000000  0.4525530000000 1.0
C      1  0.4630540000000  0.4463080000000  0.5374460000000 1.0
C      1  0.5653290000000  0.5043570000000  0.5201580000000 1.0
C      1  0.4555810000000  0.5267470000000  0.5837800000000 1.0
C      1  0.4786270000000  0.5976340000000  0.5246360000000 1.0
C      1  0.4445990000000  0.5452810000000  0.4303260000000 1.0
C      1  0.6164540000000  0.4938960000000  0.5217870000000 1.0
C      1  0.5224960000000  0.5294090000000  0.4593960000000 1.0
C      1  0.5218480000000  0.5772130000000  0.5623910000000 1.0
C      1  0.4242030000000  0.4462940000000  0.5103670000000 1.0
C      1  0.5589220000000  0.5032100000000  0.4316050000000 1.0
C      1  0.5049520000000  0.4314170000000  0.5237550000000 1.0
C      1  0.5184640000000  0.5375100000000  0.5577550000000 1.0
C      1  0.4344680000000  0.5595040000000  0.4656280000000 1.0
C      1  0.4513330000000  0.5038270000000  0.4754070000000 1.0
C      1  0.5968110000000  0.4997890000000  0.4666100000000 1.0
END
