TITL C-2778425-5191-117 0.00240116905755595 125000 -1021.14561313816 0 0 172 (C1) n - 1
REM
REM in /home/nfs/bkarasulu/CARBON/AIRSS/Generating-Clusters/REBO/Only-C1/SD-CG/HFTN-CG
REM
REM
REM
REM
REM
REM ./C.cell (11c1c37f851c82e70ff6c80c92926a4b)
REM
REM compiler GCC version 9.2.1 20190827 (Red Hat 9.2.1-1)
REM options -cpp -mtune=generic -march=x86-64 -g -O0 -fpre-include=/usr/include/finclude/math-vector-fortran.h
REM seed 117773854 -1634113929 -271127812 -1760062461 -213994103 -707197538 -82190855 893720654 1673305227 964132005 1474839558 -1693888503 -1195865067 1919648954 1883817138 -446639043 -562020637 1514519266 -1350036396 1250156448 -600877918 255695439 613324900 1435845526 1107266179 -595608222 -112855451 -937354622 -1461381654 -1301410668 -1402865190 998071258 1304956746
REM
CELL 1.54180   50.00000   50.00000   50.00000   90.00000   90.00000   90.00000
LATT -1
SFAC C  
C      1  0.4344270000000  0.5979830000000  0.5026230000000 1.0
C      1  0.4561800000000  0.5496430000000  0.4935770000000 1.0
C      1  0.5187900000000  0.4954670000000  0.4353010000000 1.0
C      1  0.5507500000000  0.4920010000000  0.4464590000000 1.0
C      1  0.4424810000000  0.5225060000000  0.4818710000000 1.0
C      1  0.3957940000000  0.5236840000000  0.4449200000000 1.0
C      1  0.4226690000000  0.5151960000000  0.5623790000000 1.0
C      1  0.4590650000000  0.5228830000000  0.4520300000000 1.0
C      1  0.5943550000000  0.4355520000000  0.5150040000000 1.0
C      1  0.4232040000000  0.5396700000000  0.4478810000000 1.0
C      1  0.4923820000000  0.4966700000000  0.4193220000000 1.0
C      1  0.4829610000000  0.5617450000000  0.5603140000000 1.0
C      1  0.4626750000000  0.3969940000000  0.5003070000000 1.0
C      1  0.5717520000000  0.4351990000000  0.5330500000000 1.0
C      1  0.5146100000000  0.4205800000000  0.5475560000000 1.0
C      1  0.5976410000000  0.4875040000000  0.4682740000000 1.0
C      1  0.4514170000000  0.4440720000000  0.4603280000000 1.0
C      1  0.5529910000000  0.5120130000000  0.5475440000000 1.0
C      1  0.5561680000000  0.4605900000000  0.4903660000000 1.0
C      1  0.5004080000000  0.3962150000000  0.4665290000000 1.0
C      1  0.5556580000000  0.4693140000000  0.5206730000000 1.0
C      1  0.5744310000000  0.4479480000000  0.4315030000000 1.0
C      1  0.4747900000000  0.4574570000000  0.4311780000000 1.0
C      1  0.4584940000000  0.5912380000000  0.5500460000000 1.0
C      1  0.5902110000000  0.4911120000000  0.5606020000000 1.0
C      1  0.4532100000000  0.4709430000000  0.5318340000000 1.0
C      1  0.4123220000000  0.4769780000000  0.5586550000000 1.0
C      1  0.5707160000000  0.5893070000000  0.5289670000000 1.0
C      1  0.5573130000000  0.4736440000000  0.5749820000000 1.0
C      1  0.5672220000000  0.5688190000000  0.5562950000000 1.0
C      1  0.5419280000000  0.4738640000000  0.4065550000000 1.0
C      1  0.4595050000000  0.5196970000000  0.5845570000000 1.0
C      1  0.5167300000000  0.5080280000000  0.6033980000000 1.0
C      1  0.5305680000000  0.5608490000000  0.4408330000000 1.0
C      1  0.5375140000000  0.5960400000000  0.5239850000000 1.0
C      1  0.5796380000000  0.5442690000000  0.5622680000000 1.0
C      1  0.4849800000000  0.4646550000000  0.4804570000000 1.0
C      1  0.4672930000000  0.4938610000000  0.4002880000000 1.0
C      1  0.5805070000000  0.5095800000000  0.4264070000000 1.0
C      1  0.5051800000000  0.5600000000000  0.5159690000000 1.0
C      1  0.5054380000000  0.4764020000000  0.5585980000000 1.0
C      1  0.4464740000000  0.5127140000000  0.4062010000000 1.0
C      1  0.4573990000000  0.4933320000000  0.4788150000000 1.0
C      1  0.4883910000000  0.4498490000000  0.5616900000000 1.0
C      1  0.4729620000000  0.4459850000000  0.5360490000000 1.0
C      1  0.5234920000000  0.4584030000000  0.4214440000000 1.0
C      1  0.5354700000000  0.5200840000000  0.3922700000000 1.0
C      1  0.5695360000000  0.5908910000000  0.4965940000000 1.0
C      1  0.4094760000000  0.4737060000000  0.4616180000000 1.0
C      1  0.6102710000000  0.5233970000000  0.5265610000000 1.0
C      1  0.4682290000000  0.5501770000000  0.5865390000000 1.0
C      1  0.6140430000000  0.4709380000000  0.4850630000000 1.0
C      1  0.4674650000000  0.4431570000000  0.5842720000000 1.0
C      1  0.4944880000000  0.5515800000000  0.6031390000000 1.0
C      1  0.5529610000000  0.5672930000000  0.4784050000000 1.0
C      1  0.4914930000000  0.5932230000000  0.5557210000000 1.0
C      1  0.5204290000000  0.4662940000000  0.4506380000000 1.0
C      1  0.6022690000000  0.4409500000000  0.4837120000000 1.0
C      1  0.4932470000000  0.4319710000000  0.5153940000000 1.0
C      1  0.5914230000000  0.5344840000000  0.4710650000000 1.0
C      1  0.4783880000000  0.6028140000000  0.5254660000000 1.0
C      1  0.5009250000000  0.5276220000000  0.6175020000000 1.0
C      1  0.4203630000000  0.5104840000000  0.4265640000000 1.0
C      1  0.5800420000000  0.5430690000000  0.4338520000000 1.0
C      1  0.3846100000000  0.4861910000000  0.4736890000000 1.0
C      1  0.4605180000000  0.6048280000000  0.5001000000000 1.0
C      1  0.4943780000000  0.4945640000000  0.5324420000000 1.0
C      1  0.4659540000000  0.4182590000000  0.4162530000000 1.0
C      1  0.4378960000000  0.5595800000000  0.4677590000000 1.0
C      1  0.4822110000000  0.5620770000000  0.4754030000000 1.0
C      1  0.5396730000000  0.5213310000000  0.4571720000000 1.0
C      1  0.4231600000000  0.5745550000000  0.5095180000000 1.0
C      1  0.4342600000000  0.5501030000000  0.5809910000000 1.0
C      1  0.5547000000000  0.5018370000000  0.5754640000000 1.0
C      1  0.4497600000000  0.5605770000000  0.5527460000000 1.0
C      1  0.5693950000000  0.4781060000000  0.4227760000000 1.0
C      1  0.4447170000000  0.4232560000000  0.4936830000000 1.0
C      1  0.4090420000000  0.5065610000000  0.5321360000000 1.0
C      1  0.4480790000000  0.4714280000000  0.4404570000000 1.0
C      1  0.4545340000000  0.5111550000000  0.5541950000000 1.0
C      1  0.5206670000000  0.4481610000000  0.4777560000000 1.0
C      1  0.5017230000000  0.4906200000000  0.5869700000000 1.0
C      1  0.5173180000000  0.5811340000000  0.5686220000000 1.0
C      1  0.5008770000000  0.5432770000000  0.5443140000000 1.0
C      1  0.5893600000000  0.5098650000000  0.5124760000000 1.0
C      1  0.5967850000000  0.5120310000000  0.4545240000000 1.0
C      1  0.5416030000000  0.5182630000000  0.5940450000000 1.0
C      1  0.4801920000000  0.5390230000000  0.5108320000000 1.0
C      1  0.4715010000000  0.3947240000000  0.4691590000000 1.0
C      1  0.4213090000000  0.4369330000000  0.4737960000000 1.0
C      1  0.4302030000000  0.5512330000000  0.5281590000000 1.0
C      1  0.4934400000000  0.5200470000000  0.4911580000000 1.0
C      1  0.4308400000000  0.5228230000000  0.5141200000000 1.0
C      1  0.4854290000000  0.4416620000000  0.4561880000000 1.0
C      1  0.5564010000000  0.5478750000000  0.4551750000000 1.0
C      1  0.5053930000000  0.4202940000000  0.4494250000000 1.0
C      1  0.6048920000000  0.5505870000000  0.5280730000000 1.0
C      1  0.5132200000000  0.5614130000000  0.4695830000000 1.0
C      1  0.4803490000000  0.4631190000000  0.4018310000000 1.0
C      1  0.5343810000000  0.4936280000000  0.3881050000000 1.0
C      1  0.4195920000000  0.4801980000000  0.4320100000000 1.0
C      1  0.5542090000000  0.5439700000000  0.5107630000000 1.0
C      1  0.4164920000000  0.4470550000000  0.4414200000000 1.0
C      1  0.6133710000000  0.4614610000000  0.5153190000000 1.0
C      1  0.5056280000000  0.5989890000000  0.4806610000000 1.0
C      1  0.4674410000000  0.4955260000000  0.4402400000000 1.0
C      1  0.5793800000000  0.4420330000000  0.4637840000000 1.0
C      1  0.5937560000000  0.5614680000000  0.4583760000000 1.0
C      1  0.5376860000000  0.4553560000000  0.5830610000000 1.0
C      1  0.4359210000000  0.4273980000000  0.4276110000000 1.0
C      1  0.4323290000000  0.4737190000000  0.4841680000000 1.0
C      1  0.5805700000000  0.5602200000000  0.5197710000000 1.0
C      1  0.5420280000000  0.4232920000000  0.5275100000000 1.0
C      1  0.4935550000000  0.4019480000000  0.5112420000000 1.0
C      1  0.3924090000000  0.5272000000000  0.5524940000000 1.0
C      1  0.4113370000000  0.5528700000000  0.5562730000000 1.0
C      1  0.3822460000000  0.4741460000000  0.5004570000000 1.0
C      1  0.5414080000000  0.5470060000000  0.5934770000000 1.0
C      1  0.4732060000000  0.4929580000000  0.5952910000000 1.0
C      1  0.4603750000000  0.4144540000000  0.5294110000000 1.0
C      1  0.4151980000000  0.4469450000000  0.5328000000000 1.0
C      1  0.5321550000000  0.5346100000000  0.5340690000000 1.0
C      1  0.5147610000000  0.3966170000000  0.4920890000000 1.0
C      1  0.4579560000000  0.5695300000000  0.4275880000000 1.0
C      1  0.5547570000000  0.4281890000000  0.4793900000000 1.0
C      1  0.4777780000000  0.5190500000000  0.5375660000000 1.0
C      1  0.5171060000000  0.4273240000000  0.4182600000000 1.0
C      1  0.4719360000000  0.4427900000000  0.4962260000000 1.0
C      1  0.4873730000000  0.5322540000000  0.4609390000000 1.0
C      1  0.5395900000000  0.4100170000000  0.4987120000000 1.0
C      1  0.5773420000000  0.5291500000000  0.4947980000000 1.0
C      1  0.4962350000000  0.4880190000000  0.5026520000000 1.0
C      1  0.4438070000000  0.4547140000000  0.5059660000000 1.0
C      1  0.5174500000000  0.5630540000000  0.5902060000000 1.0
C      1  0.4582340000000  0.4127330000000  0.4489280000000 1.0
C      1  0.4526230000000  0.4691320000000  0.5863810000000 1.0
C      1  0.5187270000000  0.4403960000000  0.5697510000000 1.0
C      1  0.5250760000000  0.5020950000000  0.5351610000000 1.0
C      1  0.5596470000000  0.5315800000000  0.4109520000000 1.0
C      1  0.5890610000000  0.5184130000000  0.5634720000000 1.0
C      1  0.4322160000000  0.4293600000000  0.5346100000000 1.0
C      1  0.4480250000000  0.5392410000000  0.4258720000000 1.0
C      1  0.4412030000000  0.4799570000000  0.5590790000000 1.0
C      1  0.4511570000000  0.4965460000000  0.5109890000000 1.0
C      1  0.5702610000000  0.4743460000000  0.4642510000000 1.0
C      1  0.4271890000000  0.5197340000000  0.5949030000000 1.0
C      1  0.5097710000000  0.5268100000000  0.4418200000000 1.0
C      1  0.5275000000000  0.5411390000000  0.4168870000000 1.0
C      1  0.5732390000000  0.4637580000000  0.5494600000000 1.0
C      1  0.5222410000000  0.5901800000000  0.4532260000000 1.0
C      1  0.4540990000000  0.5797390000000  0.4533880000000 1.0
C      1  0.5053800000000  0.5913690000000  0.5138720000000 1.0
C      1  0.4880770000000  0.4918570000000  0.4639520000000 1.0
C      1  0.4747980000000  0.4155880000000  0.5770170000000 1.0
C      1  0.5203170000000  0.4441490000000  0.5116140000000 1.0
C      1  0.5266680000000  0.4778380000000  0.4911270000000 1.0
C      1  0.5897700000000  0.5835860000000  0.4729340000000 1.0
C      1  0.4744520000000  0.5945740000000  0.4748170000000 1.0
C      1  0.5368560000000  0.5950540000000  0.4899710000000 1.0
C      1  0.3783020000000  0.5104400000000  0.4607320000000 1.0
C      1  0.4865630000000  0.4112330000000  0.5501730000000 1.0
C      1  0.5278210000000  0.5549210000000  0.4965040000000 1.0
C      1  0.5179340000000  0.5046760000000  0.4740220000000 1.0
C      1  0.5696930000000  0.4963160000000  0.5268800000000 1.0
C      1  0.3984630000000  0.4763080000000  0.5281340000000 1.0
C      1  0.5253460000000  0.4694930000000  0.5314910000000 1.0
C      1  0.4878790000000  0.4318230000000  0.4039410000000 1.0
C      1  0.5352350000000  0.4285590000000  0.4538850000000 1.0
C      1  0.4055290000000  0.4542810000000  0.4958080000000 1.0
C      1  0.4413140000000  0.4930960000000  0.6077360000000 1.0
C      1  0.5402580000000  0.5827760000000  0.5534200000000 1.0
C      1  0.5503210000000  0.4296610000000  0.4268880000000 1.0
END
