TITL C-2778426-5645-1369 0.0023970260060307 125000 -210.589538870753 0 0 37 (C1) n - 1
REM
REM in /home/nfs/bkarasulu/CARBON/AIRSS/Generating-Clusters/REBO/Only-C1/SD-CG/HFTN-CG
REM
REM
REM
REM
REM
REM ./C.cell (11c1c37f851c82e70ff6c80c92926a4b)
REM
REM compiler GCC version 9.2.1 20190827 (Red Hat 9.2.1-1)
REM options -cpp -mtune=generic -march=x86-64 -g -O0 -fpre-include=/usr/include/finclude/math-vector-fortran.h
REM seed 904130310 -920369221 258594992 446072620 -815198086 -1919327839 527744178 -1823631677 -1394002952 767003187 -79955300 -206060697 -898979885 -606298306 -1081662020 730504841 -292706517 725775077 469698649 2046833805 -237949423 1189762338 470127562 -289123303 17178478 143590224 448848092 -220763216 1375666238 2021483853 -1482905398 -1323277985 1534680079
REM
CELL 1.54180   50.00000   50.00000   50.00000   90.00000   90.00000   90.00000
LATT -1
SFAC C  
C      1  0.4775190000000  0.5637970000000  0.4696130000000 1.0
C      1  0.4909000000000  0.4467530000000  0.5676840000000 1.0
C      1  0.4917140000000  0.4940490000000  0.5009150000000 1.0
C      1  0.5013670000000  0.5317510000000  0.5352600000000 1.0
C      1  0.4966980000000  0.4704350000000  0.5536860000000 1.0
C      1  0.5442710000000  0.4843190000000  0.5294640000000 1.0
C      1  0.5350000000000  0.5321980000000  0.5341550000000 1.0
C      1  0.4492510000000  0.4949910000000  0.4666940000000 1.0
C      1  0.5033910000000  0.4856550000000  0.4701030000000 1.0
C      1  0.4561220000000  0.5133690000000  0.5316140000000 1.0
C      1  0.4982680000000  0.4616470000000  0.4915300000000 1.0
C      1  0.4535940000000  0.5352180000000  0.5115570000000 1.0
C      1  0.4572090000000  0.5106490000000  0.4462290000000 1.0
C      1  0.4547060000000  0.4276270000000  0.4845590000000 1.0
C      1  0.5238160000000  0.4490990000000  0.5019410000000 1.0
C      1  0.4733330000000  0.5486630000000  0.4919970000000 1.0
C      1  0.5557200000000  0.5125070000000  0.4927170000000 1.0
C      1  0.5352300000000  0.4819170000000  0.4608960000000 1.0
C      1  0.5250070000000  0.4222440000000  0.5082070000000 1.0
C      1  0.4862300000000  0.5535140000000  0.4446660000000 1.0
C      1  0.4477770000000  0.4858800000000  0.4920800000000 1.0
C      1  0.5495040000000  0.5329020000000  0.4735370000000 1.0
C      1  0.4746610000000  0.4432110000000  0.4877520000000 1.0
C      1  0.5205810000000  0.5579140000000  0.5453250000000 1.0
C      1  0.5300580000000  0.5319810000000  0.4524990000000 1.0
C      1  0.4847350000000  0.4966710000000  0.5665670000000 1.0
C      1  0.4704750000000  0.5316990000000  0.4353360000000 1.0
C      1  0.4567060000000  0.4872570000000  0.5189650000000 1.0
C      1  0.5192440000000  0.5061500000000  0.4488900000000 1.0
C      1  0.4780960000000  0.5173310000000  0.5499360000000 1.0
C      1  0.4872530000000  0.5229840000000  0.5084470000000 1.0
C      1  0.4825010000000  0.4729860000000  0.5261020000000 1.0
C      1  0.5490410000000  0.5120580000000  0.5213560000000 1.0
C      1  0.5455430000000  0.4675640000000  0.5057080000000 1.0
C      1  0.5528190000000  0.4845830000000  0.4830140000000 1.0
C      1  0.5271480000000  0.4757110000000  0.5499460000000 1.0
C      1  0.5145120000000  0.5527150000000  0.4410520000000 1.0
END
