TITL C-2778427-5640-1364 -0.0217021374340366 125000 -225.854565871814 0 0 41 (C1) n - 1
REM
REM in /home/nfs/bkarasulu/CARBON/AIRSS/Generating-Clusters/REBO/Only-C1/SD-CG/HFTN-CG
REM
REM
REM
REM
REM
REM ./C.cell (11c1c37f851c82e70ff6c80c92926a4b)
REM
REM compiler GCC version 9.2.1 20190827 (Red Hat 9.2.1-1)
REM options -cpp -mtune=generic -march=x86-64 -g -O0 -fpre-include=/usr/include/finclude/math-vector-fortran.h
REM seed 941257100 775134273 -2006180164 -399015878 631593885 -197935628 311537070 701169733 -1514588176 489227249 -748153322 723711804 -755763660 -908190643 1814360417 2068143048 1825925310 2133359680 -2021528642 1968860527 -850164644 -24774813 1478290814 1517064690 -1937558369 127511755 146930314 1385091923 -218857724 -1728050753 1410847131 287608391 -1180785345
REM
CELL 1.54180   50.00000   50.00000   50.00000   90.00000   90.00000   90.00000
LATT -1
SFAC C  
C      1  0.5004020000000  0.4185870000000  0.5614600000000 1.0
C      1  0.4791970000000  0.4925380000000  0.4170590000000 1.0
C      1  0.5088650000000  0.5208180000000  0.4829410000000 1.0
C      1  0.5307460000000  0.4528540000000  0.5106210000000 1.0
C      1  0.4879660000000  0.4963640000000  0.5600240000000 1.0
C      1  0.4434180000000  0.5099940000000  0.4418600000000 1.0
C      1  0.5030660000000  0.5642270000000  0.5277090000000 1.0
C      1  0.4752290000000  0.4684560000000  0.5607050000000 1.0
C      1  0.4902810000000  0.4701250000000  0.4656240000000 1.0
C      1  0.5233610000000  0.4559390000000  0.4488580000000 1.0
C      1  0.5021770000000  0.4764830000000  0.4344540000000 1.0
C      1  0.4505830000000  0.4908610000000  0.4222980000000 1.0
C      1  0.4379200000000  0.4817760000000  0.5287800000000 1.0
C      1  0.5478550000000  0.4538160000000  0.4899950000000 1.0
C      1  0.4896820000000  0.4862750000000  0.5130090000000 1.0
C      1  0.5483620000000  0.5357070000000  0.5263200000000 1.0
C      1  0.4769400000000  0.5187030000000  0.4785650000000 1.0
C      1  0.5422130000000  0.5102920000000  0.5168990000000 1.0
C      1  0.4626660000000  0.5279330000000  0.5026540000000 1.0
C      1  0.5281690000000  0.5593700000000  0.5698040000000 1.0
C      1  0.5072670000000  0.4641340000000  0.5259740000000 1.0
C      1  0.5443330000000  0.4669560000000  0.4651950000000 1.0
C      1  0.4415640000000  0.5057850000000  0.5177000000000 1.0
C      1  0.4984810000000  0.5885070000000  0.5183010000000 1.0
C      1  0.4500240000000  0.4665710000000  0.5480110000000 1.0
C      1  0.5139310000000  0.4772610000000  0.5561750000000 1.0
C      1  0.5286890000000  0.5580790000000  0.5420550000000 1.0
C      1  0.5459460000000  0.4959590000000  0.4658320000000 1.0
C      1  0.4841500000000  0.5427150000000  0.5248050000000 1.0
C      1  0.4670840000000  0.5244130000000  0.4508160000000 1.0
C      1  0.5575140000000  0.5657890000000  0.5256070000000 1.0
C      1  0.4851610000000  0.4887370000000  0.4852020000000 1.0
C      1  0.5140850000000  0.5059910000000  0.4306690000000 1.0
C      1  0.4984070000000  0.4469490000000  0.5539760000000 1.0
C      1  0.4542370000000  0.5309070000000  0.5359520000000 1.0
C      1  0.4878700000000  0.5215630000000  0.4294780000000 1.0
C      1  0.5339260000000  0.5089130000000  0.4889480000000 1.0
C      1  0.4813390000000  0.5097450000000  0.5332340000000 1.0
C      1  0.5014010000000  0.4402750000000  0.4652690000000 1.0
C      1  0.5355840000000  0.4905150000000  0.5360180000000 1.0
C      1  0.5399070000000  0.5091170000000  0.4411450000000 1.0
END
