TITL C-2778431-5191-232 0.00225183076357607 125000 -1008.75022194303 0 0 176 (C1) n - 1
REM
REM in /home/nfs/bkarasulu/CARBON/AIRSS/Generating-Clusters/REBO/Only-C1/SD-CG/HFTN-CG
REM
REM
REM
REM
REM
REM ./C.cell (11c1c37f851c82e70ff6c80c92926a4b)
REM
REM compiler GCC version 9.2.1 20190827 (Red Hat 9.2.1-1)
REM options -cpp -mtune=generic -march=x86-64 -g -O0 -fpre-include=/usr/include/finclude/math-vector-fortran.h
REM seed 1903856609 1707521067 1327577024 -455097293 -597252319 -533882588 465334955 -1201422719 -341982028 -1542905167 -422837677 982811792 1065717204 -403213129 761554465 2065328892 2003868327 1190471992 -1576355501 1692926310 -396361277 -474660916 1197655290 -1584062705 75558209 -2012244390 1559631143 -2100844555 1863292158 -643993250 1181622761 -458813760 138889224
REM
CELL 1.54180   50.00000   50.00000   50.00000   90.00000   90.00000   90.00000
LATT -1
SFAC C  
C      1  0.4998750000000  0.4356870000000  0.4021300000000 1.0
C      1  0.4824890000000  0.4137820000000  0.4420450000000 1.0
C      1  0.4201420000000  0.4656700000000  0.5651480000000 1.0
C      1  0.4962410000000  0.4439790000000  0.5592050000000 1.0
C      1  0.5748790000000  0.4383910000000  0.5123860000000 1.0
C      1  0.5726170000000  0.4641800000000  0.4577020000000 1.0
C      1  0.4470090000000  0.4686980000000  0.4136800000000 1.0
C      1  0.4751880000000  0.4822960000000  0.5168480000000 1.0
C      1  0.4093550000000  0.4472860000000  0.4924950000000 1.0
C      1  0.4042620000000  0.5706140000000  0.4877570000000 1.0
C      1  0.5543070000000  0.4565680000000  0.4921430000000 1.0
C      1  0.4505980000000  0.5884660000000  0.4904510000000 1.0
C      1  0.5266260000000  0.4165340000000  0.4751410000000 1.0
C      1  0.4387890000000  0.4666600000000  0.5114080000000 1.0
C      1  0.5138070000000  0.5552060000000  0.4319910000000 1.0
C      1  0.5378000000000  0.4564770000000  0.4302060000000 1.0
C      1  0.5792940000000  0.5431890000000  0.4146630000000 1.0
C      1  0.4323520000000  0.5751750000000  0.5650720000000 1.0
C      1  0.5158120000000  0.4494950000000  0.5116110000000 1.0
C      1  0.5086220000000  0.5525780000000  0.5913030000000 1.0
C      1  0.5479680000000  0.5722960000000  0.5078630000000 1.0
C      1  0.5335480000000  0.4928490000000  0.5960360000000 1.0
C      1  0.5274460000000  0.4788840000000  0.5397260000000 1.0
C      1  0.4874480000000  0.5600130000000  0.4624790000000 1.0
C      1  0.5060270000000  0.4582540000000  0.5996290000000 1.0
C      1  0.5090550000000  0.5160720000000  0.4253600000000 1.0
C      1  0.4289590000000  0.5505910000000  0.4532200000000 1.0
C      1  0.4211090000000  0.4096320000000  0.5329410000000 1.0
C      1  0.4876210000000  0.5289510000000  0.5135940000000 1.0
C      1  0.4182280000000  0.4421180000000  0.5231430000000 1.0
C      1  0.4669980000000  0.4108980000000  0.4647990000000 1.0
C      1  0.4133370000000  0.4676610000000  0.4468430000000 1.0
C      1  0.3947080000000  0.5171020000000  0.5753600000000 1.0
C      1  0.3998920000000  0.4989890000000  0.4823740000000 1.0
C      1  0.5131040000000  0.4643310000000  0.4605820000000 1.0
C      1  0.4599610000000  0.5460810000000  0.5799240000000 1.0
C      1  0.4804800000000  0.5530590000000  0.4321490000000 1.0
C      1  0.4408560000000  0.5713310000000  0.5387040000000 1.0
C      1  0.4250180000000  0.5241510000000  0.5005890000000 1.0
C      1  0.4868080000000  0.3864590000000  0.5274580000000 1.0
C      1  0.5246980000000  0.5474670000000  0.4064450000000 1.0
C      1  0.5018850000000  0.4728470000000  0.6230700000000 1.0
C      1  0.5346330000000  0.5243730000000  0.3835520000000 1.0
C      1  0.5622130000000  0.4999530000000  0.5401110000000 1.0
C      1  0.6060330000000  0.4799370000000  0.5283260000000 1.0
C      1  0.4879820000000  0.3937540000000  0.5514460000000 1.0
C      1  0.5622770000000  0.5223220000000  0.4119600000000 1.0
C      1  0.5908110000000  0.5355780000000  0.5356970000000 1.0
C      1  0.4435340000000  0.5309340000000  0.5546900000000 1.0
C      1  0.5332770000000  0.5293270000000  0.4851030000000 1.0
C      1  0.6161760000000  0.4547060000000  0.4853390000000 1.0
C      1  0.5247810000000  0.4381460000000  0.5676480000000 1.0
C      1  0.5058900000000  0.5250650000000  0.4566180000000 1.0
C      1  0.5528730000000  0.4170440000000  0.4971900000000 1.0
C      1  0.5323050000000  0.3923980000000  0.5062450000000 1.0
C      1  0.3979050000000  0.5407240000000  0.4904120000000 1.0
C      1  0.4915520000000  0.5934200000000  0.4611540000000 1.0
C      1  0.5033760000000  0.5258480000000  0.3926610000000 1.0
C      1  0.4065760000000  0.4993850000000  0.4396700000000 1.0
C      1  0.5811650000000  0.4791980000000  0.5593230000000 1.0
C      1  0.4690760000000  0.5804830000000  0.4219910000000 1.0
C      1  0.4603240000000  0.4593820000000  0.4880960000000 1.0
C      1  0.4208940000000  0.5130900000000  0.5694320000000 1.0
C      1  0.4763110000000  0.5147730000000  0.4216620000000 1.0
C      1  0.6127750000000  0.5873480000000  0.4512730000000 1.0
C      1  0.4952400000000  0.5284040000000  0.5728430000000 1.0
C      1  0.4457350000000  0.5208360000000  0.4738250000000 1.0
C      1  0.5386400000000  0.5069620000000  0.4304940000000 1.0
C      1  0.5854110000000  0.4830130000000  0.4332510000000 1.0
C      1  0.4762270000000  0.5268440000000  0.5456580000000 1.0
C      1  0.5395260000000  0.5774860000000  0.4761460000000 1.0
C      1  0.5174160000000  0.6001740000000  0.4801500000000 1.0
C      1  0.4839030000000  0.4443120000000  0.4376220000000 1.0
C      1  0.5829440000000  0.4480910000000  0.5442430000000 1.0
C      1  0.4869670000000  0.5801300000000  0.5597110000000 1.0
C      1  0.5733220000000  0.5114650000000  0.5674160000000 1.0
C      1  0.5391740000000  0.3722540000000  0.5236190000000 1.0
C      1  0.4175150000000  0.4332330000000  0.5561240000000 1.0
C      1  0.5061240000000  0.4656220000000  0.4278800000000 1.0
C      1  0.4251800000000  0.4955280000000  0.5150970000000 1.0
C      1  0.4712240000000  0.4529080000000  0.4084190000000 1.0
C      1  0.6058050000000  0.4694290000000  0.4572530000000 1.0
C      1  0.5049600000000  0.3983540000000  0.4940260000000 1.0
C      1  0.4770840000000  0.4207210000000  0.5606800000000 1.0
C      1  0.5140760000000  0.5155450000000  0.5511880000000 1.0
C      1  0.4778520000000  0.5967380000000  0.5092450000000 1.0
C      1  0.4624020000000  0.5199680000000  0.5938230000000 1.0
C      1  0.4071670000000  0.5684840000000  0.5175250000000 1.0
C      1  0.5239450000000  0.4117430000000  0.4439520000000 1.0
C      1  0.4919680000000  0.5596920000000  0.5138110000000 1.0
C      1  0.5401930000000  0.5452500000000  0.5982980000000 1.0
C      1  0.4391390000000  0.5958530000000  0.5184120000000 1.0
C      1  0.6098380000000  0.5090650000000  0.5303160000000 1.0
C      1  0.4287370000000  0.6204620000000  0.5251190000000 1.0
C      1  0.5162020000000  0.4871510000000  0.5701280000000 1.0
C      1  0.5095830000000  0.4542900000000  0.3788300000000 1.0
C      1  0.5433020000000  0.5430810000000  0.5123210000000 1.0
C      1  0.5145550000000  0.5150290000000  0.5073370000000 1.0
C      1  0.4384270000000  0.5457990000000  0.4267040000000 1.0
C      1  0.4778200000000  0.4321770000000  0.4860550000000 1.0
C      1  0.4312360000000  0.4962350000000  0.4180020000000 1.0
C      1  0.4267850000000  0.5468150000000  0.5238640000000 1.0
C      1  0.4471030000000  0.4163300000000  0.5132130000000 1.0
C      1  0.4809100000000  0.5644030000000  0.5823250000000 1.0
C      1  0.4516920000000  0.5127290000000  0.5277400000000 1.0
C      1  0.4942370000000  0.4586030000000  0.5313030000000 1.0
C      1  0.5905980000000  0.5130400000000  0.4383230000000 1.0
C      1  0.5902550000000  0.5733350000000  0.4572790000000 1.0
C      1  0.4603580000000  0.4528030000000  0.4565690000000 1.0
C      1  0.5593000000000  0.5423420000000  0.5700830000000 1.0
C      1  0.5729440000000  0.5803840000000  0.4782050000000 1.0
C      1  0.3982420000000  0.4936430000000  0.5291640000000 1.0
C      1  0.5338690000000  0.4747600000000  0.5060630000000 1.0
C      1  0.6052150000000  0.4534690000000  0.5108090000000 1.0
C      1  0.5500540000000  0.5000860000000  0.3928370000000 1.0
C      1  0.4707970000000  0.5765050000000  0.5332130000000 1.0
C      1  0.4880820000000  0.4985870000000  0.3962350000000 1.0
C      1  0.4974950000000  0.4926810000000  0.5356300000000 1.0
C      1  0.5702140000000  0.5257620000000  0.5111020000000 1.0
C      1  0.5109870000000  0.4945250000000  0.4708080000000 1.0
C      1  0.5789140000000  0.5630990000000  0.5347810000000 1.0
C      1  0.4351330000000  0.4476880000000  0.5887000000000 1.0
C      1  0.4382820000000  0.4596250000000  0.4408660000000 1.0
C      1  0.6009690000000  0.5197500000000  0.5008360000000 1.0
C      1  0.4664920000000  0.5282840000000  0.4511020000000 1.0
C      1  0.5008720000000  0.5715320000000  0.4886510000000 1.0
C      1  0.4145420000000  0.5210780000000  0.4622230000000 1.0
C      1  0.5090990000000  0.5677080000000  0.5403260000000 1.0
C      1  0.5310820000000  0.5880780000000  0.5295670000000 1.0
C      1  0.5028110000000  0.4754280000000  0.3995350000000 1.0
C      1  0.5209790000000  0.4291350000000  0.4225340000000 1.0
C      1  0.5390410000000  0.4250500000000  0.5487750000000 1.0
C      1  0.4761070000000  0.6005250000000  0.4364070000000 1.0
C      1  0.5359740000000  0.4287720000000  0.5222950000000 1.0
C      1  0.5614600000000  0.4538240000000  0.5705020000000 1.0
C      1  0.5922370000000  0.5569590000000  0.3952550000000 1.0
C      1  0.5375410000000  0.4595270000000  0.5895430000000 1.0
C      1  0.6068480000000  0.4933130000000  0.4814030000000 1.0
C      1  0.5518160000000  0.5155590000000  0.5914000000000 1.0
C      1  0.5074720000000  0.6037310000000  0.5106810000000 1.0
C      1  0.4305210000000  0.5729820000000  0.4732740000000 1.0
C      1  0.5096630000000  0.4998210000000  0.6157740000000 1.0
C      1  0.5552560000000  0.4796920000000  0.4195640000000 1.0
C      1  0.5812520000000  0.4757590000000  0.4879490000000 1.0
C      1  0.3756330000000  0.5022150000000  0.5157920000000 1.0
C      1  0.5676180000000  0.5249910000000  0.4604850000000 1.0
C      1  0.5803580000000  0.5779970000000  0.5082370000000 1.0
C      1  0.4280350000000  0.4240010000000  0.4888900000000 1.0
C      1  0.4385000000000  0.4108310000000  0.4659120000000 1.0
C      1  0.4462610000000  0.4617080000000  0.5435540000000 1.0
C      1  0.3987690000000  0.4834650000000  0.5542220000000 1.0
C      1  0.5251280000000  0.5397370000000  0.5367490000000 1.0
C      1  0.5336280000000  0.5711910000000  0.5776800000000 1.0
C      1  0.5068750000000  0.4408230000000  0.4832750000000 1.0
C      1  0.5265970000000  0.5519540000000  0.4622560000000 1.0
C      1  0.5446570000000  0.5033570000000  0.5133650000000 1.0
C      1  0.4460330000000  0.4236950000000  0.5727660000000 1.0
C      1  0.4538710000000  0.4313320000000  0.5402210000000 1.0
C      1  0.4594170000000  0.5043160000000  0.4965870000000 1.0
C      1  0.3948660000000  0.4686550000000  0.4822310000000 1.0
C      1  0.4597000000000  0.4782490000000  0.5679660000000 1.0
C      1  0.4832090000000  0.5322040000000  0.4809540000000 1.0
C      1  0.5838150000000  0.5487920000000  0.4436080000000 1.0
C      1  0.5413660000000  0.5080890000000  0.4622990000000 1.0
C      1  0.4464950000000  0.5201250000000  0.4174740000000 1.0
C      1  0.4835860000000  0.4843220000000  0.4844200000000 1.0
C      1  0.4465660000000  0.5001070000000  0.5799820000000 1.0
C      1  0.5747630000000  0.4777080000000  0.5190790000000 1.0
C      1  0.4877230000000  0.4699040000000  0.5749690000000 1.0
C      1  0.5522450000000  0.4614050000000  0.5386790000000 1.0
C      1  0.3838390000000  0.4775890000000  0.4529040000000 1.0
C      1  0.5440930000000  0.4521840000000  0.4619320000000 1.0
C      1  0.4742840000000  0.4037870000000  0.5034490000000 1.0
C      1  0.4903370000000  0.5154820000000  0.6036050000000 1.0
C      1  0.6004400000000  0.5225890000000  0.4687600000000 1.0
C      1  0.5510000000000  0.5689960000000  0.5501980000000 1.0
END
