TITL C-2778435-5768-1461 -0.00226637953508123 125000 -335.487342133818 0 0 60 (C1) n - 1
REM
REM in /home/nfs/bkarasulu/CARBON/AIRSS/Generating-Clusters/REBO/Only-C1/SD-CG/HFTN-CG
REM
REM
REM
REM
REM
REM ./C.cell (11c1c37f851c82e70ff6c80c92926a4b)
REM
REM compiler GCC version 9.2.1 20190827 (Red Hat 9.2.1-1)
REM options -cpp -mtune=generic -march=x86-64 -g -O0 -fpre-include=/usr/include/finclude/math-vector-fortran.h
REM seed 2038190265 1546739001 1642229850 1982867627 -1155693554 1166555697 1465806409 -1290045424 637585159 1957318003 1534657270 349655000 711285621 -1381669431 -191844450 212970878 -1884324490 874115339 -272350327 13154529 1798956659 1165641875 -2092096758 -150929621 32178680 -1755349594 484797712 -148696336 -1827320910 2071453842 -419448413 -1075187336 1211720599
REM
CELL 1.54180   50.00000   50.00000   50.00000   90.00000   90.00000   90.00000
LATT -1
SFAC C  
C      1  0.4864890000000  0.5340280000000  0.4773260000000 1.0
C      1  0.5037460000000  0.4609320000000  0.5586030000000 1.0
C      1  0.4362700000000  0.5177770000000  0.5051280000000 1.0
C      1  0.4601860000000  0.5136390000000  0.5583790000000 1.0
C      1  0.4638630000000  0.4603780000000  0.5591410000000 1.0
C      1  0.5235520000000  0.5619620000000  0.5079340000000 1.0
C      1  0.5533550000000  0.5103400000000  0.5290580000000 1.0
C      1  0.4553430000000  0.5722650000000  0.5218760000000 1.0
C      1  0.4997900000000  0.4452140000000  0.4885110000000 1.0
C      1  0.5325370000000  0.5186010000000  0.4479970000000 1.0
C      1  0.4839230000000  0.4481540000000  0.4584550000000 1.0
C      1  0.5621730000000  0.4501660000000  0.4828950000000 1.0
C      1  0.5385550000000  0.5390080000000  0.5365410000000 1.0
C      1  0.5584220000000  0.5056200000000  0.4643740000000 1.0
C      1  0.4449530000000  0.5239990000000  0.5366430000000 1.0
C      1  0.5688800000000  0.4588360000000  0.5147100000000 1.0
C      1  0.5350720000000  0.4576840000000  0.4547420000000 1.0
C      1  0.5311420000000  0.4383270000000  0.4824400000000 1.0
C      1  0.4898320000000  0.5640650000000  0.5403590000000 1.0
C      1  0.5346850000000  0.5565140000000  0.4786470000000 1.0
C      1  0.5641830000000  0.4742540000000  0.4591690000000 1.0
C      1  0.5394500000000  0.4787980000000  0.5569970000000 1.0
C      1  0.5651880000000  0.5122810000000  0.4971970000000 1.0
C      1  0.4345130000000  0.4829290000000  0.4514760000000 1.0
C      1  0.5092480000000  0.5396490000000  0.5538930000000 1.0
C      1  0.4617570000000  0.4518650000000  0.4805530000000 1.0
C      1  0.5153130000000  0.5418990000000  0.4617110000000 1.0
C      1  0.4816570000000  0.4752020000000  0.4389430000000 1.0
C      1  0.5228250000000  0.5030720000000  0.5434440000000 1.0
C      1  0.4789850000000  0.5632940000000  0.4909080000000 1.0
C      1  0.4368140000000  0.4893260000000  0.5039690000000 1.0
C      1  0.4589530000000  0.4497580000000  0.5308500000000 1.0
C      1  0.4943760000000  0.5707230000000  0.5133050000000 1.0
C      1  0.4505420000000  0.4790090000000  0.5264050000000 1.0
C      1  0.5104350000000  0.4997190000000  0.4319070000000 1.0
C      1  0.4453010000000  0.5314390000000  0.4802860000000 1.0
C      1  0.5357140000000  0.4506880000000  0.5126600000000 1.0
C      1  0.4814690000000  0.5214370000000  0.5147540000000 1.0
C      1  0.4964100000000  0.4742720000000  0.5355680000000 1.0
C      1  0.4944770000000  0.5268920000000  0.4393930000000 1.0
C      1  0.5171260000000  0.4839860000000  0.4597810000000 1.0
C      1  0.4988820000000  0.4791650000000  0.4846060000000 1.0
C      1  0.5081140000000  0.5341770000000  0.5210770000000 1.0
C      1  0.4718200000000  0.4400150000000  0.5074070000000 1.0
C      1  0.4648370000000  0.5212250000000  0.4541870000000 1.0
C      1  0.4517280000000  0.4806660000000  0.4792400000000 1.0
C      1  0.4509030000000  0.5592790000000  0.4843520000000 1.0
C      1  0.5289930000000  0.5077920000000  0.4809670000000 1.0
C      1  0.5276440000000  0.5015440000000  0.5091390000000 1.0
C      1  0.4601760000000  0.4932890000000  0.4422800000000 1.0
C      1  0.5748030000000  0.4813540000000  0.4910900000000 1.0
C      1  0.4601150000000  0.5454240000000  0.5211440000000 1.0
C      1  0.5149810000000  0.4730420000000  0.5128190000000 1.0
C      1  0.4943520000000  0.5106930000000  0.5590050000000 1.0
C      1  0.4758960000000  0.4923750000000  0.5286320000000 1.0
C      1  0.5506120000000  0.4586290000000  0.5419580000000 1.0
C      1  0.4727510000000  0.4857610000000  0.5678520000000 1.0
C      1  0.5077260000000  0.4538730000000  0.4358370000000 1.0
C      1  0.5508710000000  0.5414670000000  0.5045850000000 1.0
C      1  0.4772940000000  0.5022290000000  0.4868950000000 1.0
END
