TITL C-2778429-3646-946 -0.00504576294233824 125000 -681.124719645346 0 0 118 (C1) n - 1
REM
REM in /home/nfs/bkarasulu/CARBON/AIRSS/Generating-Clusters/REBO/Only-C1/SD-CG/HFTN-CG
REM
REM
REM
REM
REM
REM ./C.cell (11c1c37f851c82e70ff6c80c92926a4b)
REM
REM compiler GCC version 9.2.1 20190827 (Red Hat 9.2.1-1)
REM options -cpp -mtune=generic -march=x86-64 -g -O0 -fpre-include=/usr/include/finclude/math-vector-fortran.h
REM seed 1702413767 898187274 -765617555 452797661 462206793 1029602559 -2061070920 1129392929 333356111 393785016 -68916433 -1349876565 4971268 -1905246705 210532099 -982803477 -841925656 176247229 489583328 -8332086 2140912850 1798999307 361833254 1821050096 388164255 -1070579007 509409186 -1040522878 853902142 -1728648349 -1282990016 -1873151589 -765105545
REM
CELL 1.54180   50.00000   50.00000   50.00000   90.00000   90.00000   90.00000
LATT -1
SFAC C  
C      1  0.4818050000000  0.4522700000000  0.5042400000000 1.0
C      1  0.5898010000000  0.4331210000000  0.4952990000000 1.0
C      1  0.4566060000000  0.5323710000000  0.5425200000000 1.0
C      1  0.4965030000000  0.5796300000000  0.4954120000000 1.0
C      1  0.4566350000000  0.4590480000000  0.4377340000000 1.0
C      1  0.4107590000000  0.4545870000000  0.5195780000000 1.0
C      1  0.4941510000000  0.5200380000000  0.4995690000000 1.0
C      1  0.5945190000000  0.5151580000000  0.4940610000000 1.0
C      1  0.4733680000000  0.5722340000000  0.5722440000000 1.0
C      1  0.5220460000000  0.5011510000000  0.5796910000000 1.0
C      1  0.5496150000000  0.5555990000000  0.4555400000000 1.0
C      1  0.4694240000000  0.5384550000000  0.5727130000000 1.0
C      1  0.4463360000000  0.5008210000000  0.5981380000000 1.0
C      1  0.4808580000000  0.5136080000000  0.4241300000000 1.0
C      1  0.5197360000000  0.5309680000000  0.5805860000000 1.0
C      1  0.5386950000000  0.4311990000000  0.4436950000000 1.0
C      1  0.4991680000000  0.4858080000000  0.4021640000000 1.0
C      1  0.5705730000000  0.5113590000000  0.5716640000000 1.0
C      1  0.5514140000000  0.5391250000000  0.4839870000000 1.0
C      1  0.4805620000000  0.4206640000000  0.5055900000000 1.0
C      1  0.5568960000000  0.5357400000000  0.4336680000000 1.0
C      1  0.5104330000000  0.4565970000000  0.5724670000000 1.0
C      1  0.4287450000000  0.5217600000000  0.5425010000000 1.0
C      1  0.4935890000000  0.4735040000000  0.5245900000000 1.0
C      1  0.5112320000000  0.4184930000000  0.4399010000000 1.0
C      1  0.4714200000000  0.5610390000000  0.4551810000000 1.0
C      1  0.5526740000000  0.4655490000000  0.4842350000000 1.0
C      1  0.5385760000000  0.4650890000000  0.5747480000000 1.0
C      1  0.4760460000000  0.5603860000000  0.5404330000000 1.0
C      1  0.5841830000000  0.5424480000000  0.4891490000000 1.0
C      1  0.4936420000000  0.5518310000000  0.5124020000000 1.0
C      1  0.4386160000000  0.4922100000000  0.4940720000000 1.0
C      1  0.5503320000000  0.4919130000000  0.5852780000000 1.0
C      1  0.5793810000000  0.4667580000000  0.4447180000000 1.0
C      1  0.5055710000000  0.4383350000000  0.5468360000000 1.0
C      1  0.5468160000000  0.4664560000000  0.5165690000000 1.0
C      1  0.4531500000000  0.5581220000000  0.4199170000000 1.0
C      1  0.4359590000000  0.4843290000000  0.5730520000000 1.0
C      1  0.5617010000000  0.4383710000000  0.4674120000000 1.0
C      1  0.5874850000000  0.5030190000000  0.5235460000000 1.0
C      1  0.4546980000000  0.4562930000000  0.5684790000000 1.0
C      1  0.4886260000000  0.5773990000000  0.4669370000000 1.0
C      1  0.5692420000000  0.4406290000000  0.5111050000000 1.0
C      1  0.4692780000000  0.4841270000000  0.4185180000000 1.0
C      1  0.4428990000000  0.5778530000000  0.5135430000000 1.0
C      1  0.4705120000000  0.4968910000000  0.5019770000000 1.0
C      1  0.5215960000000  0.5647230000000  0.4470890000000 1.0
C      1  0.5184780000000  0.5682940000000  0.5509040000000 1.0
C      1  0.4501810000000  0.4863560000000  0.4534830000000 1.0
C      1  0.4941090000000  0.4409770000000  0.4339840000000 1.0
C      1  0.5005410000000  0.5522590000000  0.5709650000000 1.0
C      1  0.4774360000000  0.4974550000000  0.5352630000000 1.0
C      1  0.3922100000000  0.4941770000000  0.5438600000000 1.0
C      1  0.4794130000000  0.5468340000000  0.4184810000000 1.0
C      1  0.4348500000000  0.4507470000000  0.4628190000000 1.0
C      1  0.4544710000000  0.4397380000000  0.5440550000000 1.0
C      1  0.4172880000000  0.5635560000000  0.5208860000000 1.0
C      1  0.5595170000000  0.4508160000000  0.4294780000000 1.0
C      1  0.4801610000000  0.4140740000000  0.4776510000000 1.0
C      1  0.4246300000000  0.5215770000000  0.4880550000000 1.0
C      1  0.5565440000000  0.4564350000000  0.5540190000000 1.0
C      1  0.4673240000000  0.4904550000000  0.5623650000000 1.0
C      1  0.4152580000000  0.4707280000000  0.4699690000000 1.0
C      1  0.5684320000000  0.4919860000000  0.4527300000000 1.0
C      1  0.4119650000000  0.5307850000000  0.5157780000000 1.0
C      1  0.4792560000000  0.4280860000000  0.5358270000000 1.0
C      1  0.5436290000000  0.4760020000000  0.4258480000000 1.0
C      1  0.5235430000000  0.5287870000000  0.5252490000000 1.0
C      1  0.5036350000000  0.5444570000000  0.4384270000000 1.0
C      1  0.5694950000000  0.5503290000000  0.5356600000000 1.0
C      1  0.5484820000000  0.5083630000000  0.5304020000000 1.0
C      1  0.4286010000000  0.5513180000000  0.4720390000000 1.0
C      1  0.4699150000000  0.5287730000000  0.4527060000000 1.0
C      1  0.5670100000000  0.4818790000000  0.5369020000000 1.0
C      1  0.5163520000000  0.5003250000000  0.4819820000000 1.0
C      1  0.5120070000000  0.5156610000000  0.4120440000000 1.0
C      1  0.4523790000000  0.4615290000000  0.5003390000000 1.0
C      1  0.4166090000000  0.5002120000000  0.5570460000000 1.0
C      1  0.5227590000000  0.4385450000000  0.5011770000000 1.0
C      1  0.4468150000000  0.5536150000000  0.4960580000000 1.0
C      1  0.5700550000000  0.4915550000000  0.4960050000000 1.0
C      1  0.5726840000000  0.5708200000000  0.4741610000000 1.0
C      1  0.4661650000000  0.4372740000000  0.4622460000000 1.0
C      1  0.5022700000000  0.5192430000000  0.4572020000000 1.0
C      1  0.4407880000000  0.5600230000000  0.4479350000000 1.0
C      1  0.4596460000000  0.5216650000000  0.5956080000000 1.0
C      1  0.5542390000000  0.4331160000000  0.5369380000000 1.0
C      1  0.5441850000000  0.5109450000000  0.4964170000000 1.0
C      1  0.5396240000000  0.4256780000000  0.4830910000000 1.0
C      1  0.5351230000000  0.5273590000000  0.4175180000000 1.0
C      1  0.4932930000000  0.4583600000000  0.4618170000000 1.0
C      1  0.4697890000000  0.4762480000000  0.4748720000000 1.0
C      1  0.5445930000000  0.5267580000000  0.5589770000000 1.0
C      1  0.5271650000000  0.4291620000000  0.5278560000000 1.0
C      1  0.5272570000000  0.4575780000000  0.4624200000000 1.0
C      1  0.4737360000000  0.5856590000000  0.5199870000000 1.0
C      1  0.5024060000000  0.5165970000000  0.5384750000000 1.0
C      1  0.5307450000000  0.4816950000000  0.4029000000000 1.0
C      1  0.5003910000000  0.4021820000000  0.4610640000000 1.0
C      1  0.5761310000000  0.5165790000000  0.4414010000000 1.0
C      1  0.4442400000000  0.5165710000000  0.4606680000000 1.0
C      1  0.5363240000000  0.4888980000000  0.4564010000000 1.0
C      1  0.5120870000000  0.4924180000000  0.5545310000000 1.0
C      1  0.5364750000000  0.5765680000000  0.5153860000000 1.0
C      1  0.5682290000000  0.5665700000000  0.5076800000000 1.0
C      1  0.4656970000000  0.5352890000000  0.5112220000000 1.0
C      1  0.5328660000000  0.5480840000000  0.5069380000000 1.0
C      1  0.4076170000000  0.4792670000000  0.5003870000000 1.0
C      1  0.5225590000000  0.4678290000000  0.5362770000000 1.0
C      1  0.5100340000000  0.4698380000000  0.4960580000000 1.0
C      1  0.3943140000000  0.5019970000000  0.5169300000000 1.0
C      1  0.5439990000000  0.5565760000000  0.5491840000000 1.0
C      1  0.4371310000000  0.4477410000000  0.5227220000000 1.0
C      1  0.4867460000000  0.4561650000000  0.4117150000000 1.0
C      1  0.5073240000000  0.5863850000000  0.5271410000000 1.0
C      1  0.4851540000000  0.4676610000000  0.5785970000000 1.0
C      1  0.4179860000000  0.4961230000000  0.4532470000000 1.0
C      1  0.5817630000000  0.5253140000000  0.5446980000000 1.0
END
