TITL C-2778425-5191-888 0.00154177706297933 125000 -357.898088998031 0 0 62 (C1) n - 1
REM
REM in /home/nfs/bkarasulu/CARBON/AIRSS/Generating-Clusters/REBO/Only-C1/SD-CG/HFTN-CG
REM
REM
REM
REM
REM
REM ./C.cell (11c1c37f851c82e70ff6c80c92926a4b)
REM
REM compiler GCC version 9.2.1 20190827 (Red Hat 9.2.1-1)
REM options -cpp -mtune=generic -march=x86-64 -g -O0 -fpre-include=/usr/include/finclude/math-vector-fortran.h
REM seed 655886834 -1328080945 -524796538 -1122670838 -1740910523 1243698041 1588540433 1978885350 852852691 1890321966 -2034350831 172100426 1832372689 -781942964 -2117777730 -1277105230 1802418514 -2020242028 -1670638026 -1249624529 -991836261 -1651627292 1674911848 -601743090 1702354012 2109126338 -1981511828 -1605874790 -1177106382 549602709 -442904493 -1273790813 565482468
REM
CELL 1.54180   50.00000   50.00000   50.00000   90.00000   90.00000   90.00000
LATT -1
SFAC C  
C      1  0.4815660000000  0.5538710000000  0.4700350000000 1.0
C      1  0.4116150000000  0.4959430000000  0.4930300000000 1.0
C      1  0.4562340000000  0.5512580000000  0.5229390000000 1.0
C      1  0.5423940000000  0.5679590000000  0.5264820000000 1.0
C      1  0.5201960000000  0.4497070000000  0.5240300000000 1.0
C      1  0.5024620000000  0.5614060000000  0.4481730000000 1.0
C      1  0.5199110000000  0.5280150000000  0.5804400000000 1.0
C      1  0.4704110000000  0.4317300000000  0.5346660000000 1.0
C      1  0.5221800000000  0.4748370000000  0.5012630000000 1.0
C      1  0.4295520000000  0.4858400000000  0.4730820000000 1.0
C      1  0.5076000000000  0.4369230000000  0.4662230000000 1.0
C      1  0.5450440000000  0.5149940000000  0.5253090000000 1.0
C      1  0.5543670000000  0.5384060000000  0.4816820000000 1.0
C      1  0.5157430000000  0.5606940000000  0.5213470000000 1.0
C      1  0.5691670000000  0.5586870000000  0.5236280000000 1.0
C      1  0.4975550000000  0.5029810000000  0.5371810000000 1.0
C      1  0.5657990000000  0.5147230000000  0.5429990000000 1.0
C      1  0.4913770000000  0.4748080000000  0.4410010000000 1.0
C      1  0.4877580000000  0.5135310000000  0.4273970000000 1.0
C      1  0.5551920000000  0.5368010000000  0.4541250000000 1.0
C      1  0.4332500000000  0.4638760000000  0.5269610000000 1.0
C      1  0.4833000000000  0.4766840000000  0.5466730000000 1.0
C      1  0.4678470000000  0.5137600000000  0.4904550000000 1.0
C      1  0.5303760000000  0.5281180000000  0.4985250000000 1.0
C      1  0.5533270000000  0.4171060000000  0.5415200000000 1.0
C      1  0.4722110000000  0.5653060000000  0.5396840000000 1.0
C      1  0.4381190000000  0.4584550000000  0.4772080000000 1.0
C      1  0.5153530000000  0.5365890000000  0.4576860000000 1.0
C      1  0.5127950000000  0.4430530000000  0.4929800000000 1.0
C      1  0.4513310000000  0.5269150000000  0.5101760000000 1.0
C      1  0.4660670000000  0.5093060000000  0.4376800000000 1.0
C      1  0.5319220000000  0.4388930000000  0.4508870000000 1.0
C      1  0.5045690000000  0.5478540000000  0.4944110000000 1.0
C      1  0.4589270000000  0.5400760000000  0.4621170000000 1.0
C      1  0.5098660000000  0.4970290000000  0.4563020000000 1.0
C      1  0.4364840000000  0.4462570000000  0.5034660000000 1.0
C      1  0.5788650000000  0.5400130000000  0.5433600000000 1.0
C      1  0.5207820000000  0.5114320000000  0.4273780000000 1.0
C      1  0.4949890000000  0.4496770000000  0.5399730000000 1.0
C      1  0.5359380000000  0.5264300000000  0.6002360000000 1.0
C      1  0.4487320000000  0.5103800000000  0.5670880000000 1.0
C      1  0.4253680000000  0.5159860000000  0.5144850000000 1.0
C      1  0.4986310000000  0.5564670000000  0.5433390000000 1.0
C      1  0.5447710000000  0.5286850000000  0.4308710000000 1.0
C      1  0.5454100000000  0.4435290000000  0.5390640000000 1.0
C      1  0.4164330000000  0.4863440000000  0.5234510000000 1.0
C      1  0.4930840000000  0.4750270000000  0.4124810000000 1.0
C      1  0.5179120000000  0.5010040000000  0.5153620000000 1.0
C      1  0.4847670000000  0.4504540000000  0.4544210000000 1.0
C      1  0.5115590000000  0.4931300000000  0.4026650000000 1.0
C      1  0.4568260000000  0.4599980000000  0.5440080000000 1.0
C      1  0.4724210000000  0.5132560000000  0.5578390000000 1.0
C      1  0.5601660000000  0.4646020000000  0.5501470000000 1.0
C      1  0.4576480000000  0.4471350000000  0.4603970000000 1.0
C      1  0.5455780000000  0.4624310000000  0.4567120000000 1.0
C      1  0.4496740000000  0.5070640000000  0.4647430000000 1.0
C      1  0.4544840000000  0.4244950000000  0.5111890000000 1.0
C      1  0.5009790000000  0.5298870000000  0.5570540000000 1.0
C      1  0.5315400000000  0.4810030000000  0.4715180000000 1.0
C      1  0.5746360000000  0.5516320000000  0.4965150000000 1.0
C      1  0.4967480000000  0.5181000000000  0.4793290000000 1.0
C      1  0.5701940000000  0.4894430000000  0.5546140000000 1.0
END
