TITL C-2778432-5617-272 0.00531961777459044 125000 -924.267756653357 0 0 157 (C1) n - 1
REM
REM in /home/nfs/bkarasulu/CARBON/AIRSS/Generating-Clusters/REBO/Only-C1/SD-CG/HFTN-CG
REM
REM
REM
REM
REM
REM ./C.cell (11c1c37f851c82e70ff6c80c92926a4b)
REM
REM compiler GCC version 9.2.1 20190827 (Red Hat 9.2.1-1)
REM options -cpp -mtune=generic -march=x86-64 -g -O0 -fpre-include=/usr/include/finclude/math-vector-fortran.h
REM seed -917612345 1132877362 -571214617 901259279 -1121605580 -1398019784 1813260884 1942249971 1463460793 -1109633913 -1844410698 1211742334 1522383036 815672778 -77374268 -1095702454 -2029978111 1505361140 -733434699 1762297379 -1926483764 4258817 2051355359 1961392886 -1477380057 952243566 1242614813 -1636465263 -1492336242 583181553 -1075427776 602765369 572289791
REM
CELL 1.54180   50.00000   50.00000   50.00000   90.00000   90.00000   90.00000
LATT -1
SFAC C  
C      1  0.5555830000000  0.4612430000000  0.6000350000000 1.0
C      1  0.4551490000000  0.5555400000000  0.4123640000000 1.0
C      1  0.4707870000000  0.4644770000000  0.5893920000000 1.0
C      1  0.4343320000000  0.5921140000000  0.5018500000000 1.0
C      1  0.4289040000000  0.4206440000000  0.5156590000000 1.0
C      1  0.5411990000000  0.5147530000000  0.4620870000000 1.0
C      1  0.5646380000000  0.4919560000000  0.5042940000000 1.0
C      1  0.4174250000000  0.5145510000000  0.4838140000000 1.0
C      1  0.5418400000000  0.5109530000000  0.5499840000000 1.0
C      1  0.5417810000000  0.4272850000000  0.4067740000000 1.0
C      1  0.4231190000000  0.5624640000000  0.5469380000000 1.0
C      1  0.4652350000000  0.4446210000000  0.4211870000000 1.0
C      1  0.3894480000000  0.4991960000000  0.5078070000000 1.0
C      1  0.5964520000000  0.4850920000000  0.5274460000000 1.0
C      1  0.4851410000000  0.4214220000000  0.5109980000000 1.0
C      1  0.5498540000000  0.4775660000000  0.4505560000000 1.0
C      1  0.4452320000000  0.5123080000000  0.5003270000000 1.0
C      1  0.5250470000000  0.4861300000000  0.6152380000000 1.0
C      1  0.4377990000000  0.5021320000000  0.4227430000000 1.0
C      1  0.5662800000000  0.4994630000000  0.4299440000000 1.0
C      1  0.5350370000000  0.5595740000000  0.5039240000000 1.0
C      1  0.4435320000000  0.4525700000000  0.4378120000000 1.0
C      1  0.4479580000000  0.5171070000000  0.4585270000000 1.0
C      1  0.5146330000000  0.4416900000000  0.5702740000000 1.0
C      1  0.4136490000000  0.4834260000000  0.5622050000000 1.0
C      1  0.5303420000000  0.5205090000000  0.5806340000000 1.0
C      1  0.5709670000000  0.5483720000000  0.5713760000000 1.0
C      1  0.4618440000000  0.5060290000000  0.4090980000000 1.0
C      1  0.4492720000000  0.4107590000000  0.4697710000000 1.0
C      1  0.5863160000000  0.5605030000000  0.5142910000000 1.0
C      1  0.5168960000000  0.4310920000000  0.4195350000000 1.0
C      1  0.4777660000000  0.4175160000000  0.4779700000000 1.0
C      1  0.4923390000000  0.4437900000000  0.4618790000000 1.0
C      1  0.4850550000000  0.5417990000000  0.5415540000000 1.0
C      1  0.5033530000000  0.5751740000000  0.4480350000000 1.0
C      1  0.5901480000000  0.4709580000000  0.4999110000000 1.0
C      1  0.4614900000000  0.5630590000000  0.4951160000000 1.0
C      1  0.4580040000000  0.4694070000000  0.5098450000000 1.0
C      1  0.5765200000000  0.4878370000000  0.4663440000000 1.0
C      1  0.5375660000000  0.3827730000000  0.5052060000000 1.0
C      1  0.5615960000000  0.4881580000000  0.5952850000000 1.0
C      1  0.4927390000000  0.4717980000000  0.3883090000000 1.0
C      1  0.4361860000000  0.4024840000000  0.4971370000000 1.0
C      1  0.5090120000000  0.5717860000000  0.5126150000000 1.0
C      1  0.5494760000000  0.5653290000000  0.5756420000000 1.0
C      1  0.5211010000000  0.5521650000000  0.5719260000000 1.0
C      1  0.4832940000000  0.5505000000000  0.5127400000000 1.0
C      1  0.5153760000000  0.5321680000000  0.5459830000000 1.0
C      1  0.5640690000000  0.5737820000000  0.4992590000000 1.0
C      1  0.5559360000000  0.4502130000000  0.6254330000000 1.0
C      1  0.4651340000000  0.5323950000000  0.3991110000000 1.0
C      1  0.4353550000000  0.4369790000000  0.4602700000000 1.0
C      1  0.5087810000000  0.5895120000000  0.5399640000000 1.0
C      1  0.4112990000000  0.4941440000000  0.5239420000000 1.0
C      1  0.4521380000000  0.5891120000000  0.4447400000000 1.0
C      1  0.4796930000000  0.5899830000000  0.5127800000000 1.0
C      1  0.5196510000000  0.4900120000000  0.4535490000000 1.0
C      1  0.5044870000000  0.4925880000000  0.4961360000000 1.0
C      1  0.4849630000000  0.4205720000000  0.5379320000000 1.0
C      1  0.4441810000000  0.4461000000000  0.5306790000000 1.0
C      1  0.4322050000000  0.4791070000000  0.4394230000000 1.0
C      1  0.5318700000000  0.4507150000000  0.4893030000000 1.0
C      1  0.4638020000000  0.5090930000000  0.5157860000000 1.0
C      1  0.5523010000000  0.3875970000000  0.4624240000000 1.0
C      1  0.5037930000000  0.4913980000000  0.5623970000000 1.0
C      1  0.5032770000000  0.5367310000000  0.4943650000000 1.0
C      1  0.4508470000000  0.5025070000000  0.5529500000000 1.0
C      1  0.4970640000000  0.5961920000000  0.4691170000000 1.0
C      1  0.5649190000000  0.5130210000000  0.5256590000000 1.0
C      1  0.5377230000000  0.5372960000000  0.4384320000000 1.0
C      1  0.5827460000000  0.5383810000000  0.4653110000000 1.0
C      1  0.4304630000000  0.5523490000000  0.4286960000000 1.0
C      1  0.4668770000000  0.5430480000000  0.4482040000000 1.0
C      1  0.4802030000000  0.4932000000000  0.5954980000000 1.0
C      1  0.4172090000000  0.5419630000000  0.4998050000000 1.0
C      1  0.5201180000000  0.4320230000000  0.4493270000000 1.0
C      1  0.5349810000000  0.4842800000000  0.5298250000000 1.0
C      1  0.4903780000000  0.5219170000000  0.4482260000000 1.0
C      1  0.5895170000000  0.5290640000000  0.5261780000000 1.0
C      1  0.4980950000000  0.4686310000000  0.4394890000000 1.0
C      1  0.5410240000000  0.4960840000000  0.4143720000000 1.0
C      1  0.4701180000000  0.4767850000000  0.5607030000000 1.0
C      1  0.5530240000000  0.4093350000000  0.4798510000000 1.0
C      1  0.5008640000000  0.4454900000000  0.4942120000000 1.0
C      1  0.5168200000000  0.5109840000000  0.5191030000000 1.0
C      1  0.5131100000000  0.6113490000000  0.5141960000000 1.0
C      1  0.5189620000000  0.3874810000000  0.4843860000000 1.0
C      1  0.4252220000000  0.4546690000000  0.4808770000000 1.0
C      1  0.4515320000000  0.6093460000000  0.5334550000000 1.0
C      1  0.5317070000000  0.5398530000000  0.4778680000000 1.0
C      1  0.4591670000000  0.4930460000000  0.4681960000000 1.0
C      1  0.4052040000000  0.5177950000000  0.4534120000000 1.0
C      1  0.5427240000000  0.4202890000000  0.5521730000000 1.0
C      1  0.5242590000000  0.4727250000000  0.4178960000000 1.0
C      1  0.5042490000000  0.5463750000000  0.4619870000000 1.0
C      1  0.5409610000000  0.5313820000000  0.5157220000000 1.0
C      1  0.5579420000000  0.4569790000000  0.5477900000000 1.0
C      1  0.3977800000000  0.5671980000000  0.5587530000000 1.0
C      1  0.5634210000000  0.5201640000000  0.5823640000000 1.0
C      1  0.4536130000000  0.6182210000000  0.5017780000000 1.0
C      1  0.5974760000000  0.5356140000000  0.4934940000000 1.0
C      1  0.5261320000000  0.5207120000000  0.4168990000000 1.0
C      1  0.4903420000000  0.4282270000000  0.5652550000000 1.0
C      1  0.4823410000000  0.5101320000000  0.5438090000000 1.0
C      1  0.5189870000000  0.6024320000000  0.4867230000000 1.0
C      1  0.5254110000000  0.4677220000000  0.5546920000000 1.0
C      1  0.5671750000000  0.4259950000000  0.4170830000000 1.0
C      1  0.4897920000000  0.4969140000000  0.4682280000000 1.0
C      1  0.5076970000000  0.4076390000000  0.4690970000000 1.0
C      1  0.5610990000000  0.4031440000000  0.5124080000000 1.0
C      1  0.5291250000000  0.4180020000000  0.5310040000000 1.0
C      1  0.4726350000000  0.5905770000000  0.4821100000000 1.0
C      1  0.4905040000000  0.4692960000000  0.5094450000000 1.0
C      1  0.5862700000000  0.5530700000000  0.5477360000000 1.0
C      1  0.5692620000000  0.4333210000000  0.4686530000000 1.0
C      1  0.4716570000000  0.4362110000000  0.5857670000000 1.0
C      1  0.4208110000000  0.5254220000000  0.4304330000000 1.0
C      1  0.4764500000000  0.5708410000000  0.4329820000000 1.0
C      1  0.4733340000000  0.4595020000000  0.5372950000000 1.0
C      1  0.4814520000000  0.6211880000000  0.5219940000000 1.0
C      1  0.4240870000000  0.5693370000000  0.4827710000000 1.0
C      1  0.5645790000000  0.5626910000000  0.4670410000000 1.0
C      1  0.6071650000000  0.5043630000000  0.5030150000000 1.0
C      1  0.4152280000000  0.4886550000000  0.4615500000000 1.0
C      1  0.5803640000000  0.4784060000000  0.5488540000000 1.0
C      1  0.5790140000000  0.5210320000000  0.4441850000000 1.0
C      1  0.5296720000000  0.4216360000000  0.5015010000000 1.0
C      1  0.5806900000000  0.4446610000000  0.4952180000000 1.0
C      1  0.4448700000000  0.4754390000000  0.4848760000000 1.0
C      1  0.5116870000000  0.4991530000000  0.5943060000000 1.0
C      1  0.5374620000000  0.4958330000000  0.4884160000000 1.0
C      1  0.5795160000000  0.4947920000000  0.5705150000000 1.0
C      1  0.4376070000000  0.5280300000000  0.5804250000000 1.0
C      1  0.4329580000000  0.5861260000000  0.5320160000000 1.0
C      1  0.5637800000000  0.4357190000000  0.5219000000000 1.0
C      1  0.4478340000000  0.3902440000000  0.4503660000000 1.0
C      1  0.4277440000000  0.5128500000000  0.5362530000000 1.0
C      1  0.5428660000000  0.5873890000000  0.4763450000000 1.0
C      1  0.4225520000000  0.5390820000000  0.5274860000000 1.0
C      1  0.5357880000000  0.5673540000000  0.4493460000000 1.0
C      1  0.4160240000000  0.4649670000000  0.5336460000000 1.0
C      1  0.4989830000000  0.5143080000000  0.4209970000000 1.0
C      1  0.5488500000000  0.4640050000000  0.5097420000000 1.0
C      1  0.4472530000000  0.5462290000000  0.4740160000000 1.0
C      1  0.4435990000000  0.5530820000000  0.5675920000000 1.0
C      1  0.4998940000000  0.5728620000000  0.5616440000000 1.0
C      1  0.5433150000000  0.4495160000000  0.4607620000000 1.0
C      1  0.4296750000000  0.5728170000000  0.4500200000000 1.0
C      1  0.5961230000000  0.5007070000000  0.4740590000000 1.0
C      1  0.4170380000000  0.5079250000000  0.5744430000000 1.0
C      1  0.4133680000000  0.4454380000000  0.5058820000000 1.0
C      1  0.5813510000000  0.4276190000000  0.4403540000000 1.0
C      1  0.4900560000000  0.4371560000000  0.4124510000000 1.0
C      1  0.4867850000000  0.4853940000000  0.4120670000000 1.0
C      1  0.4630890000000  0.5120210000000  0.5842620000000 1.0
C      1  0.5480290000000  0.4434670000000  0.5766030000000 1.0
C      1  0.4706620000000  0.5620330000000  0.5642870000000 1.0
END
