TITL C-2778431-5191-1095 0.000251014827030335 125000 -317.486376286576 0 0 55 (C1) n - 1
REM
REM in /home/nfs/bkarasulu/CARBON/AIRSS/Generating-Clusters/REBO/Only-C1/SD-CG/HFTN-CG
REM
REM
REM
REM
REM
REM ./C.cell (11c1c37f851c82e70ff6c80c92926a4b)
REM
REM compiler GCC version 9.2.1 20190827 (Red Hat 9.2.1-1)
REM options -cpp -mtune=generic -march=x86-64 -g -O0 -fpre-include=/usr/include/finclude/math-vector-fortran.h
REM seed -1709714317 -1637456805 981521400 1919369784 67945470 1328859515 895500213 227295835 713605798 -166486451 2076141634 818556155 1010985780 1586073377 1978282640 960762828 583511254 -1034040985 367680227 598882803 1795658485 366152166 925693507 563434002 325045181 159546357 1447718831 1249622477 842675568 -431396897 1986754807 1946758094 642798781
REM
CELL 1.54180   50.00000   50.00000   50.00000   90.00000   90.00000   90.00000
LATT -1
SFAC C  
C      1  0.4510090000000  0.5642890000000  0.4991340000000 1.0
C      1  0.4354750000000  0.4767850000000  0.5449450000000 1.0
C      1  0.4546180000000  0.4725420000000  0.4353240000000 1.0
C      1  0.5388990000000  0.5182820000000  0.5628750000000 1.0
C      1  0.4884570000000  0.4724630000000  0.5243250000000 1.0
C      1  0.4819730000000  0.4744780000000  0.5535680000000 1.0
C      1  0.4926080000000  0.5562440000000  0.5209090000000 1.0
C      1  0.5290160000000  0.4478150000000  0.5079890000000 1.0
C      1  0.4557850000000  0.4673350000000  0.5608050000000 1.0
C      1  0.5524910000000  0.4467810000000  0.5997110000000 1.0
C      1  0.4443130000000  0.4848870000000  0.4956390000000 1.0
C      1  0.4513530000000  0.5208770000000  0.5272430000000 1.0
C      1  0.5206000000000  0.4759670000000  0.5176730000000 1.0
C      1  0.4961810000000  0.5105140000000  0.4387000000000 1.0
C      1  0.4931340000000  0.5218940000000  0.5650100000000 1.0
C      1  0.5112960000000  0.4867390000000  0.4866180000000 1.0
C      1  0.5596780000000  0.4871430000000  0.4711880000000 1.0
C      1  0.4450190000000  0.5369470000000  0.5026340000000 1.0
C      1  0.4526720000000  0.4952300000000  0.4195690000000 1.0
C      1  0.5418760000000  0.4652450000000  0.5856530000000 1.0
C      1  0.4416780000000  0.4938350000000  0.5232650000000 1.0
C      1  0.5511310000000  0.5553550000000  0.5013610000000 1.0
C      1  0.4807310000000  0.4515570000000  0.5033530000000 1.0
C      1  0.5685310000000  0.4741040000000  0.4987480000000 1.0
C      1  0.5047830000000  0.4364660000000  0.4959750000000 1.0
C      1  0.5085670000000  0.5205650000000  0.5281710000000 1.0
C      1  0.5295360000000  0.5231780000000  0.4922410000000 1.0
C      1  0.5144240000000  0.4348120000000  0.4461940000000 1.0
C      1  0.5573360000000  0.4488170000000  0.5050260000000 1.0
C      1  0.5298900000000  0.4975740000000  0.5373010000000 1.0
C      1  0.4975970000000  0.4934160000000  0.5674180000000 1.0
C      1  0.5226550000000  0.4601340000000  0.4388700000000 1.0
C      1  0.5322120000000  0.4817460000000  0.4622650000000 1.0
C      1  0.5227000000000  0.5552940000000  0.4505050000000 1.0
C      1  0.4441950000000  0.5078380000000  0.4752430000000 1.0
C      1  0.4985230000000  0.5274040000000  0.4797750000000 1.0
C      1  0.4672660000000  0.5218390000000  0.4298630000000 1.0
C      1  0.4914330000000  0.5015810000000  0.5092070000000 1.0
C      1  0.5295990000000  0.4865990000000  0.5693960000000 1.0
C      1  0.4944820000000  0.5425590000000  0.4430360000000 1.0
C      1  0.4777700000000  0.5314460000000  0.5389020000000 1.0
C      1  0.4926780000000  0.4869030000000  0.4604820000000 1.0
C      1  0.5181320000000  0.5356750000000  0.5696660000000 1.0
C      1  0.4434180000000  0.5186170000000  0.4505910000000 1.0
C      1  0.4703200000000  0.4696130000000  0.4589220000000 1.0
C      1  0.5205970000000  0.4919710000000  0.4329630000000 1.0
C      1  0.4901450000000  0.5562730000000  0.4734860000000 1.0
C      1  0.5069430000000  0.4244990000000  0.4703840000000 1.0
C      1  0.4606440000000  0.4625380000000  0.4856020000000 1.0
C      1  0.5347900000000  0.5520370000000  0.4743190000000 1.0
C      1  0.4793600000000  0.5676420000000  0.4976180000000 1.0
C      1  0.5227820000000  0.5474370000000  0.5157620000000 1.0
C      1  0.5584990000000  0.5067270000000  0.4973820000000 1.0
C      1  0.4701550000000  0.5161560000000  0.4924020000000 1.0
C      1  0.5700450000000  0.5353380000000  0.5047890000000 1.0
END
