TITL C-2778429-3646-378 -0.00132382493966097 125000 -158.213811246226 0 0 29 (C1) n - 1
REM
REM in /home/nfs/bkarasulu/CARBON/AIRSS/Generating-Clusters/REBO/Only-C1/SD-CG/HFTN-CG
REM
REM
REM
REM
REM
REM ./C.cell (11c1c37f851c82e70ff6c80c92926a4b)
REM
REM compiler GCC version 9.2.1 20190827 (Red Hat 9.2.1-1)
REM options -cpp -mtune=generic -march=x86-64 -g -O0 -fpre-include=/usr/include/finclude/math-vector-fortran.h
REM seed 157684292 -1071373312 539578056 -420713809 382437562 -283724287 -2058321023 1771960475 1365127112 1874186418 2145989328 -401149166 1000187088 -500208472 1623787914 -1946243946 797393941 1360646743 210008245 898026689 -1867154524 1422581803 896944840 -1081068077 -1117046261 1022275408 358200723 -420386629 -15839331 -1708082118 693657962 -432248509 1277209064
REM
CELL 1.54180   50.00000   50.00000   50.00000   90.00000   90.00000   90.00000
LATT -1
SFAC C  
C      1  0.5260320000000  0.5218730000000  0.4426630000000 1.0
C      1  0.5439450000000  0.5245890000000  0.4641180000000 1.0
C      1  0.4807920000000  0.5337260000000  0.4995070000000 1.0
C      1  0.5528820000000  0.4875850000000  0.4939520000000 1.0
C      1  0.4937050000000  0.5252850000000  0.4527280000000 1.0
C      1  0.4898280000000  0.4771460000000  0.5162100000000 1.0
C      1  0.4959700000000  0.4614820000000  0.4646020000000 1.0
C      1  0.5309980000000  0.5389420000000  0.4862630000000 1.0
C      1  0.4734520000000  0.4871930000000  0.5745500000000 1.0
C      1  0.5063430000000  0.5133860000000  0.5474100000000 1.0
C      1  0.4805560000000  0.5113160000000  0.4790980000000 1.0
C      1  0.5173060000000  0.4524840000000  0.4510090000000 1.0
C      1  0.5344950000000  0.5614760000000  0.5591610000000 1.0
C      1  0.4568790000000  0.4416800000000  0.5177050000000 1.0
C      1  0.4651300000000  0.4600600000000  0.4709980000000 1.0
C      1  0.4174670000000  0.4381150000000  0.4627440000000 1.0
C      1  0.5214630000000  0.5380530000000  0.5380540000000 1.0
C      1  0.5112250000000  0.4921230000000  0.5279540000000 1.0
C      1  0.5105000000000  0.5700010000000  0.5428610000000 1.0
C      1  0.5354220000000  0.5286880000000  0.5126080000000 1.0
C      1  0.5601830000000  0.5022990000000  0.4715900000000 1.0
C      1  0.4674540000000  0.4666200000000  0.5577540000000 1.0
C      1  0.4835430000000  0.4826070000000  0.4871110000000 1.0
C      1  0.5352630000000  0.4992640000000  0.5128300000000 1.0
C      1  0.4715550000000  0.4607600000000  0.5304430000000 1.0
C      1  0.4897060000000  0.5084420000000  0.5691820000000 1.0
C      1  0.5036920000000  0.5220930000000  0.4203650000000 1.0
C      1  0.4409830000000  0.4489420000000  0.4668160000000 1.0
C      1  0.5032310000000  0.5437700000000  0.4797130000000 1.0
END
