TITL C-2778424-3986-1311 -0.000521593274049615 125000 -361.844148081306 0 0 65 (C1) n - 1
REM
REM in /home/nfs/bkarasulu/CARBON/AIRSS/Generating-Clusters/REBO/Only-C1/SD-CG/HFTN-CG
REM
REM
REM
REM
REM
REM ./C.cell (11c1c37f851c82e70ff6c80c92926a4b)
REM
REM compiler GCC version 9.2.1 20190827 (Red Hat 9.2.1-1)
REM options -cpp -mtune=generic -march=x86-64 -g -O0 -fpre-include=/usr/include/finclude/math-vector-fortran.h
REM seed -701984276 968071241 1024038001 -50023801 1740955931 1746333744 -1950275618 2052526687 500861203 1874831252 -1778143083 993015790 -1337117823 -671069098 -1083259048 -1180560436 -324793686 895031480 -361804497 992026144 -1178113351 -246882934 -628663622 -1214170914 -777104604 1363247742 1218577789 -747736224 510292065 1521226554 814071778 -1745759051 -1613540124
REM
CELL 1.54180   50.00000   50.00000   50.00000   90.00000   90.00000   90.00000
LATT -1
SFAC C  
C      1  0.4978180000000  0.4561700000000  0.5143990000000 1.0
C      1  0.4503820000000  0.4619850000000  0.4386130000000 1.0
C      1  0.4541060000000  0.4373900000000  0.4618290000000 1.0
C      1  0.5045460000000  0.4163460000000  0.4607010000000 1.0
C      1  0.5186450000000  0.5314940000000  0.4401260000000 1.0
C      1  0.4594870000000  0.4926900000000  0.5471390000000 1.0
C      1  0.5065310000000  0.4934000000000  0.4403210000000 1.0
C      1  0.4449260000000  0.5217950000000  0.4662140000000 1.0
C      1  0.5353860000000  0.5070670000000  0.5817320000000 1.0
C      1  0.4920990000000  0.5620100000000  0.5226000000000 1.0
C      1  0.4722510000000  0.5270670000000  0.6071270000000 1.0
C      1  0.4773210000000  0.4135800000000  0.4690150000000 1.0
C      1  0.5487960000000  0.4890610000000  0.5595550000000 1.0
C      1  0.5583130000000  0.4827450000000  0.4930180000000 1.0
C      1  0.5342450000000  0.4937340000000  0.5145830000000 1.0
C      1  0.5266300000000  0.4642900000000  0.5536530000000 1.0
C      1  0.4815780000000  0.5603460000000  0.4567870000000 1.0
C      1  0.4644780000000  0.5628580000000  0.5425550000000 1.0
C      1  0.5135170000000  0.5567340000000  0.4592180000000 1.0
C      1  0.5409050000000  0.5588430000000  0.4776330000000 1.0
C      1  0.4582330000000  0.5471400000000  0.4781840000000 1.0
C      1  0.5412740000000  0.5424180000000  0.5069370000000 1.0
C      1  0.4855130000000  0.5418490000000  0.5591660000000 1.0
C      1  0.5071330000000  0.5066120000000  0.5278500000000 1.0
C      1  0.4767530000000  0.4129870000000  0.4983080000000 1.0
C      1  0.4700520000000  0.5351420000000  0.5243250000000 1.0
C      1  0.5125730000000  0.5233730000000  0.5758260000000 1.0
C      1  0.4896020000000  0.5399710000000  0.4898180000000 1.0
C      1  0.5686840000000  0.5238910000000  0.4711990000000 1.0
C      1  0.5598300000000  0.5081430000000  0.5363840000000 1.0
C      1  0.4837020000000  0.5082780000000  0.5526620000000 1.0
C      1  0.5762360000000  0.5069560000000  0.4912400000000 1.0
C      1  0.4635770000000  0.5172670000000  0.4383340000000 1.0
C      1  0.4596860000000  0.4887070000000  0.4200540000000 1.0
C      1  0.4912500000000  0.5112640000000  0.5002700000000 1.0
C      1  0.5472610000000  0.4762740000000  0.4653780000000 1.0
C      1  0.5167890000000  0.4777360000000  0.4661870000000 1.0
C      1  0.5223650000000  0.4299850000000  0.4769510000000 1.0
C      1  0.4792380000000  0.4456370000000  0.4419230000000 1.0
C      1  0.5079550000000  0.4828220000000  0.4957960000000 1.0
C      1  0.5528820000000  0.4626570000000  0.5378020000000 1.0
C      1  0.5405310000000  0.5301880000000  0.5297840000000 1.0
C      1  0.4347450000000  0.4705860000000  0.4968100000000 1.0
C      1  0.5257900000000  0.4456390000000  0.5003230000000 1.0
C      1  0.5502100000000  0.4575380000000  0.5104260000000 1.0
C      1  0.5638940000000  0.5543520000000  0.4306650000000 1.0
C      1  0.4622950000000  0.5096720000000  0.5111690000000 1.0
C      1  0.4547600000000  0.5613350000000  0.5093190000000 1.0
C      1  0.5144020000000  0.5327120000000  0.5457120000000 1.0
C      1  0.5836600000000  0.5117560000000  0.5177350000000 1.0
C      1  0.4811760000000  0.5744080000000  0.4921960000000 1.0
C      1  0.5494020000000  0.5412050000000  0.4509360000000 1.0
C      1  0.4910390000000  0.4938610000000  0.4212040000000 1.0
C      1  0.5011190000000  0.4595070000000  0.5447000000000 1.0
C      1  0.4510210000000  0.4494760000000  0.4902890000000 1.0
C      1  0.5154430000000  0.5589750000000  0.4990960000000 1.0
C      1  0.4876540000000  0.5348050000000  0.4388160000000 1.0
C      1  0.4842930000000  0.5132070000000  0.5867120000000 1.0
C      1  0.5033730000000  0.4545980000000  0.4492450000000 1.0
C      1  0.4417910000000  0.4871370000000  0.5232610000000 1.0
C      1  0.4809460000000  0.4632600000000  0.5636120000000 1.0
C      1  0.4410530000000  0.4931490000000  0.4481740000000 1.0
C      1  0.4724960000000  0.4401320000000  0.5071580000000 1.0
C      1  0.4760530000000  0.4823290000000  0.5820660000000 1.0
C      1  0.4403070000000  0.5014590000000  0.4891800000000 1.0
END
