TITL C-2778425-5191-1081 -0.00273667587055538 125000 -1038.14621875858 0 0 177 (C1) n - 1
REM
REM in /home/nfs/bkarasulu/CARBON/AIRSS/Generating-Clusters/REBO/Only-C1/SD-CG/HFTN-CG
REM
REM
REM
REM
REM
REM ./C.cell (11c1c37f851c82e70ff6c80c92926a4b)
REM
REM compiler GCC version 9.2.1 20190827 (Red Hat 9.2.1-1)
REM options -cpp -mtune=generic -march=x86-64 -g -O0 -fpre-include=/usr/include/finclude/math-vector-fortran.h
REM seed -1955579832 -1062216265 -1816798519 909149350 1652925859 1864084983 -473127506 1832612937 80526067 -1695021083 1860360940 1219583067 -1933949266 -623859578 304995072 119674349 1225698806 -1577729104 -1909248017 984450739 319424642 -1541287133 -2079662376 -434968390 -742286607 -1127658976 1771601302 -1308543749 -1778347794 -911887415 1261465242 -255521082 1171132914
REM
CELL 1.54180   50.00000   50.00000   50.00000   90.00000   90.00000   90.00000
LATT -1
SFAC C  
C      1  0.5492400000000  0.4990340000000  0.4756170000000 1.0
C      1  0.5875580000000  0.4323110000000  0.4885160000000 1.0
C      1  0.4033410000000  0.5537270000000  0.5388790000000 1.0
C      1  0.4068710000000  0.5473390000000  0.4821160000000 1.0
C      1  0.5526240000000  0.4657290000000  0.4733920000000 1.0
C      1  0.4515620000000  0.4980470000000  0.4038850000000 1.0
C      1  0.4729070000000  0.5761250000000  0.4877070000000 1.0
C      1  0.5686170000000  0.5238550000000  0.4685900000000 1.0
C      1  0.5643280000000  0.4411780000000  0.5197070000000 1.0
C      1  0.5919410000000  0.5174280000000  0.4494540000000 1.0
C      1  0.5252500000000  0.4427910000000  0.4140660000000 1.0
C      1  0.4806780000000  0.4417870000000  0.5373560000000 1.0
C      1  0.4968720000000  0.5283440000000  0.4063110000000 1.0
C      1  0.4395090000000  0.5670330000000  0.5297090000000 1.0
C      1  0.4127180000000  0.4454050000000  0.5356870000000 1.0
C      1  0.4428750000000  0.4511250000000  0.4216980000000 1.0
C      1  0.5489590000000  0.4507320000000  0.5460910000000 1.0
C      1  0.3931320000000  0.5252060000000  0.5275010000000 1.0
C      1  0.4498270000000  0.4165180000000  0.5531810000000 1.0
C      1  0.5043290000000  0.5726720000000  0.4740490000000 1.0
C      1  0.4801660000000  0.5606730000000  0.5466030000000 1.0
C      1  0.4477830000000  0.5365680000000  0.5433670000000 1.0
C      1  0.5931090000000  0.4550490000000  0.5128630000000 1.0
C      1  0.4414760000000  0.4625540000000  0.5826060000000 1.0
C      1  0.5387560000000  0.4887730000000  0.5244340000000 1.0
C      1  0.5420870000000  0.5113600000000  0.4125850000000 1.0
C      1  0.4592670000000  0.4382770000000  0.5111770000000 1.0
C      1  0.5463820000000  0.5318060000000  0.5866690000000 1.0
C      1  0.4914910000000  0.5987140000000  0.5418690000000 1.0
C      1  0.5369930000000  0.4726810000000  0.4208030000000 1.0
C      1  0.4918590000000  0.3981130000000  0.5230420000000 1.0
C      1  0.4502100000000  0.4287270000000  0.4365640000000 1.0
C      1  0.5722840000000  0.5598530000000  0.5450250000000 1.0
C      1  0.5250170000000  0.5690060000000  0.4208150000000 1.0
C      1  0.4731280000000  0.4483940000000  0.4627870000000 1.0
C      1  0.3856140000000  0.5076760000000  0.5064300000000 1.0
C      1  0.4932880000000  0.4055350000000  0.4903620000000 1.0
C      1  0.6160630000000  0.5103460000000  0.4645040000000 1.0
C      1  0.4951500000000  0.4755420000000  0.5145900000000 1.0
C      1  0.4661670000000  0.5556140000000  0.4305790000000 1.0
C      1  0.3925710000000  0.5170830000000  0.4770080000000 1.0
C      1  0.5156660000000  0.4939870000000  0.4100090000000 1.0
C      1  0.5302330000000  0.5418140000000  0.5317040000000 1.0
C      1  0.5626990000000  0.5569460000000  0.5143020000000 1.0
C      1  0.4896590000000  0.6061410000000  0.4896600000000 1.0
C      1  0.5203260000000  0.3856960000000  0.5088640000000 1.0
C      1  0.5062000000000  0.4373460000000  0.5181000000000 1.0
C      1  0.5014000000000  0.3971880000000  0.4404090000000 1.0
C      1  0.4661890000000  0.5114580000000  0.4553440000000 1.0
C      1  0.4674050000000  0.4676570000000  0.4045930000000 1.0
C      1  0.4843120000000  0.5059120000000  0.4795250000000 1.0
C      1  0.4829460000000  0.4714190000000  0.4406420000000 1.0
C      1  0.4649300000000  0.4494630000000  0.6001320000000 1.0
C      1  0.5686330000000  0.5833460000000  0.4707130000000 1.0
C      1  0.6037100000000  0.4826740000000  0.5031370000000 1.0
C      1  0.4188140000000  0.5516170000000  0.4336970000000 1.0
C      1  0.4916680000000  0.4685470000000  0.5981740000000 1.0
C      1  0.4990510000000  0.4989190000000  0.4364210000000 1.0
C      1  0.5233080000000  0.5503810000000  0.5010760000000 1.0
C      1  0.4280380000000  0.4902830000000  0.5367320000000 1.0
C      1  0.5171360000000  0.4894280000000  0.5480760000000 1.0
C      1  0.4389530000000  0.4882620000000  0.5066440000000 1.0
C      1  0.5751910000000  0.5134200000000  0.5855450000000 1.0
C      1  0.4692460000000  0.4355600000000  0.5691780000000 1.0
C      1  0.5322150000000  0.5977020000000  0.5169050000000 1.0
C      1  0.4036050000000  0.4728390000000  0.5345950000000 1.0
C      1  0.4861270000000  0.5376700000000  0.5878110000000 1.0
C      1  0.5502860000000  0.4174820000000  0.5486260000000 1.0
C      1  0.5315390000000  0.4574900000000  0.4500540000000 1.0
C      1  0.4425680000000  0.4229650000000  0.4666060000000 1.0
C      1  0.4661360000000  0.5783550000000  0.4481380000000 1.0
C      1  0.5063800000000  0.3903920000000  0.4641820000000 1.0
C      1  0.5685860000000  0.4887900000000  0.5358270000000 1.0
C      1  0.4417130000000  0.5507380000000  0.4159510000000 1.0
C      1  0.5300850000000  0.4198530000000  0.4906130000000 1.0
C      1  0.4550460000000  0.5294490000000  0.5765020000000 1.0
C      1  0.5427320000000  0.6037600000000  0.4791300000000 1.0
C      1  0.4348380000000  0.4301410000000  0.4925380000000 1.0
C      1  0.5636720000000  0.4912100000000  0.4172290000000 1.0
C      1  0.6019340000000  0.5514920000000  0.5143250000000 1.0
C      1  0.4243250000000  0.5272650000000  0.5742300000000 1.0
C      1  0.4774060000000  0.4846440000000  0.5320060000000 1.0
C      1  0.4425740000000  0.5284170000000  0.3980080000000 1.0
C      1  0.4311910000000  0.4410680000000  0.5583680000000 1.0
C      1  0.4561080000000  0.4664310000000  0.4940530000000 1.0
C      1  0.5588250000000  0.5263190000000  0.5284610000000 1.0
C      1  0.5674590000000  0.4167540000000  0.4780040000000 1.0
C      1  0.4185680000000  0.5257440000000  0.4489020000000 1.0
C      1  0.5826010000000  0.5063890000000  0.5132870000000 1.0
C      1  0.5960330000000  0.5259340000000  0.5687440000000 1.0
C      1  0.4204390000000  0.5482980000000  0.5098250000000 1.0
C      1  0.5008140000000  0.4110020000000  0.5529360000000 1.0
C      1  0.5332770000000  0.5000930000000  0.5832290000000 1.0
C      1  0.4818820000000  0.5285850000000  0.4346300000000 1.0
C      1  0.5145530000000  0.5183460000000  0.4788200000000 1.0
C      1  0.5936120000000  0.4710760000000  0.4497580000000 1.0
C      1  0.4225180000000  0.5066860000000  0.4846670000000 1.0
C      1  0.4265730000000  0.4964680000000  0.4258530000000 1.0
C      1  0.4380630000000  0.5221670000000  0.5096650000000 1.0
C      1  0.4242890000000  0.5644950000000  0.5597110000000 1.0
C      1  0.5701480000000  0.4851720000000  0.5823550000000 1.0
C      1  0.4759730000000  0.6013490000000  0.5185290000000 1.0
C      1  0.4769140000000  0.5245250000000  0.5305820000000 1.0
C      1  0.5084920000000  0.4649330000000  0.4704100000000 1.0
C      1  0.4845840000000  0.5039440000000  0.5821240000000 1.0
C      1  0.4843690000000  0.4971800000000  0.3994050000000 1.0
C      1  0.3891040000000  0.4797080000000  0.5103520000000 1.0
C      1  0.4530010000000  0.4834510000000  0.5510430000000 1.0
C      1  0.5282220000000  0.4146330000000  0.5243090000000 1.0
C      1  0.5710560000000  0.4522700000000  0.4481300000000 1.0
C      1  0.5793940000000  0.4581780000000  0.5709320000000 1.0
C      1  0.5423610000000  0.4289840000000  0.4615810000000 1.0
C      1  0.5501660000000  0.5107300000000  0.5551390000000 1.0
C      1  0.4109850000000  0.4385820000000  0.5054810000000 1.0
C      1  0.5191740000000  0.5916810000000  0.5410480000000 1.0
C      1  0.5445460000000  0.5804010000000  0.4467150000000 1.0
C      1  0.5193920000000  0.4942800000000  0.4594390000000 1.0
C      1  0.4769240000000  0.5889070000000  0.5660810000000 1.0
C      1  0.5486400000000  0.5415570000000  0.4544170000000 1.0
C      1  0.4526500000000  0.4951580000000  0.5810250000000 1.0
C      1  0.4099570000000  0.4665770000000  0.4641650000000 1.0
C      1  0.5515330000000  0.3946800000000  0.4986900000000 1.0
C      1  0.5795600000000  0.5335910000000  0.4955660000000 1.0
C      1  0.4745050000000  0.4144300000000  0.4643720000000 1.0
C      1  0.5183620000000  0.6135840000000  0.4949040000000 1.0
C      1  0.3969960000000  0.4596680000000  0.4907400000000 1.0
C      1  0.5118090000000  0.4332260000000  0.5644600000000 1.0
C      1  0.5204520000000  0.4705200000000  0.5952230000000 1.0
C      1  0.5305890000000  0.4437090000000  0.5854140000000 1.0
C      1  0.5676200000000  0.4085180000000  0.5219000000000 1.0
C      1  0.5054550000000  0.5149990000000  0.6044470000000 1.0
C      1  0.4739000000000  0.5548810000000  0.5142480000000 1.0
C      1  0.4958270000000  0.5437940000000  0.4827440000000 1.0
C      1  0.5560940000000  0.4381180000000  0.4256060000000 1.0
C      1  0.4612290000000  0.4088490000000  0.5271840000000 1.0
C      1  0.5147180000000  0.5941090000000  0.4386780000000 1.0
C      1  0.5050120000000  0.5423860000000  0.5529150000000 1.0
C      1  0.5597350000000  0.4339790000000  0.5769930000000 1.0
C      1  0.5435840000000  0.4740290000000  0.5630960000000 1.0
C      1  0.4778910000000  0.4674400000000  0.5676460000000 1.0
C      1  0.5309970000000  0.5469590000000  0.3787270000000 1.0
C      1  0.4030990000000  0.4969930000000  0.4512390000000 1.0
C      1  0.4427370000000  0.4631940000000  0.4651230000000 1.0
C      1  0.4498100000000  0.5918980000000  0.5170520000000 1.0
C      1  0.5041560000000  0.4618130000000  0.5510010000000 1.0
C      1  0.4423970000000  0.5261310000000  0.4688250000000 1.0
C      1  0.5524950000000  0.5574110000000  0.5649300000000 1.0
C      1  0.4191840000000  0.5176080000000  0.5442400000000 1.0
C      1  0.4974700000000  0.5109660000000  0.5541410000000 1.0
C      1  0.4376480000000  0.5979420000000  0.4934200000000 1.0
C      1  0.4536030000000  0.4854910000000  0.4435010000000 1.0
C      1  0.4848330000000  0.4777920000000  0.4871200000000 1.0
C      1  0.5054090000000  0.5253110000000  0.5167960000000 1.0
C      1  0.4437940000000  0.5783030000000  0.4697730000000 1.0
C      1  0.5167990000000  0.5484350000000  0.4021900000000 1.0
C      1  0.5280060000000  0.5740640000000  0.5608530000000 1.0
C      1  0.5346400000000  0.5625750000000  0.4730720000000 1.0
C      1  0.4534030000000  0.5681850000000  0.5669940000000 1.0
C      1  0.4810050000000  0.4206960000000  0.4311510000000 1.0
C      1  0.6086510000000  0.4828610000000  0.4728380000000 1.0
C      1  0.5552720000000  0.5811360000000  0.5018260000000 1.0
C      1  0.6305690000000  0.4886480000000  0.5176180000000 1.0
C      1  0.5240270000000  0.4639650000000  0.5158110000000 1.0
C      1  0.4191770000000  0.5633790000000  0.4617890000000 1.0
C      1  0.5439830000000  0.4487370000000  0.4972870000000 1.0
C      1  0.5175620000000  0.5495550000000  0.5822170000000 1.0
C      1  0.4206870000000  0.4660300000000  0.4320590000000 1.0
C      1  0.5977410000000  0.5444500000000  0.5462350000000 1.0
C      1  0.5860810000000  0.4643780000000  0.5437430000000 1.0
C      1  0.4954900000000  0.4393090000000  0.4870100000000 1.0
C      1  0.4917970000000  0.4474090000000  0.4181550000000 1.0
C      1  0.4665180000000  0.5346870000000  0.4878500000000 1.0
C      1  0.4895270000000  0.5957340000000  0.4570840000000 1.0
C      1  0.5925350000000  0.5709990000000  0.4916900000000 1.0
C      1  0.5863650000000  0.4941900000000  0.4327010000000 1.0
C      1  0.5426040000000  0.5340960000000  0.4291510000000 1.0
C      1  0.5327220000000  0.5092560000000  0.5036320000000 1.0
END
