TITL C-2778431-5191-332 0.00141278203821427 125000 -570.008459115792 0 0 99 (C1) n - 1
REM
REM in /home/nfs/bkarasulu/CARBON/AIRSS/Generating-Clusters/REBO/Only-C1/SD-CG/HFTN-CG
REM
REM
REM
REM
REM
REM ./C.cell (11c1c37f851c82e70ff6c80c92926a4b)
REM
REM compiler GCC version 9.2.1 20190827 (Red Hat 9.2.1-1)
REM options -cpp -mtune=generic -march=x86-64 -g -O0 -fpre-include=/usr/include/finclude/math-vector-fortran.h
REM seed -2000797794 -1727482209 2077025832 127310490 -299417234 -1860772425 -1376260699 715060500 1987157404 2081428382 -1156393167 1341388151 1861710213 -1292584110 -386582362 333107377 -1912656 -678773362 1409552711 -875462884 -667324958 360487340 -83334641 352561727 1784689993 208835628 -1807188592 -378994871 -102481398 2078721193 1197889112 1175589567 709802028
REM
CELL 1.54180   50.00000   50.00000   50.00000   90.00000   90.00000   90.00000
LATT -1
SFAC C  
C      1  0.4730980000000  0.4669960000000  0.5404810000000 1.0
C      1  0.5128040000000  0.5895000000000  0.4986570000000 1.0
C      1  0.4442720000000  0.4481870000000  0.5205710000000 1.0
C      1  0.5513360000000  0.5290400000000  0.5694420000000 1.0
C      1  0.4876620000000  0.4962150000000  0.4582550000000 1.0
C      1  0.4982400000000  0.4256470000000  0.4623620000000 1.0
C      1  0.4631180000000  0.4606240000000  0.5702710000000 1.0
C      1  0.4416380000000  0.4808230000000  0.5608790000000 1.0
C      1  0.5128150000000  0.5460740000000  0.5420620000000 1.0
C      1  0.4639320000000  0.5719560000000  0.5027590000000 1.0
C      1  0.5621900000000  0.5283550000000  0.5371620000000 1.0
C      1  0.4639480000000  0.5125700000000  0.4871630000000 1.0
C      1  0.4889850000000  0.5436270000000  0.5234350000000 1.0
C      1  0.5798130000000  0.5272920000000  0.4777960000000 1.0
C      1  0.5217030000000  0.4166840000000  0.4808240000000 1.0
C      1  0.5134480000000  0.5121320000000  0.4450170000000 1.0
C      1  0.4380330000000  0.5064710000000  0.5243560000000 1.0
C      1  0.4270580000000  0.4750100000000  0.5317410000000 1.0
C      1  0.5776540000000  0.4999600000000  0.5381450000000 1.0
C      1  0.5374590000000  0.5415690000000  0.5198440000000 1.0
C      1  0.5270800000000  0.4787150000000  0.4269720000000 1.0
C      1  0.4905580000000  0.5147500000000  0.5063160000000 1.0
C      1  0.4957830000000  0.5643390000000  0.4996930000000 1.0
C      1  0.5453310000000  0.5271750000000  0.4262050000000 1.0
C      1  0.4968950000000  0.4982240000000  0.5461470000000 1.0
C      1  0.4828770000000  0.5282350000000  0.4651120000000 1.0
C      1  0.5758640000000  0.5567420000000  0.4944010000000 1.0
C      1  0.5311330000000  0.4977440000000  0.5464900000000 1.0
C      1  0.5410420000000  0.5009730000000  0.4184340000000 1.0
C      1  0.4526660000000  0.4241810000000  0.5398580000000 1.0
C      1  0.4874560000000  0.4409850000000  0.5672130000000 1.0
C      1  0.5845810000000  0.5286110000000  0.5114530000000 1.0
C      1  0.5198190000000  0.5597720000000  0.4542120000000 1.0
C      1  0.5437610000000  0.4407840000000  0.5479570000000 1.0
C      1  0.4394260000000  0.5046620000000  0.4391530000000 1.0
C      1  0.5399020000000  0.3977940000000  0.4724540000000 1.0
C      1  0.5469610000000  0.4354320000000  0.5170970000000 1.0
C      1  0.4791040000000  0.4192800000000  0.5502540000000 1.0
C      1  0.5656760000000  0.4541330000000  0.4956630000000 1.0
C      1  0.5193820000000  0.4527050000000  0.5662340000000 1.0
C      1  0.5563220000000  0.5705460000000  0.5431490000000 1.0
C      1  0.4472020000000  0.6011820000000  0.5454640000000 1.0
C      1  0.4804140000000  0.4496030000000  0.4755830000000 1.0
C      1  0.4549150000000  0.5329000000000  0.5613030000000 1.0
C      1  0.4708350000000  0.4386530000000  0.5043750000000 1.0
C      1  0.4941810000000  0.4997290000000  0.4191700000000 1.0
C      1  0.5072970000000  0.4508680000000  0.4453360000000 1.0
C      1  0.4604320000000  0.4765410000000  0.5102750000000 1.0
C      1  0.5670760000000  0.5012790000000  0.4713190000000 1.0
C      1  0.4960960000000  0.4664680000000  0.4185230000000 1.0
C      1  0.4460010000000  0.5080750000000  0.5672410000000 1.0
C      1  0.4673940000000  0.4993550000000  0.5345910000000 1.0
C      1  0.4937060000000  0.3996900000000  0.5356090000000 1.0
C      1  0.5331960000000  0.5093460000000  0.5844810000000 1.0
C      1  0.4554820000000  0.5329570000000  0.4455160000000 1.0
C      1  0.5190890000000  0.5425060000000  0.3980820000000 1.0
C      1  0.4997830000000  0.4514840000000  0.5121540000000 1.0
C      1  0.4311580000000  0.4764380000000  0.4479450000000 1.0
C      1  0.5365290000000  0.5047730000000  0.4688200000000 1.0
C      1  0.5446830000000  0.5493860000000  0.4446980000000 1.0
C      1  0.4525840000000  0.5448270000000  0.4851430000000 1.0
C      1  0.5586680000000  0.4874220000000  0.5631100000000 1.0
C      1  0.5039100000000  0.4847920000000  0.5061020000000 1.0
C      1  0.4895670000000  0.5662350000000  0.4494830000000 1.0
C      1  0.4792520000000  0.5477700000000  0.4304490000000 1.0
C      1  0.4608020000000  0.5490120000000  0.5352800000000 1.0
C      1  0.5049300000000  0.4657400000000  0.5412050000000 1.0
C      1  0.4409980000000  0.5372390000000  0.5151340000000 1.0
C      1  0.4651690000000  0.4566250000000  0.4267810000000 1.0
C      1  0.4566110000000  0.4584580000000  0.4585980000000 1.0
C      1  0.4926860000000  0.3946800000000  0.5083810000000 1.0
C      1  0.4668670000000  0.4885780000000  0.4344510000000 1.0
C      1  0.5239840000000  0.4764840000000  0.4594890000000 1.0
C      1  0.4549940000000  0.5804010000000  0.5317620000000 1.0
C      1  0.5328710000000  0.4938500000000  0.5157100000000 1.0
C      1  0.4514570000000  0.4833070000000  0.4817110000000 1.0
C      1  0.4831100000000  0.4125600000000  0.4899700000000 1.0
C      1  0.5057470000000  0.5436860000000  0.4782150000000 1.0
C      1  0.5375710000000  0.5916380000000  0.4999560000000 1.0
C      1  0.5545590000000  0.5693140000000  0.5112470000000 1.0
C      1  0.5806580000000  0.4808800000000  0.4870770000000 1.0
C      1  0.5013830000000  0.5308150000000  0.4193320000000 1.0
C      1  0.5397910000000  0.5542760000000  0.5576520000000 1.0
C      1  0.5667490000000  0.5526640000000  0.4618860000000 1.0
C      1  0.4393730000000  0.6220630000000  0.5592300000000 1.0
C      1  0.4285940000000  0.5237270000000  0.4642930000000 1.0
C      1  0.4247640000000  0.5163080000000  0.4938320000000 1.0
C      1  0.5239530000000  0.5207710000000  0.4962920000000 1.0
C      1  0.5607240000000  0.4641610000000  0.5424990000000 1.0
C      1  0.5218640000000  0.4315440000000  0.5041870000000 1.0
C      1  0.4165310000000  0.4852160000000  0.5009980000000 1.0
C      1  0.4974460000000  0.4739970000000  0.4776750000000 1.0
C      1  0.4110040000000  0.4406170000000  0.4785440000000 1.0
C      1  0.4220050000000  0.4657880000000  0.4772200000000 1.0
C      1  0.5128830000000  0.5219210000000  0.5612300000000 1.0
C      1  0.5910040000000  0.4951320000000  0.5109140000000 1.0
C      1  0.4702540000000  0.5696010000000  0.4696500000000 1.0
C      1  0.5555030000000  0.4742820000000  0.5169550000000 1.0
C      1  0.5328920000000  0.4778700000000  0.5821860000000 1.0
END
