TITL C-2778424-3986-94 -0.000575632430893613 125000 -592.867503762985 0 0 103 (C1) n - 1
REM
REM in /home/nfs/bkarasulu/CARBON/AIRSS/Generating-Clusters/REBO/Only-C1/SD-CG/HFTN-CG
REM
REM
REM
REM
REM
REM ./C.cell (11c1c37f851c82e70ff6c80c92926a4b)
REM
REM compiler GCC version 9.2.1 20190827 (Red Hat 9.2.1-1)
REM options -cpp -mtune=generic -march=x86-64 -g -O0 -fpre-include=/usr/include/finclude/math-vector-fortran.h
REM seed -703627597 -1488725867 -1733703305 1559781086 41594992 338784443 -83211405 1179933362 -57473671 1232160048 -234669552 727784646 676910149 -999564712 1819956794 -147866805 1270448016 1173627715 -75125644 604017196 -1151866678 1641844937 334704628 -1623382566 804952108 1719446494 -348013897 1350359890 -1309333368 1268358301 -2127523573 400487020 -113583431
REM
CELL 1.54180   50.00000   50.00000   50.00000   90.00000   90.00000   90.00000
LATT -1
SFAC C  
C      1  0.5736910000000  0.4180030000000  0.4969950000000 1.0
C      1  0.4702470000000  0.5201050000000  0.4733220000000 1.0
C      1  0.5562340000000  0.5555290000000  0.4502890000000 1.0
C      1  0.5257080000000  0.4073090000000  0.4787300000000 1.0
C      1  0.4849720000000  0.4406910000000  0.5542970000000 1.0
C      1  0.4167460000000  0.5023940000000  0.4847470000000 1.0
C      1  0.4971180000000  0.4604460000000  0.5697500000000 1.0
C      1  0.4572230000000  0.4794000000000  0.5572770000000 1.0
C      1  0.5291560000000  0.5703550000000  0.4645470000000 1.0
C      1  0.5976540000000  0.5268030000000  0.4684150000000 1.0
C      1  0.5223950000000  0.5827920000000  0.5286690000000 1.0
C      1  0.5048320000000  0.5921590000000  0.5090410000000 1.0
C      1  0.4866090000000  0.4945720000000  0.5180290000000 1.0
C      1  0.5339680000000  0.4201350000000  0.5078960000000 1.0
C      1  0.5050870000000  0.4266970000000  0.5335520000000 1.0
C      1  0.4772980000000  0.4797660000000  0.5837580000000 1.0
C      1  0.5759230000000  0.4385860000000  0.5143800000000 1.0
C      1  0.5310850000000  0.4547350000000  0.4469430000000 1.0
C      1  0.4462860000000  0.5577590000000  0.4158920000000 1.0
C      1  0.4105880000000  0.4212860000000  0.4877050000000 1.0
C      1  0.5354050000000  0.4213610000000  0.5408520000000 1.0
C      1  0.5240600000000  0.4979950000000  0.5523840000000 1.0
C      1  0.4448740000000  0.4694430000000  0.5846860000000 1.0
C      1  0.5492130000000  0.5917350000000  0.5292910000000 1.0
C      1  0.5139210000000  0.5380290000000  0.4832140000000 1.0
C      1  0.4412020000000  0.5066650000000  0.5156940000000 1.0
C      1  0.4193360000000  0.4888790000000  0.5488380000000 1.0
C      1  0.5374360000000  0.5455690000000  0.5547340000000 1.0
C      1  0.5034140000000  0.4899020000000  0.4471640000000 1.0
C      1  0.4197370000000  0.5554130000000  0.4947940000000 1.0
C      1  0.4821720000000  0.4959130000000  0.4898060000000 1.0
C      1  0.5703600000000  0.5099210000000  0.5233910000000 1.0
C      1  0.4460380000000  0.5682230000000  0.5079940000000 1.0
C      1  0.5737660000000  0.5614340000000  0.4974560000000 1.0
C      1  0.5457600000000  0.4511030000000  0.5515430000000 1.0
C      1  0.4993590000000  0.4802650000000  0.4750410000000 1.0
C      1  0.4625810000000  0.4893410000000  0.5330600000000 1.0
C      1  0.4381700000000  0.5376840000000  0.5520300000000 1.0
C      1  0.5197980000000  0.4681030000000  0.4900090000000 1.0
C      1  0.5136070000000  0.5344560000000  0.4284260000000 1.0
C      1  0.4890020000000  0.5438020000000  0.4620890000000 1.0
C      1  0.4479820000000  0.5106480000000  0.4532920000000 1.0
C      1  0.4677980000000  0.5733640000000  0.5410300000000 1.0
C      1  0.5133730000000  0.5009650000000  0.5242770000000 1.0
C      1  0.5156680000000  0.5092500000000  0.4125550000000 1.0
C      1  0.5167280000000  0.4245750000000  0.4523480000000 1.0
C      1  0.4927860000000  0.4154300000000  0.4747550000000 1.0
C      1  0.4589270000000  0.5088690000000  0.4137520000000 1.0
C      1  0.4756480000000  0.5684810000000  0.4575590000000 1.0
C      1  0.4563820000000  0.4319210000000  0.5421630000000 1.0
C      1  0.5462870000000  0.5200930000000  0.5583140000000 1.0
C      1  0.5471150000000  0.4827250000000  0.4893650000000 1.0
C      1  0.4976750000000  0.4488300000000  0.4426490000000 1.0
C      1  0.5162020000000  0.5574310000000  0.5402300000000 1.0
C      1  0.4361710000000  0.4433350000000  0.5256300000000 1.0
C      1  0.4889280000000  0.4643420000000  0.4200720000000 1.0
C      1  0.4225310000000  0.4657430000000  0.5352820000000 1.0
C      1  0.5434140000000  0.5497100000000  0.4875580000000 1.0
C      1  0.4857950000000  0.5073850000000  0.5897600000000 1.0
C      1  0.5519960000000  0.5305960000000  0.4383130000000 1.0
C      1  0.4439920000000  0.4840420000000  0.4903950000000 1.0
C      1  0.5234760000000  0.4693880000000  0.5616560000000 1.0
C      1  0.4860700000000  0.5342150000000  0.5003210000000 1.0
C      1  0.4137710000000  0.5241920000000  0.5071540000000 1.0
C      1  0.4752780000000  0.4507650000000  0.4626960000000 1.0
C      1  0.5613240000000  0.4844130000000  0.5156540000000 1.0
C      1  0.5726810000000  0.5222540000000  0.4714250000000 1.0
C      1  0.4722310000000  0.5851240000000  0.5095370000000 1.0
C      1  0.4927490000000  0.5434870000000  0.5323640000000 1.0
C      1  0.4589790000000  0.4557360000000  0.4923820000000 1.0
C      1  0.4575390000000  0.5712560000000  0.4364470000000 1.0
C      1  0.4648860000000  0.5278240000000  0.5240140000000 1.0
C      1  0.4274620000000  0.5474390000000  0.5269190000000 1.0
C      1  0.5086980000000  0.5182370000000  0.5714370000000 1.0
C      1  0.4594480000000  0.4220310000000  0.4718650000000 1.0
C      1  0.4627970000000  0.5504990000000  0.5579450000000 1.0
C      1  0.5723930000000  0.5847250000000  0.5169440000000 1.0
C      1  0.4812720000000  0.5353520000000  0.5729520000000 1.0
C      1  0.4357400000000  0.4309090000000  0.4946660000000 1.0
C      1  0.4213690000000  0.5127870000000  0.4593290000000 1.0
C      1  0.4821580000000  0.5880360000000  0.4770400000000 1.0
C      1  0.5291110000000  0.4815120000000  0.4271700000000 1.0
C      1  0.5533700000000  0.5042090000000  0.4248870000000 1.0
C      1  0.5630920000000  0.5320470000000  0.5089310000000 1.0
C      1  0.4278550000000  0.5125460000000  0.5590130000000 1.0
C      1  0.5511840000000  0.4599260000000  0.4668090000000 1.0
C      1  0.5653410000000  0.4116550000000  0.5879000000000 1.0
C      1  0.5445640000000  0.5109160000000  0.4756370000000 1.0
C      1  0.5158190000000  0.5600050000000  0.4367000000000 1.0
C      1  0.4744100000000  0.4905120000000  0.4314750000000 1.0
C      1  0.5876220000000  0.5121010000000  0.5444150000000 1.0
C      1  0.5247660000000  0.5132310000000  0.4511130000000 1.0
C      1  0.4477860000000  0.5321820000000  0.4072250000000 1.0
C      1  0.5126410000000  0.5910430000000  0.4793490000000 1.0
C      1  0.5536560000000  0.4231290000000  0.5682400000000 1.0
C      1  0.5647500000000  0.4599210000000  0.5291690000000 1.0
C      1  0.5128850000000  0.4454860000000  0.5063800000000 1.0
C      1  0.4602530000000  0.4798180000000  0.4605920000000 1.0
C      1  0.4754670000000  0.4155560000000  0.5252620000000 1.0
C      1  0.5275630000000  0.5145100000000  0.5037620000000 1.0
C      1  0.4839570000000  0.4340320000000  0.5004290000000 1.0
C      1  0.5784530000000  0.5617470000000  0.4656110000000 1.0
C      1  0.5577030000000  0.4027580000000  0.4811570000000 1.0
END
