TITL C-2778435-5768-1385 -0.000728564142168328 125000 -348.256440950328 0 0 60 (C1) n - 1
REM
REM in /home/nfs/bkarasulu/CARBON/AIRSS/Generating-Clusters/REBO/Only-C1/SD-CG/HFTN-CG
REM
REM
REM
REM
REM
REM ./C.cell (11c1c37f851c82e70ff6c80c92926a4b)
REM
REM compiler GCC version 9.2.1 20190827 (Red Hat 9.2.1-1)
REM options -cpp -mtune=generic -march=x86-64 -g -O0 -fpre-include=/usr/include/finclude/math-vector-fortran.h
REM seed 1758454618 -554666829 -193876731 -229242144 -781460236 -939700396 1189268807 -1176923738 -1649089880 -1836925991 -758098156 -1173048150 2053760586 -1335363165 -582649636 1662370268 -272400829 -427566631 2055423365 1054942376 650872039 -795069460 -1633902224 836546953 -1292513313 -635571951 -494575225 -1304924629 402500102 -1855168783 394661418 487042039 1132469189
REM
CELL 1.54180   50.00000   50.00000   50.00000   90.00000   90.00000   90.00000
LATT -1
SFAC C  
C      1  0.4814760000000  0.5476670000000  0.4526300000000 1.0
C      1  0.5249630000000  0.5914610000000  0.5092910000000 1.0
C      1  0.4925670000000  0.5041480000000  0.5579400000000 1.0
C      1  0.5171580000000  0.4855220000000  0.5604810000000 1.0
C      1  0.5082560000000  0.4773770000000  0.4444100000000 1.0
C      1  0.5279700000000  0.4265400000000  0.5021770000000 1.0
C      1  0.4407890000000  0.4898350000000  0.4967270000000 1.0
C      1  0.4306440000000  0.4981970000000  0.5206410000000 1.0
C      1  0.5852240000000  0.5247330000000  0.5186050000000 1.0
C      1  0.4687230000000  0.5135070000000  0.4814900000000 1.0
C      1  0.5595460000000  0.4591990000000  0.4822540000000 1.0
C      1  0.4511710000000  0.5433030000000  0.4403170000000 1.0
C      1  0.4487990000000  0.5112490000000  0.5379550000000 1.0
C      1  0.4719070000000  0.5166580000000  0.4420440000000 1.0
C      1  0.4558350000000  0.5421180000000  0.5279740000000 1.0
C      1  0.4904220000000  0.5357210000000  0.5656170000000 1.0
C      1  0.5516530000000  0.4589880000000  0.5283700000000 1.0
C      1  0.4928470000000  0.4628480000000  0.5202790000000 1.0
C      1  0.5125360000000  0.5499030000000  0.4537170000000 1.0
C      1  0.4660940000000  0.4927660000000  0.5500480000000 1.0
C      1  0.5708930000000  0.5401240000000  0.5010520000000 1.0
C      1  0.4826620000000  0.5614690000000  0.5192550000000 1.0
C      1  0.4369410000000  0.5118640000000  0.4726490000000 1.0
C      1  0.4330760000000  0.5582200000000  0.5302050000000 1.0
C      1  0.5735680000000  0.5060450000000  0.5363480000000 1.0
C      1  0.5256070000000  0.4833440000000  0.5044790000000 1.0
C      1  0.4666720000000  0.4672610000000  0.5384840000000 1.0
C      1  0.5034820000000  0.5197240000000  0.5314740000000 1.0
C      1  0.5416240000000  0.5126200000000  0.4426060000000 1.0
C      1  0.4780700000000  0.4264030000000  0.5131690000000 1.0
C      1  0.4830120000000  0.5604440000000  0.4825100000000 1.0
C      1  0.4905890000000  0.4320220000000  0.4620930000000 1.0
C      1  0.4713870000000  0.4756800000000  0.4971700000000 1.0
C      1  0.4998100000000  0.4921030000000  0.4937730000000 1.0
C      1  0.5074900000000  0.4334950000000  0.5239290000000 1.0
C      1  0.5091910000000  0.5704840000000  0.5017990000000 1.0
C      1  0.4570590000000  0.4415520000000  0.5261760000000 1.0
C      1  0.5726270000000  0.4776250000000  0.5335020000000 1.0
C      1  0.5077810000000  0.4494540000000  0.4478760000000 1.0
C      1  0.5498480000000  0.5098870000000  0.4701220000000 1.0
C      1  0.4636180000000  0.4410190000000  0.4608730000000 1.0
C      1  0.4910190000000  0.4962270000000  0.4613880000000 1.0
C      1  0.5001940000000  0.5248430000000  0.4877510000000 1.0
C      1  0.5220420000000  0.4697650000000  0.5345980000000 1.0
C      1  0.5471530000000  0.4849160000000  0.4850100000000 1.0
C      1  0.5295380000000  0.5277860000000  0.5335710000000 1.0
C      1  0.5485090000000  0.5346480000000  0.4852840000000 1.0
C      1  0.4989260000000  0.4214620000000  0.4873340000000 1.0
C      1  0.5394480000000  0.4987260000000  0.5696910000000 1.0
C      1  0.4525450000000  0.4907510000000  0.4529910000000 1.0
C      1  0.4777440000000  0.5224720000000  0.5127740000000 1.0
C      1  0.4873830000000  0.5543780000000  0.5492080000000 1.0
C      1  0.4310290000000  0.4338860000000  0.5271470000000 1.0
C      1  0.5504040000000  0.5163250000000  0.5500730000000 1.0
C      1  0.5205470000000  0.5467210000000  0.4836990000000 1.0
C      1  0.5299320000000  0.5380000000000  0.4362610000000 1.0
C      1  0.4289500000000  0.5368680000000  0.4566560000000 1.0
C      1  0.5520080000000  0.4422950000000  0.5044010000000 1.0
C      1  0.4592180000000  0.4676940000000  0.4685810000000 1.0
C      1  0.5298240000000  0.4896610000000  0.4310670000000 1.0
END
