TITL C-2778432-5617-1108 0.00198967787265359 125000 -484.58672886088 0 0 83 (C1) n - 1
REM
REM in /home/nfs/bkarasulu/CARBON/AIRSS/Generating-Clusters/REBO/Only-C1/SD-CG/HFTN-CG
REM
REM
REM
REM
REM
REM ./C.cell (11c1c37f851c82e70ff6c80c92926a4b)
REM
REM compiler GCC version 9.2.1 20190827 (Red Hat 9.2.1-1)
REM options -cpp -mtune=generic -march=x86-64 -g -O0 -fpre-include=/usr/include/finclude/math-vector-fortran.h
REM seed -687317612 340871702 -1705273700 -1647131932 1241307083 499195916 -271425276 2054568984 -1139922545 1030513295 1678532243 -1282935930 1043134163 1111486344 1410440220 -1076658834 -263150231 344748089 509738443 500516313 -1397863834 1946826090 -1015432696 -24261165 522291709 1568800258 1361083759 159379693 -1968155814 -849337292 -1484621193 1090017576 -557772222
REM
CELL 1.54180   50.00000   50.00000   50.00000   90.00000   90.00000   90.00000
LATT -1
SFAC C  
C      1  0.5068350000000  0.4972760000000  0.5498840000000 1.0
C      1  0.5725380000000  0.5435140000000  0.5273060000000 1.0
C      1  0.4829730000000  0.4910670000000  0.4473670000000 1.0
C      1  0.5314380000000  0.4655870000000  0.5125750000000 1.0
C      1  0.4501960000000  0.4923740000000  0.5660130000000 1.0
C      1  0.5164390000000  0.4119080000000  0.5258280000000 1.0
C      1  0.4757890000000  0.5495390000000  0.4407890000000 1.0
C      1  0.4908650000000  0.4412550000000  0.4461540000000 1.0
C      1  0.4905610000000  0.4917430000000  0.4075360000000 1.0
C      1  0.4729180000000  0.5856640000000  0.5123370000000 1.0
C      1  0.5801330000000  0.5551760000000  0.5018210000000 1.0
C      1  0.4568240000000  0.5562830000000  0.5196340000000 1.0
C      1  0.4784040000000  0.4663480000000  0.4358820000000 1.0
C      1  0.5324320000000  0.5462460000000  0.4929460000000 1.0
C      1  0.5299550000000  0.5024460000000  0.4326990000000 1.0
C      1  0.5815120000000  0.5092720000000  0.4887650000000 1.0
C      1  0.4790370000000  0.4295000000000  0.4741650000000 1.0
C      1  0.5572320000000  0.4906950000000  0.4458990000000 1.0
C      1  0.4919400000000  0.4615480000000  0.5652030000000 1.0
C      1  0.5377660000000  0.5127460000000  0.5693140000000 1.0
C      1  0.5628000000000  0.5171170000000  0.5230180000000 1.0
C      1  0.4774510000000  0.4445800000000  0.5437050000000 1.0
C      1  0.5293010000000  0.4791270000000  0.5498950000000 1.0
C      1  0.5170830000000  0.5294240000000  0.5478730000000 1.0
C      1  0.4799990000000  0.5209820000000  0.4851450000000 1.0
C      1  0.5743490000000  0.4798980000000  0.4949200000000 1.0
C      1  0.4459790000000  0.5026680000000  0.6187080000000 1.0
C      1  0.4995280000000  0.4189410000000  0.4971030000000 1.0
C      1  0.5337010000000  0.4516460000000  0.5499940000000 1.0
C      1  0.4235310000000  0.5192660000000  0.5376980000000 1.0
C      1  0.4629220000000  0.4656600000000  0.4726190000000 1.0
C      1  0.4831390000000  0.5478000000000  0.5047330000000 1.0
C      1  0.5168800000000  0.5770510000000  0.5266520000000 1.0
C      1  0.4417370000000  0.5286160000000  0.4625030000000 1.0
C      1  0.4480310000000  0.4976590000000  0.5930660000000 1.0
C      1  0.5333620000000  0.4910440000000  0.4705570000000 1.0
C      1  0.4305430000000  0.5237840000000  0.4843080000000 1.0
C      1  0.4430940000000  0.5302370000000  0.5222550000000 1.0
C      1  0.5351360000000  0.4259240000000  0.5412370000000 1.0
C      1  0.5175630000000  0.4385390000000  0.4757440000000 1.0
C      1  0.4283980000000  0.4931100000000  0.5476480000000 1.0
C      1  0.5203280000000  0.5424550000000  0.4650460000000 1.0
C      1  0.5562840000000  0.4780580000000  0.5181040000000 1.0
C      1  0.4948530000000  0.5360450000000  0.4261570000000 1.0
C      1  0.5167920000000  0.4559820000000  0.4359300000000 1.0
C      1  0.5361800000000  0.4589870000000  0.4595270000000 1.0
C      1  0.4438700000000  0.5874930000000  0.5240890000000 1.0
C      1  0.5935240000000  0.5345840000000  0.4867850000000 1.0
C      1  0.5366480000000  0.5790090000000  0.4706650000000 1.0
C      1  0.4936570000000  0.4624230000000  0.4800540000000 1.0
C      1  0.5657510000000  0.4680840000000  0.4700620000000 1.0
C      1  0.5106180000000  0.5371240000000  0.5160340000000 1.0
C      1  0.5564270000000  0.5657340000000  0.4896700000000 1.0
C      1  0.5477410000000  0.5094560000000  0.4948880000000 1.0
C      1  0.4455750000000  0.4803830000000  0.4557300000000 1.0
C      1  0.4180420000000  0.4768320000000  0.4617530000000 1.0
C      1  0.4496020000000  0.4412900000000  0.4860860000000 1.0
C      1  0.5034150000000  0.4808300000000  0.5049000000000 1.0
C      1  0.5157910000000  0.5106840000000  0.4999090000000 1.0
C      1  0.5109980000000  0.4707720000000  0.5844220000000 1.0
C      1  0.5178660000000  0.5273420000000  0.4411240000000 1.0
C      1  0.5257530000000  0.4943800000000  0.5866620000000 1.0
C      1  0.4600110000000  0.4614370000000  0.5282030000000 1.0
C      1  0.5294220000000  0.5588100000000  0.5438170000000 1.0
C      1  0.4266350000000  0.4489790000000  0.5009150000000 1.0
C      1  0.4767190000000  0.4876270000000  0.5531260000000 1.0
C      1  0.5577390000000  0.5592530000000  0.5457330000000 1.0
C      1  0.5328490000000  0.4401120000000  0.5031370000000 1.0
C      1  0.5058110000000  0.5719410000000  0.4781380000000 1.0
C      1  0.5562960000000  0.4974840000000  0.5458560000000 1.0
C      1  0.4554460000000  0.5087600000000  0.4435960000000 1.0
C      1  0.4876150000000  0.4231460000000  0.5287390000000 1.0
C      1  0.4813960000000  0.5513000000000  0.4707790000000 1.0
C      1  0.4302010000000  0.4703500000000  0.5263040000000 1.0
C      1  0.4273390000000  0.4986860000000  0.5036540000000 1.0
C      1  0.5131120000000  0.4816520000000  0.4218350000000 1.0
C      1  0.4767800000000  0.4868720000000  0.5199000000000 1.0
C      1  0.4680510000000  0.5061390000000  0.4135610000000 1.0
C      1  0.5797220000000  0.4990000000000  0.4317870000000 1.0
C      1  0.4996130000000  0.5841390000000  0.5056300000000 1.0
C      1  0.4602480000000  0.5078160000000  0.5057290000000 1.0
C      1  0.5007940000000  0.5009920000000  0.4704980000000 1.0
C      1  0.4141710000000  0.4742970000000  0.4899680000000 1.0
END
