TITL C-2778432-5617-42 0.00477008791276419 125000 -226.773710195201 0 0 41 (C1) n - 1
REM
REM in /home/nfs/bkarasulu/CARBON/AIRSS/Generating-Clusters/REBO/Only-C1/SD-CG/HFTN-CG
REM
REM
REM
REM
REM
REM ./C.cell (11c1c37f851c82e70ff6c80c92926a4b)
REM
REM compiler GCC version 9.2.1 20190827 (Red Hat 9.2.1-1)
REM options -cpp -mtune=generic -march=x86-64 -g -O0 -fpre-include=/usr/include/finclude/math-vector-fortran.h
REM seed 1805530278 -1166551507 17031501 1235187364 628066995 -1920410770 -1695933861 -96454802 1804369231 -793856366 1815759791 770305913 1351195054 -940313996 476768760 1911994521 2119074757 -275858089 1937515458 1752355552 -611034100 1469843415 691547594 -1741695933 1904329856 -1416212113 -2046402729 1156808313 -925492265 -974547422 -1946099844 -1428394076 1669202798
REM
CELL 1.54180   50.00000   50.00000   50.00000   90.00000   90.00000   90.00000
LATT -1
SFAC C  
C      1  0.4528700000000  0.4881110000000  0.5386000000000 1.0
C      1  0.4475020000000  0.4967470000000  0.4756290000000 1.0
C      1  0.5193570000000  0.5533990000000  0.4870320000000 1.0
C      1  0.5220500000000  0.5207000000000  0.4773070000000 1.0
C      1  0.5027960000000  0.5649440000000  0.5143930000000 1.0
C      1  0.5532770000000  0.5265050000000  0.5206940000000 1.0
C      1  0.4596920000000  0.5471090000000  0.4978870000000 1.0
C      1  0.4278380000000  0.5065550000000  0.5243310000000 1.0
C      1  0.5328240000000  0.4650250000000  0.4817280000000 1.0
C      1  0.4853300000000  0.5546790000000  0.4802820000000 1.0
C      1  0.4858430000000  0.5127680000000  0.5080370000000 1.0
C      1  0.4918810000000  0.5251330000000  0.4842020000000 1.0
C      1  0.5909560000000  0.4872240000000  0.5445290000000 1.0
C      1  0.4946720000000  0.4765110000000  0.4786380000000 1.0
C      1  0.4905660000000  0.4653710000000  0.5105130000000 1.0
C      1  0.5250780000000  0.5119190000000  0.4487950000000 1.0
C      1  0.5057370000000  0.4919350000000  0.5164670000000 1.0
C      1  0.5691480000000  0.4994740000000  0.5340110000000 1.0
C      1  0.4792720000000  0.5496130000000  0.5221510000000 1.0
C      1  0.4600660000000  0.5144840000000  0.5203980000000 1.0
C      1  0.5210620000000  0.5318160000000  0.5437380000000 1.0
C      1  0.4601330000000  0.4648960000000  0.5209600000000 1.0
C      1  0.4993150000000  0.5076490000000  0.4390220000000 1.0
C      1  0.4449660000000  0.4661560000000  0.4904450000000 1.0
C      1  0.4879930000000  0.5313290000000  0.5433680000000 1.0
C      1  0.5287280000000  0.4955430000000  0.4963470000000 1.0
C      1  0.5109890000000  0.4989490000000  0.5460230000000 1.0
C      1  0.5427950000000  0.5071600000000  0.5510820000000 1.0
C      1  0.4621350000000  0.4384660000000  0.5003070000000 1.0
C      1  0.5610860000000  0.4993460000000  0.5015930000000 1.0
C      1  0.5502050000000  0.4978060000000  0.4479800000000 1.0
C      1  0.4601970000000  0.4684130000000  0.4602270000000 1.0
C      1  0.5321410000000  0.5489190000000  0.5183350000000 1.0
C      1  0.4811110000000  0.4459260000000  0.4569840000000 1.0
C      1  0.5105990000000  0.4568700000000  0.4582250000000 1.0
C      1  0.5114440000000  0.4443840000000  0.4959440000000 1.0
C      1  0.4774780000000  0.4973610000000  0.4594010000000 1.0
C      1  0.4853770000000  0.4337400000000  0.4842150000000 1.0
C      1  0.4397900000000  0.5196120000000  0.4950420000000 1.0
C      1  0.5573810000000  0.4842840000000  0.4713260000000 1.0
C      1  0.4783200000000  0.5031670000000  0.5538100000000 1.0
END
