TITL C-2778430-5657-671 -0.00267706057293898 125000 -227.16449543318 0 0 40 (C1) n - 1
REM
REM in /home/nfs/bkarasulu/CARBON/AIRSS/Generating-Clusters/REBO/Only-C1/SD-CG/HFTN-CG
REM
REM
REM
REM
REM
REM ./C.cell (11c1c37f851c82e70ff6c80c92926a4b)
REM
REM compiler GCC version 9.2.1 20190827 (Red Hat 9.2.1-1)
REM options -cpp -mtune=generic -march=x86-64 -g -O0 -fpre-include=/usr/include/finclude/math-vector-fortran.h
REM seed 606743360 651153597 662012288 865167414 -1076217885 -738514738 -1163750752 -62493877 1203082247 -1562031197 917563093 -663675959 -1982059579 -1781451186 -1539085337 -1374975097 1741573010 -89066715 -1252262778 1799708815 -1378106272 1927400064 1619726386 -1245888504 -1952198977 -1187878716 1250865545 -1075268484 1531210652 -1314537902 -1144246938 1567498332 762666941
REM
CELL 1.54180   50.00000   50.00000   50.00000   90.00000   90.00000   90.00000
LATT -1
SFAC C  
C      1  0.5470870000000  0.4630530000000  0.5191350000000 1.0
C      1  0.4569310000000  0.5030400000000  0.4412720000000 1.0
C      1  0.4726290000000  0.5368940000000  0.5267600000000 1.0
C      1  0.5213870000000  0.5155180000000  0.5175910000000 1.0
C      1  0.5323530000000  0.5109170000000  0.5674650000000 1.0
C      1  0.4650260000000  0.5090860000000  0.5377760000000 1.0
C      1  0.5095880000000  0.4410160000000  0.4974060000000 1.0
C      1  0.5469540000000  0.5252650000000  0.5088960000000 1.0
C      1  0.4888730000000  0.5206800000000  0.4841700000000 1.0
C      1  0.4779840000000  0.4403580000000  0.4976600000000 1.0
C      1  0.4616370000000  0.5182820000000  0.4705420000000 1.0
C      1  0.4689890000000  0.4780120000000  0.4388870000000 1.0
C      1  0.5132830000000  0.4919110000000  0.4508490000000 1.0
C      1  0.4592350000000  0.4678030000000  0.5055210000000 1.0
C      1  0.5049330000000  0.4946770000000  0.4991340000000 1.0
C      1  0.5148820000000  0.5133950000000  0.5446720000000 1.0
C      1  0.4397190000000  0.5112970000000  0.4908240000000 1.0
C      1  0.4723480000000  0.4490000000000  0.5300600000000 1.0
C      1  0.5040340000000  0.4752290000000  0.5715300000000 1.0
C      1  0.5130380000000  0.5170560000000  0.4639490000000 1.0
C      1  0.5324530000000  0.4263570000000  0.4939550000000 1.0
C      1  0.5235640000000  0.5599560000000  0.4450670000000 1.0
C      1  0.5258880000000  0.4880740000000  0.5824810000000 1.0
C      1  0.5542860000000  0.4378820000000  0.5070050000000 1.0
C      1  0.4872210000000  0.5431810000000  0.5046170000000 1.0
C      1  0.5685200000000  0.5101260000000  0.5193910000000 1.0
C      1  0.4886590000000  0.4959000000000  0.5492400000000 1.0
C      1  0.5310660000000  0.5393390000000  0.4628640000000 1.0
C      1  0.5482070000000  0.5408020000000  0.4852700000000 1.0
C      1  0.4863300000000  0.4710710000000  0.4850560000000 1.0
C      1  0.4469270000000  0.4927100000000  0.5142720000000 1.0
C      1  0.4746950000000  0.5557560000000  0.4318870000000 1.0
C      1  0.4916310000000  0.4737410000000  0.4554320000000 1.0
C      1  0.4331280000000  0.4994250000000  0.5446470000000 1.0
C      1  0.4598130000000  0.5346630000000  0.4412580000000 1.0
C      1  0.4998540000000  0.5659100000000  0.4330040000000 1.0
C      1  0.4999470000000  0.5671420000000  0.4995870000000 1.0
C      1  0.5650760000000  0.4835400000000  0.5248220000000 1.0
C      1  0.4963870000000  0.4647780000000  0.5405910000000 1.0
C      1  0.5154380000000  0.4671590000000  0.5154520000000 1.0
END
