TITL C-2778429-3646-287 0.00285161343542217 125000 -737.942015042748 0 0 124 (C1) n - 1
REM
REM in /home/nfs/bkarasulu/CARBON/AIRSS/Generating-Clusters/REBO/Only-C1/SD-CG/HFTN-CG
REM
REM
REM
REM
REM
REM ./C.cell (11c1c37f851c82e70ff6c80c92926a4b)
REM
REM compiler GCC version 9.2.1 20190827 (Red Hat 9.2.1-1)
REM options -cpp -mtune=generic -march=x86-64 -g -O0 -fpre-include=/usr/include/finclude/math-vector-fortran.h
REM seed 1318054667 -648695506 1188542742 1829749496 -100772483 1402202421 -446867866 748750086 1047610897 65310704 225234443 -1141220458 82707242 949682195 -205412917 1230488983 1457350433 -785069759 1436516857 34761931 -1931471193 -1078039701 -293324820 -1909902357 1521695317 -1294995325 -160306347 1711478198 1988661034 138715898 563114638 17370926 89681603
REM
CELL 1.54180   50.00000   50.00000   50.00000   90.00000   90.00000   90.00000
LATT -1
SFAC C  
C      1  0.5327630000000  0.4153130000000  0.5069180000000 1.0
C      1  0.4801130000000  0.5021010000000  0.4022690000000 1.0
C      1  0.4954830000000  0.4322490000000  0.4365060000000 1.0
C      1  0.4520870000000  0.4587310000000  0.4395430000000 1.0
C      1  0.5866010000000  0.4714850000000  0.5227920000000 1.0
C      1  0.4521750000000  0.5230240000000  0.5644840000000 1.0
C      1  0.5131010000000  0.4464410000000  0.5439660000000 1.0
C      1  0.4885940000000  0.4704060000000  0.5438270000000 1.0
C      1  0.5912120000000  0.4945930000000  0.5420880000000 1.0
C      1  0.4874040000000  0.5921770000000  0.5126890000000 1.0
C      1  0.4712750000000  0.4576800000000  0.4169270000000 1.0
C      1  0.4493120000000  0.4939790000000  0.4823870000000 1.0
C      1  0.4594140000000  0.4844360000000  0.4098550000000 1.0
C      1  0.3962890000000  0.4832080000000  0.4988650000000 1.0
C      1  0.5779990000000  0.5181940000000  0.5230130000000 1.0
C      1  0.5120290000000  0.5562360000000  0.4933590000000 1.0
C      1  0.5642980000000  0.5719590000000  0.5061170000000 1.0
C      1  0.4064680000000  0.4786190000000  0.4681030000000 1.0
C      1  0.5391130000000  0.5843890000000  0.5087620000000 1.0
C      1  0.5833770000000  0.5009890000000  0.5701480000000 1.0
C      1  0.5357770000000  0.5448600000000  0.5128310000000 1.0
C      1  0.5726280000000  0.5307500000000  0.5744640000000 1.0
C      1  0.4162890000000  0.5094330000000  0.4645150000000 1.0
C      1  0.5469260000000  0.4687100000000  0.5647370000000 1.0
C      1  0.4491010000000  0.5511040000000  0.4688060000000 1.0
C      1  0.5199500000000  0.5708910000000  0.4545400000000 1.0
C      1  0.5580610000000  0.4376770000000  0.5027860000000 1.0
C      1  0.4698510000000  0.4891930000000  0.5239090000000 1.0
C      1  0.5120700000000  0.5036830000000  0.5469160000000 1.0
C      1  0.4943040000000  0.5313810000000  0.5878810000000 1.0
C      1  0.5555580000000  0.5135560000000  0.5952510000000 1.0
C      1  0.4368570000000  0.4428310000000  0.5378420000000 1.0
C      1  0.4700760000000  0.4155070000000  0.4496140000000 1.0
C      1  0.4779720000000  0.4311830000000  0.5552130000000 1.0
C      1  0.5159670000000  0.5437940000000  0.4255300000000 1.0
C      1  0.4960110000000  0.5021300000000  0.5210480000000 1.0
C      1  0.5447520000000  0.4390380000000  0.4608630000000 1.0
C      1  0.5316920000000  0.4845170000000  0.4324540000000 1.0
C      1  0.4150310000000  0.5238400000000  0.4892560000000 1.0
C      1  0.4654450000000  0.5754880000000  0.4744090000000 1.0
C      1  0.5329220000000  0.4844020000000  0.5455310000000 1.0
C      1  0.4167580000000  0.4466070000000  0.4668590000000 1.0
C      1  0.5521600000000  0.5317920000000  0.4140600000000 1.0
C      1  0.5275920000000  0.5163460000000  0.4087230000000 1.0
C      1  0.4656750000000  0.4409340000000  0.4721150000000 1.0
C      1  0.4997770000000  0.4120110000000  0.5590830000000 1.0
C      1  0.5994280000000  0.5430320000000  0.5158470000000 1.0
C      1  0.5102610000000  0.5335010000000  0.5409730000000 1.0
C      1  0.5728090000000  0.4479500000000  0.5287340000000 1.0
C      1  0.4262000000000  0.5068230000000  0.5572430000000 1.0
C      1  0.4047080000000  0.5079900000000  0.5109660000000 1.0
C      1  0.4380600000000  0.4383880000000  0.4867770000000 1.0
C      1  0.5215550000000  0.4819320000000  0.4588040000000 1.0
C      1  0.5035690000000  0.4533320000000  0.5757600000000 1.0
C      1  0.5625480000000  0.5495150000000  0.5556530000000 1.0
C      1  0.5590040000000  0.4858660000000  0.4314920000000 1.0
C      1  0.5471330000000  0.5543300000000  0.4331470000000 1.0
C      1  0.6120010000000  0.5169960000000  0.5305750000000 1.0
C      1  0.5042460000000  0.5447250000000  0.4661960000000 1.0
C      1  0.4712060000000  0.5310530000000  0.5093780000000 1.0
C      1  0.5039680000000  0.4594520000000  0.4187280000000 1.0
C      1  0.5859610000000  0.5067490000000  0.4814540000000 1.0
C      1  0.4468710000000  0.5393920000000  0.4405630000000 1.0
C      1  0.5684370000000  0.5555260000000  0.4826990000000 1.0
C      1  0.4850280000000  0.5181730000000  0.4634160000000 1.0
C      1  0.5434930000000  0.4830210000000  0.5144520000000 1.0
C      1  0.5845050000000  0.4787740000000  0.4958180000000 1.0
C      1  0.4352750000000  0.4585350000000  0.5121490000000 1.0
C      1  0.4644290000000  0.4727500000000  0.4646420000000 1.0
C      1  0.4188220000000  0.5474480000000  0.5336050000000 1.0
C      1  0.4963070000000  0.5417390000000  0.5166110000000 1.0
C      1  0.4473340000000  0.4837580000000  0.5088350000000 1.0
C      1  0.4687510000000  0.4541260000000  0.5745030000000 1.0
C      1  0.4440830000000  0.5639080000000  0.5199810000000 1.0
C      1  0.5142160000000  0.5192400000000  0.4469410000000 1.0
C      1  0.4633070000000  0.5824000000000  0.5018820000000 1.0
C      1  0.5870560000000  0.5340070000000  0.4874420000000 1.0
C      1  0.5234180000000  0.5702510000000  0.5327170000000 1.0
C      1  0.4314310000000  0.5152350000000  0.4405460000000 1.0
C      1  0.4403600000000  0.4561280000000  0.5620190000000 1.0
C      1  0.5110200000000  0.5882440000000  0.4952450000000 1.0
C      1  0.5398420000000  0.4157120000000  0.4747650000000 1.0
C      1  0.4820010000000  0.4052940000000  0.4797770000000 1.0
C      1  0.5667360000000  0.4568340000000  0.4765610000000 1.0
C      1  0.4207290000000  0.4664830000000  0.4395470000000 1.0
C      1  0.5084820000000  0.4169300000000  0.5268120000000 1.0
C      1  0.5718230000000  0.4853020000000  0.4590390000000 1.0
C      1  0.4676490000000  0.5467770000000  0.4226310000000 1.0
C      1  0.4123230000000  0.5196930000000  0.5360760000000 1.0
C      1  0.5491120000000  0.4920780000000  0.4828410000000 1.0
C      1  0.4834920000000  0.4840440000000  0.5737570000000 1.0
C      1  0.4731750000000  0.5291840000000  0.4011260000000 1.0
C      1  0.4915360000000  0.5610800000000  0.4320010000000 1.0
C      1  0.4945090000000  0.4603160000000  0.5116690000000 1.0
C      1  0.4798330000000  0.4090340000000  0.5098270000000 1.0
C      1  0.5321520000000  0.5531240000000  0.5579840000000 1.0
C      1  0.5602520000000  0.4458850000000  0.5539480000000 1.0
C      1  0.4548020000000  0.5271680000000  0.5312380000000 1.0
C      1  0.4559260000000  0.5541580000000  0.5507690000000 1.0
C      1  0.4956090000000  0.5809770000000  0.5374240000000 1.0
C      1  0.5330220000000  0.4532940000000  0.5191990000000 1.0
C      1  0.5086380000000  0.4910610000000  0.4091300000000 1.0
C      1  0.5148850000000  0.4410860000000  0.4930730000000 1.0
C      1  0.4718100000000  0.5098630000000  0.5844330000000 1.0
C      1  0.5498210000000  0.5164750000000  0.5143000000000 1.0
C      1  0.4829230000000  0.5670010000000  0.5580030000000 1.0
C      1  0.4311040000000  0.5460770000000  0.4940630000000 1.0
C      1  0.5349820000000  0.5201940000000  0.4722640000000 1.0
C      1  0.5087180000000  0.4803270000000  0.4903670000000 1.0
C      1  0.5610840000000  0.4842790000000  0.5843050000000 1.0
C      1  0.4613900000000  0.5233380000000  0.4814260000000 1.0
C      1  0.4262290000000  0.4801420000000  0.5654680000000 1.0
C      1  0.4872460000000  0.5796540000000  0.4571860000000 1.0
C      1  0.4988600000000  0.4324080000000  0.4704020000000 1.0
C      1  0.5023390000000  0.5534760000000  0.5744250000000 1.0
C      1  0.4902080000000  0.4876950000000  0.4642570000000 1.0
C      1  0.4482290000000  0.4211360000000  0.5139360000000 1.0
C      1  0.5751500000000  0.5588540000000  0.5314180000000 1.0
C      1  0.4354940000000  0.4916610000000  0.4244810000000 1.0
C      1  0.4587790000000  0.5051480000000  0.6094190000000 1.0
C      1  0.5257070000000  0.4461510000000  0.4415690000000 1.0
C      1  0.4745780000000  0.4377940000000  0.5258040000000 1.0
C      1  0.5447790000000  0.5498050000000  0.4653760000000 1.0
C      1  0.5189280000000  0.5108530000000  0.5002510000000 1.0
END
