TITL C-2778429-3646-539 0.0037363818556836 125000 -1121.38418939883 0 0 194 (C1) n - 1
REM
REM in /home/nfs/bkarasulu/CARBON/AIRSS/Generating-Clusters/REBO/Only-C1/SD-CG/HFTN-CG
REM
REM
REM
REM
REM
REM ./C.cell (11c1c37f851c82e70ff6c80c92926a4b)
REM
REM compiler GCC version 9.2.1 20190827 (Red Hat 9.2.1-1)
REM options -cpp -mtune=generic -march=x86-64 -g -O0 -fpre-include=/usr/include/finclude/math-vector-fortran.h
REM seed -1104822836 -1175214714 -1648445766 1763185674 -330024915 -560469555 -656335248 1904205206 -898151428 -1446137180 -1896065831 745592013 250468407 -2117318314 -1538215634 80475267 206822068 2107220847 -2038389799 808691337 448426888 -541760072 510806469 -1234624702 1025455694 1123330581 -2099071579 -1802293231 -1557507311 -1661438700 685074954 798463629 -1352620527
REM
CELL 1.54180   50.00000   50.00000   50.00000   90.00000   90.00000   90.00000
LATT -1
SFAC C  
C      1  0.4384080000000  0.5690620000000  0.5644800000000 1.0
C      1  0.5419550000000  0.6146440000000  0.5331710000000 1.0
C      1  0.4501030000000  0.4996990000000  0.4509660000000 1.0
C      1  0.5770290000000  0.5014580000000  0.4789450000000 1.0
C      1  0.3882600000000  0.5099390000000  0.5232300000000 1.0
C      1  0.4864470000000  0.3753130000000  0.5318190000000 1.0
C      1  0.4546070000000  0.4615760000000  0.4764870000000 1.0
C      1  0.4901080000000  0.4830600000000  0.4494390000000 1.0
C      1  0.4399950000000  0.4547100000000  0.5017980000000 1.0
C      1  0.5349390000000  0.4370080000000  0.4228910000000 1.0
C      1  0.4604600000000  0.5349490000000  0.4354270000000 1.0
C      1  0.5831580000000  0.6133390000000  0.5683810000000 1.0
C      1  0.5533190000000  0.4432550000000  0.3763850000000 1.0
C      1  0.3828500000000  0.4871590000000  0.5392030000000 1.0
C      1  0.4992010000000  0.6019170000000  0.5619670000000 1.0
C      1  0.4085280000000  0.4525710000000  0.4754250000000 1.0
C      1  0.5451150000000  0.4751070000000  0.5703210000000 1.0
C      1  0.5108700000000  0.4531600000000  0.4128030000000 1.0
C      1  0.5314190000000  0.4077210000000  0.4980870000000 1.0
C      1  0.4208710000000  0.4811540000000  0.5005360000000 1.0
C      1  0.5351420000000  0.4687990000000  0.4960080000000 1.0
C      1  0.5220360000000  0.5813320000000  0.4888470000000 1.0
C      1  0.6056890000000  0.4853500000000  0.4696960000000 1.0
C      1  0.4936050000000  0.5213410000000  0.6054130000000 1.0
C      1  0.5125450000000  0.4808320000000  0.4252960000000 1.0
C      1  0.5233310000000  0.5935410000000  0.5505970000000 1.0
C      1  0.4492540000000  0.5640680000000  0.4419300000000 1.0
C      1  0.4389110000000  0.4566130000000  0.4281610000000 1.0
C      1  0.4633660000000  0.4984600000000  0.4196320000000 1.0
C      1  0.5850860000000  0.5163570000000  0.4261940000000 1.0
C      1  0.5286760000000  0.4283770000000  0.5254190000000 1.0
C      1  0.4448040000000  0.4256260000000  0.4363040000000 1.0
C      1  0.4343940000000  0.5986390000000  0.4879540000000 1.0
C      1  0.4553920000000  0.4555820000000  0.5274100000000 1.0
C      1  0.4809420000000  0.5261360000000  0.4105270000000 1.0
C      1  0.5419530000000  0.4978270000000  0.6025980000000 1.0
C      1  0.4031800000000  0.4812980000000  0.4255590000000 1.0
C      1  0.4415080000000  0.5991460000000  0.5161190000000 1.0
C      1  0.4406730000000  0.5064650000000  0.5087400000000 1.0
C      1  0.5610400000000  0.4199020000000  0.4864150000000 1.0
C      1  0.5847730000000  0.4276970000000  0.5094920000000 1.0
C      1  0.5340850000000  0.5272170000000  0.5023810000000 1.0
C      1  0.5058780000000  0.4480550000000  0.3803380000000 1.0
C      1  0.4160380000000  0.5782900000000  0.4772160000000 1.0
C      1  0.4522730000000  0.4805890000000  0.5440840000000 1.0
C      1  0.5163310000000  0.5696810000000  0.5911600000000 1.0
C      1  0.5487720000000  0.4069990000000  0.4450440000000 1.0
C      1  0.5577970000000  0.5106110000000  0.4260760000000 1.0
C      1  0.4267240000000  0.4755850000000  0.5741250000000 1.0
C      1  0.5516440000000  0.5238610000000  0.4751280000000 1.0
C      1  0.5732610000000  0.4578620000000  0.5008540000000 1.0
C      1  0.4665070000000  0.4755510000000  0.5725610000000 1.0
C      1  0.5423040000000  0.5581420000000  0.5140740000000 1.0
C      1  0.5212380000000  0.4920200000000  0.4794170000000 1.0
C      1  0.6077130000000  0.5267020000000  0.4825120000000 1.0
C      1  0.5011340000000  0.5009540000000  0.4072250000000 1.0
C      1  0.5938850000000  0.5241410000000  0.5319720000000 1.0
C      1  0.5137890000000  0.5223510000000  0.5709060000000 1.0
C      1  0.4548930000000  0.6059510000000  0.4697900000000 1.0
C      1  0.3962620000000  0.4621530000000  0.5379980000000 1.0
C      1  0.5126930000000  0.4926500000000  0.5853970000000 1.0
C      1  0.4984960000000  0.5898990000000  0.4525800000000 1.0
C      1  0.4937060000000  0.4014580000000  0.4303610000000 1.0
C      1  0.4491840000000  0.4908560000000  0.5949050000000 1.0
C      1  0.4734870000000  0.5185440000000  0.5795850000000 1.0
C      1  0.4328930000000  0.5034910000000  0.5556570000000 1.0
C      1  0.5121980000000  0.5013070000000  0.5100700000000 1.0
C      1  0.4681290000000  0.4572610000000  0.4455870000000 1.0
C      1  0.5457430000000  0.3906870000000  0.5312080000000 1.0
C      1  0.4795320000000  0.5061920000000  0.5007590000000 1.0
C      1  0.4768570000000  0.5354020000000  0.5512490000000 1.0
C      1  0.5149350000000  0.4699380000000  0.5599100000000 1.0
C      1  0.4862460000000  0.4973230000000  0.5562710000000 1.0
C      1  0.5819400000000  0.4390310000000  0.4668330000000 1.0
C      1  0.5132040000000  0.5691360000000  0.4235480000000 1.0
C      1  0.4285460000000  0.5470470000000  0.5141780000000 1.0
C      1  0.4003230000000  0.4799790000000  0.4579380000000 1.0
C      1  0.6136830000000  0.4935320000000  0.4419790000000 1.0
C      1  0.4602490000000  0.4706220000000  0.4090170000000 1.0
C      1  0.4866900000000  0.4532140000000  0.5643370000000 1.0
C      1  0.5442310000000  0.5229210000000  0.4009970000000 1.0
C      1  0.4309300000000  0.5761350000000  0.5318630000000 1.0
C      1  0.4040460000000  0.5625010000000  0.4976280000000 1.0
C      1  0.5746780000000  0.4683720000000  0.4148810000000 1.0
C      1  0.4859530000000  0.5168060000000  0.4489770000000 1.0
C      1  0.6052990000000  0.4569900000000  0.4769480000000 1.0
C      1  0.5174060000000  0.6276540000000  0.5160630000000 1.0
C      1  0.5567990000000  0.4421200000000  0.5341120000000 1.0
C      1  0.5948700000000  0.4890090000000  0.5871330000000 1.0
C      1  0.4886430000000  0.4648510000000  0.4783730000000 1.0
C      1  0.5660580000000  0.4308930000000  0.4399880000000 1.0
C      1  0.4227800000000  0.5617990000000  0.4542100000000 1.0
C      1  0.4836150000000  0.4315270000000  0.4435990000000 1.0
C      1  0.3805640000000  0.5130820000000  0.4971890000000 1.0
C      1  0.4296050000000  0.4288450000000  0.5556570000000 1.0
C      1  0.4115350000000  0.5565470000000  0.5493580000000 1.0
C      1  0.4877470000000  0.5900530000000  0.5072980000000 1.0
C      1  0.5158410000000  0.5399080000000  0.6067810000000 1.0
C      1  0.4773530000000  0.4888910000000  0.5251200000000 1.0
C      1  0.6177580000000  0.5208010000000  0.4561340000000 1.0
C      1  0.5441130000000  0.5310090000000  0.5951670000000 1.0
C      1  0.5542720000000  0.4609870000000  0.4483590000000 1.0
C      1  0.4697680000000  0.5488960000000  0.4724950000000 1.0
C      1  0.6064640000000  0.4539880000000  0.5084440000000 1.0
C      1  0.4824170000000  0.4385170000000  0.4993100000000 1.0
C      1  0.4577180000000  0.5090840000000  0.4785990000000 1.0
C      1  0.4698740000000  0.4197080000000  0.4153130000000 1.0
C      1  0.5559870000000  0.4734560000000  0.5225380000000 1.0
C      1  0.5012350000000  0.3824850000000  0.4539520000000 1.0
C      1  0.5229850000000  0.6069530000000  0.4689260000000 1.0
C      1  0.5056070000000  0.4367260000000  0.4671810000000 1.0
C      1  0.4797520000000  0.4475600000000  0.4010420000000 1.0
C      1  0.5993180000000  0.4793730000000  0.4217870000000 1.0
C      1  0.4912660000000  0.5569070000000  0.4484630000000 1.0
C      1  0.4159220000000  0.4541820000000  0.5582510000000 1.0
C      1  0.5434690000000  0.4437960000000  0.4748730000000 1.0
C      1  0.4520630000000  0.5193170000000  0.5344210000000 1.0
C      1  0.5628820000000  0.5663140000000  0.4918320000000 1.0
C      1  0.5587770000000  0.4466420000000  0.4040700000000 1.0
C      1  0.5215230000000  0.6310060000000  0.4888310000000 1.0
C      1  0.5686730000000  0.4724960000000  0.4745670000000 1.0
C      1  0.5602980000000  0.6039340000000  0.5597340000000 1.0
C      1  0.4868070000000  0.5799900000000  0.5784370000000 1.0
C      1  0.5058080000000  0.3999870000000  0.4771030000000 1.0
C      1  0.5845680000000  0.4703290000000  0.5660050000000 1.0
C      1  0.5394880000000  0.4373060000000  0.5815550000000 1.0
C      1  0.5063700000000  0.4410310000000  0.5870510000000 1.0
C      1  0.5455590000000  0.5083840000000  0.5697010000000 1.0
C      1  0.4833780000000  0.6025790000000  0.4785650000000 1.0
C      1  0.5894580000000  0.5095250000000  0.5618650000000 1.0
C      1  0.4404340000000  0.5371400000000  0.4832370000000 1.0
C      1  0.4647920000000  0.5867360000000  0.4472870000000 1.0
C      1  0.4802340000000  0.4920810000000  0.6084030000000 1.0
C      1  0.5147130000000  0.4438100000000  0.5000380000000 1.0
C      1  0.4983270000000  0.5487920000000  0.5722390000000 1.0
C      1  0.5066890000000  0.5187470000000  0.4745270000000 1.0
C      1  0.4264500000000  0.4363470000000  0.4634490000000 1.0
C      1  0.4904690000000  0.5571520000000  0.4085260000000 1.0
C      1  0.4947050000000  0.4132370000000  0.5397330000000 1.0
C      1  0.4676920000000  0.3951210000000  0.5449260000000 1.0
C      1  0.5155230000000  0.5062240000000  0.5434380000000 1.0
C      1  0.5394210000000  0.5598230000000  0.4320590000000 1.0
C      1  0.4499590000000  0.4118340000000  0.4657400000000 1.0
C      1  0.5013960000000  0.4678040000000  0.6055830000000 1.0
C      1  0.4779460000000  0.4125750000000  0.4852210000000 1.0
C      1  0.4204260000000  0.4286230000000  0.5048840000000 1.0
C      1  0.3929300000000  0.5113000000000  0.4666140000000 1.0
C      1  0.5790860000000  0.5408720000000  0.4846040000000 1.0
C      1  0.4423240000000  0.4073770000000  0.5411340000000 1.0
C      1  0.5173510000000  0.4275660000000  0.5575890000000 1.0
C      1  0.5797660000000  0.5407870000000  0.5580940000000 1.0
C      1  0.4852830000000  0.4439760000000  0.5316340000000 1.0
C      1  0.5504170000000  0.5869040000000  0.4707780000000 1.0
C      1  0.4400980000000  0.5535030000000  0.5886480000000 1.0
C      1  0.4319270000000  0.5196770000000  0.4331200000000 1.0
C      1  0.5043350000000  0.5440230000000  0.5331000000000 1.0
C      1  0.5225330000000  0.5344210000000  0.4062380000000 1.0
C      1  0.4917310000000  0.6175180000000  0.5240870000000 1.0
C      1  0.4184170000000  0.5110870000000  0.4846850000000 1.0
C      1  0.5351580000000  0.4644190000000  0.6017030000000 1.0
C      1  0.4008920000000  0.4548090000000  0.5085160000000 1.0
C      1  0.4332290000000  0.4745760000000  0.4533880000000 1.0
C      1  0.5462440000000  0.5098470000000  0.5289320000000 1.0
C      1  0.5279150000000  0.4443050000000  0.3655140000000 1.0
C      1  0.4094490000000  0.5274030000000  0.5338690000000 1.0
C      1  0.5567390000000  0.5782450000000  0.4423410000000 1.0
C      1  0.4334760000000  0.4057530000000  0.5137800000000 1.0
C      1  0.5143770000000  0.3912740000000  0.5227580000000 1.0
C      1  0.4164170000000  0.5000550000000  0.4147650000000 1.0
C      1  0.4508690000000  0.3952940000000  0.4941750000000 1.0
C      1  0.5642730000000  0.4103490000000  0.5276980000000 1.0
C      1  0.4118350000000  0.5349530000000  0.4511330000000 1.0
C      1  0.5628450000000  0.4483580000000  0.5631790000000 1.0
C      1  0.5112790000000  0.5318990000000  0.4370480000000 1.0
C      1  0.5422890000000  0.5292690000000  0.4463580000000 1.0
C      1  0.5816740000000  0.4865440000000  0.5379710000000 1.0
C      1  0.5056510000000  0.4712600000000  0.5273940000000 1.0
C      1  0.5292930000000  0.5863420000000  0.5189850000000 1.0
C      1  0.5511720000000  0.5482640000000  0.5666960000000 1.0
C      1  0.5723110000000  0.5172750000000  0.5087010000000 1.0
C      1  0.4801150000000  0.5679690000000  0.5284020000000 1.0
C      1  0.6118320000000  0.5119330000000  0.5068720000000 1.0
C      1  0.4173170000000  0.5285750000000  0.5672280000000 1.0
C      1  0.4957080000000  0.5655090000000  0.4869720000000 1.0
C      1  0.5421160000000  0.5781260000000  0.5724500000000 1.0
C      1  0.4429960000000  0.5231600000000  0.5888690000000 1.0
C      1  0.4629730000000  0.5441140000000  0.5152330000000 1.0
C      1  0.4637930000000  0.6070190000000  0.5339530000000 1.0
C      1  0.5441760000000  0.4824720000000  0.4297580000000 1.0
C      1  0.5202950000000  0.4164300000000  0.4458150000000 1.0
C      1  0.4657660000000  0.5813810000000  0.5547610000000 1.0
C      1  0.4944010000000  0.5364730000000  0.5013630000000 1.0
C      1  0.5355800000000  0.5402180000000  0.5401650000000 1.0
C      1  0.6054320000000  0.4844220000000  0.5185920000000 1.0
END
