TITL C-2778422-5617-556 0.000269067700247745 125000 -1055.32775719948 0 0 177 (C1) n - 1
REM
REM in /home/nfs/bkarasulu/CARBON/AIRSS/Generating-Clusters/REBO/Only-C1/SD-CG/HFTN-CG
REM
REM
REM
REM
REM
REM ./C.cell (11c1c37f851c82e70ff6c80c92926a4b)
REM
REM compiler GCC version 9.2.1 20190827 (Red Hat 9.2.1-1)
REM options -cpp -mtune=generic -march=x86-64 -g -O0 -fpre-include=/usr/include/finclude/math-vector-fortran.h
REM seed 1382119494 -1391649912 -1897707567 904510980 -2030365445 1356756870 -397476672 352714951 1545427746 1305511522 1938202605 -1422141130 1223516666 452224923 -1325159356 1941275266 -1934353286 -805403333 -196273930 1048179528 1852728576 616010301 -1868678769 -924313821 12912795 1904752741 -1120628851 1317382773 1613989182 158701612 91182783 944426273 107211544
REM
CELL 1.54180   50.00000   50.00000   50.00000   90.00000   90.00000   90.00000
LATT -1
SFAC C  
C      1  0.4804540000000  0.4072440000000  0.4199320000000 1.0
C      1  0.4988610000000  0.4514340000000  0.5695180000000 1.0
C      1  0.5021330000000  0.4994500000000  0.4469220000000 1.0
C      1  0.5319550000000  0.4596120000000  0.4503060000000 1.0
C      1  0.4262420000000  0.4542280000000  0.4405520000000 1.0
C      1  0.5457290000000  0.4882950000000  0.4417240000000 1.0
C      1  0.4751320000000  0.5664500000000  0.4474380000000 1.0
C      1  0.4772420000000  0.4895870000000  0.4312800000000 1.0
C      1  0.5952190000000  0.5606210000000  0.5066280000000 1.0
C      1  0.4616200000000  0.5708940000000  0.5835860000000 1.0
C      1  0.5790180000000  0.5829790000000  0.4999560000000 1.0
C      1  0.4282560000000  0.5691360000000  0.4382460000000 1.0
C      1  0.5774800000000  0.5129790000000  0.5431150000000 1.0
C      1  0.5392210000000  0.5186210000000  0.6000880000000 1.0
C      1  0.4249360000000  0.5138040000000  0.5106280000000 1.0
C      1  0.5686180000000  0.4867850000000  0.5227370000000 1.0
C      1  0.5756950000000  0.5203800000000  0.4238500000000 1.0
C      1  0.5058910000000  0.4384250000000  0.4991050000000 1.0
C      1  0.4534650000000  0.5030480000000  0.5679980000000 1.0
C      1  0.5510770000000  0.4633180000000  0.5499320000000 1.0
C      1  0.5779760000000  0.4345680000000  0.5190860000000 1.0
C      1  0.5339640000000  0.5600320000000  0.5750020000000 1.0
C      1  0.4596930000000  0.5425020000000  0.5376690000000 1.0
C      1  0.4193350000000  0.4894750000000  0.5333880000000 1.0
C      1  0.4635820000000  0.4107270000000  0.5439610000000 1.0
C      1  0.6100340000000  0.4788170000000  0.5177860000000 1.0
C      1  0.4745140000000  0.5562990000000  0.5033730000000 1.0
C      1  0.5013970000000  0.5413690000000  0.4048560000000 1.0
C      1  0.4726160000000  0.6094010000000  0.5094500000000 1.0
C      1  0.5011460000000  0.5499240000000  0.4594350000000 1.0
C      1  0.4326500000000  0.4545270000000  0.5474050000000 1.0
C      1  0.5112660000000  0.4224890000000  0.5713420000000 1.0
C      1  0.5551920000000  0.4191170000000  0.4759790000000 1.0
C      1  0.4514170000000  0.4871470000000  0.5231980000000 1.0
C      1  0.5641440000000  0.5464080000000  0.4361250000000 1.0
C      1  0.4611650000000  0.5450090000000  0.5925710000000 1.0
C      1  0.4205890000000  0.5391740000000  0.5592740000000 1.0
C      1  0.4003410000000  0.4994470000000  0.4575670000000 1.0
C      1  0.5182910000000  0.5623630000000  0.4813080000000 1.0
C      1  0.5357460000000  0.6036100000000  0.5014200000000 1.0
C      1  0.5652060000000  0.4987130000000  0.4085110000000 1.0
C      1  0.5092330000000  0.4633730000000  0.5174660000000 1.0
C      1  0.3998740000000  0.4616510000000  0.4795120000000 1.0
C      1  0.4257820000000  0.4794040000000  0.4642730000000 1.0
C      1  0.5220610000000  0.5926880000000  0.4742330000000 1.0
C      1  0.4404110000000  0.4241300000000  0.4488300000000 1.0
C      1  0.5355150000000  0.5113050000000  0.5148210000000 1.0
C      1  0.4280950000000  0.5653750000000  0.5463880000000 1.0
C      1  0.4374910000000  0.4506570000000  0.4785650000000 1.0
C      1  0.4025960000000  0.5404580000000  0.5303070000000 1.0
C      1  0.5264260000000  0.4503790000000  0.3956860000000 1.0
C      1  0.4320860000000  0.5120400000000  0.4186420000000 1.0
C      1  0.4572350000000  0.4313030000000  0.5166870000000 1.0
C      1  0.4301310000000  0.4621840000000  0.5865280000000 1.0
C      1  0.5262420000000  0.5109130000000  0.4301290000000 1.0
C      1  0.4536960000000  0.4480260000000  0.5857090000000 1.0
C      1  0.4812010000000  0.3995300000000  0.5203290000000 1.0
C      1  0.4293770000000  0.5894800000000  0.4944330000000 1.0
C      1  0.4683930000000  0.5959590000000  0.5392440000000 1.0
C      1  0.4734480000000  0.5289010000000  0.4994300000000 1.0
C      1  0.5788430000000  0.5149650000000  0.4554540000000 1.0
C      1  0.5521110000000  0.5859800000000  0.5507100000000 1.0
C      1  0.5478090000000  0.5295220000000  0.5377880000000 1.0
C      1  0.3867000000000  0.4749170000000  0.5000020000000 1.0
C      1  0.5722780000000  0.4716630000000  0.4169810000000 1.0
C      1  0.4778810000000  0.4926760000000  0.5849050000000 1.0
C      1  0.5351870000000  0.4044560000000  0.5255840000000 1.0
C      1  0.5405780000000  0.4351210000000  0.4195730000000 1.0
C      1  0.3970420000000  0.5330780000000  0.4573300000000 1.0
C      1  0.4860610000000  0.4394550000000  0.4788130000000 1.0
C      1  0.5245150000000  0.5109320000000  0.5531040000000 1.0
C      1  0.5188720000000  0.5828680000000  0.5547780000000 1.0
C      1  0.4944470000000  0.4469430000000  0.4506340000000 1.0
C      1  0.4793710000000  0.4625570000000  0.5868470000000 1.0
C      1  0.4615980000000  0.5190530000000  0.4693900000000 1.0
C      1  0.5679290000000  0.4786830000000  0.5826420000000 1.0
C      1  0.5330660000000  0.5407320000000  0.4372140000000 1.0
C      1  0.4563490000000  0.5715330000000  0.4712160000000 1.0
C      1  0.4980680000000  0.5069330000000  0.5318650000000 1.0
C      1  0.4747930000000  0.4794320000000  0.4916880000000 1.0
C      1  0.4348490000000  0.4110020000000  0.4797690000000 1.0
C      1  0.4536200000000  0.5314100000000  0.4162560000000 1.0
C      1  0.4603720000000  0.4686870000000  0.4019020000000 1.0
C      1  0.4621430000000  0.4002870000000  0.4920280000000 1.0
C      1  0.5631920000000  0.5213260000000  0.4985450000000 1.0
C      1  0.5051460000000  0.6109710000000  0.5053310000000 1.0
C      1  0.5096220000000  0.4086250000000  0.5065810000000 1.0
C      1  0.4385620000000  0.5418800000000  0.5133240000000 1.0
C      1  0.5643420000000  0.5589710000000  0.5659800000000 1.0
C      1  0.4788930000000  0.4569460000000  0.4283150000000 1.0
C      1  0.4788760000000  0.5237610000000  0.4055620000000 1.0
C      1  0.5058480000000  0.4027440000000  0.5441610000000 1.0
C      1  0.4064620000000  0.5170460000000  0.4300280000000 1.0
C      1  0.4985680000000  0.5027070000000  0.6075320000000 1.0
C      1  0.5230080000000  0.5321960000000  0.3902660000000 1.0
C      1  0.5760630000000  0.5563040000000  0.4600450000000 1.0
C      1  0.5261610000000  0.4721710000000  0.4209480000000 1.0
C      1  0.4517120000000  0.4976810000000  0.4502940000000 1.0
C      1  0.4117410000000  0.4410310000000  0.5234720000000 1.0
C      1  0.4328470000000  0.4215520000000  0.5385630000000 1.0
C      1  0.6047300000000  0.5140290000000  0.4782110000000 1.0
C      1  0.5348360000000  0.5040520000000  0.3986090000000 1.0
C      1  0.5667210000000  0.5229390000000  0.5931440000000 1.0
C      1  0.5096730000000  0.5606270000000  0.4286910000000 1.0
C      1  0.4391020000000  0.4807030000000  0.4234160000000 1.0
C      1  0.5874100000000  0.4594670000000  0.4770080000000 1.0
C      1  0.5701540000000  0.4388310000000  0.4594780000000 1.0
C      1  0.4422110000000  0.5446840000000  0.4806300000000 1.0
C      1  0.5614990000000  0.4321140000000  0.5743270000000 1.0
C      1  0.4582290000000  0.6022090000000  0.4806650000000 1.0
C      1  0.5420590000000  0.5588180000000  0.5328680000000 1.0
C      1  0.5463910000000  0.5222740000000  0.4626220000000 1.0
C      1  0.5602140000000  0.4157870000000  0.5053510000000 1.0
C      1  0.4997560000000  0.6013090000000  0.5372750000000 1.0
C      1  0.4690790000000  0.4085080000000  0.4450600000000 1.0
C      1  0.4568650000000  0.5725290000000  0.5536050000000 1.0
C      1  0.4506870000000  0.4425220000000  0.4218470000000 1.0
C      1  0.5781270000000  0.5047810000000  0.5744350000000 1.0
C      1  0.4164270000000  0.5529100000000  0.4640150000000 1.0
C      1  0.5973470000000  0.4870620000000  0.4607350000000 1.0
C      1  0.4838510000000  0.4918490000000  0.3980360000000 1.0
C      1  0.4561420000000  0.5786780000000  0.5125550000000 1.0
C      1  0.5208990000000  0.4298770000000  0.4433390000000 1.0
C      1  0.5013340000000  0.5647650000000  0.5060960000000 1.0
C      1  0.6194750000000  0.5055180000000  0.5026010000000 1.0
C      1  0.4178450000000  0.5678250000000  0.5158480000000 1.0
C      1  0.5395510000000  0.4421680000000  0.5269570000000 1.0
C      1  0.4632920000000  0.4416410000000  0.5546330000000 1.0
C      1  0.4301370000000  0.4837720000000  0.5629640000000 1.0
C      1  0.4927540000000  0.5379330000000  0.5442970000000 1.0
C      1  0.4944070000000  0.5221780000000  0.4665350000000 1.0
C      1  0.4659690000000  0.5090220000000  0.5395770000000 1.0
C      1  0.4890740000000  0.5336000000000  0.5976490000000 1.0
C      1  0.5424550000000  0.5453170000000  0.4861360000000 1.0
C      1  0.5308060000000  0.4701300000000  0.4807550000000 1.0
C      1  0.5122320000000  0.4813370000000  0.3926910000000 1.0
C      1  0.5301090000000  0.4105740000000  0.4638070000000 1.0
C      1  0.4131670000000  0.4339970000000  0.4925010000000 1.0
C      1  0.4522960000000  0.5576260000000  0.4285570000000 1.0
C      1  0.3988280000000  0.4698370000000  0.5243550000000 1.0
C      1  0.5104760000000  0.5592100000000  0.5333700000000 1.0
C      1  0.5150050000000  0.4362010000000  0.6023160000000 1.0
C      1  0.4175290000000  0.5855190000000  0.4654500000000 1.0
C      1  0.5421480000000  0.4899740000000  0.5657220000000 1.0
C      1  0.5350050000000  0.4814190000000  0.5258190000000 1.0
C      1  0.5576510000000  0.4539960000000  0.5922070000000 1.0
C      1  0.3936930000000  0.5205950000000  0.5085280000000 1.0
C      1  0.5019210000000  0.4930430000000  0.5046250000000 1.0
C      1  0.4428020000000  0.4918180000000  0.4914770000000 1.0
C      1  0.4903310000000  0.4579240000000  0.5414180000000 1.0
C      1  0.5218540000000  0.5402830000000  0.5915140000000 1.0
C      1  0.5014190000000  0.5879250000000  0.4475460000000 1.0
C      1  0.5650920000000  0.4784000000000  0.4619960000000 1.0
C      1  0.4809550000000  0.3995860000000  0.4693480000000 1.0
C      1  0.6078100000000  0.5072100000000  0.5323990000000 1.0
C      1  0.5741380000000  0.5830370000000  0.4715340000000 1.0
C      1  0.5434440000000  0.4516630000000  0.5005490000000 1.0
C      1  0.5861480000000  0.4615690000000  0.5070080000000 1.0
C      1  0.5002590000000  0.4752490000000  0.4690000000000 1.0
C      1  0.5573980000000  0.4886130000000  0.4909200000000 1.0
C      1  0.5316240000000  0.4601830000000  0.6045400000000 1.0
C      1  0.4610140000000  0.4399650000000  0.4873830000000 1.0
C      1  0.6018710000000  0.5567630000000  0.5335190000000 1.0
C      1  0.3840480000000  0.5157850000000  0.4825770000000 1.0
C      1  0.5867590000000  0.5392930000000  0.4858280000000 1.0
C      1  0.5257650000000  0.4909030000000  0.6067820000000 1.0
C      1  0.4909320000000  0.6065530000000  0.4743180000000 1.0
C      1  0.5383870000000  0.4223600000000  0.5546360000000 1.0
C      1  0.4972510000000  0.5170020000000  0.5703510000000 1.0
C      1  0.5737590000000  0.4389410000000  0.5465790000000 1.0
C      1  0.4681080000000  0.4613260000000  0.5201480000000 1.0
C      1  0.4416720000000  0.5291050000000  0.5779010000000 1.0
C      1  0.5548510000000  0.5866790000000  0.5172000000000 1.0
C      1  0.5216630000000  0.5113390000000  0.4837120000000 1.0
C      1  0.5085390000000  0.3997250000000  0.4776280000000 1.0
C      1  0.5646980000000  0.4471530000000  0.4310490000000 1.0
C      1  0.5845100000000  0.5449370000000  0.5523520000000 1.0
END
