TITL C-2778423-5760-933 0.134257776098857 125000 -611.654729424495 0 0 106 (C1) n - 1
REM
REM in /home/nfs/bkarasulu/CARBON/AIRSS/Generating-Clusters/REBO/Only-C1/SD-CG/HFTN-CG
REM
REM
REM
REM
REM
REM ./C.cell (11c1c37f851c82e70ff6c80c92926a4b)
REM
REM compiler GCC version 9.2.1 20190827 (Red Hat 9.2.1-1)
REM options -cpp -mtune=generic -march=x86-64 -g -O0 -fpre-include=/usr/include/finclude/math-vector-fortran.h
REM seed 1150057563 346923388 -843859368 1019907964 -631783072 316253910 1115020560 1055591460 -1652620890 -584883888 -828995819 324977697 1670665033 -122664628 1951681468 1628765269 -75181011 -1587576547 1054010046 1008124393 1911972718 -995546477 998101019 -954169701 -2117857159 -311660329 -1413855839 -1788409043 1291573965 1990744484 -1671813873 -1864121930 1940695820
REM
CELL 1.54180   50.00000   50.00000   50.00000   90.00000   90.00000   90.00000
LATT -1
SFAC C  
C      1  0.4428340000000  0.5751260000000  0.4537700000000 1.0
C      1  0.3948850000000  0.5131190000000  0.4533060000000 1.0
C      1  0.4108280000000  0.4733540000000  0.5126230000000 1.0
C      1  0.4832910000000  0.4078780000000  0.4337100000000 1.0
C      1  0.4803340000000  0.5488870000000  0.5009120000000 1.0
C      1  0.5105490000000  0.5670120000000  0.4458560000000 1.0
C      1  0.5302500000000  0.5792180000000  0.4895880000000 1.0
C      1  0.4275080000000  0.4857110000000  0.5603280000000 1.0
C      1  0.4247390000000  0.5403010000000  0.4857640000000 1.0
C      1  0.5707240000000  0.4982660000000  0.4492020000000 1.0
C      1  0.5712260000000  0.5106860000000  0.5232830000000 1.0
C      1  0.5399430000000  0.5276520000000  0.5714940000000 1.0
C      1  0.4596260000000  0.5298670000000  0.5745760000000 1.0
C      1  0.4560140000000  0.5245480000000  0.5426120000000 1.0
C      1  0.5569480000000  0.4201000000000  0.5124870000000 1.0
C      1  0.4559600000000  0.4826620000000  0.5729450000000 1.0
C      1  0.4040780000000  0.5206320000000  0.5306040000000 1.0
C      1  0.4833230000000  0.5772380000000  0.4898900000000 1.0
C      1  0.4424960000000  0.5486730000000  0.5311630000000 1.0
C      1  0.4140710000000  0.5084400000000  0.4939500000000 1.0
C      1  0.5802260000000  0.4899080000000  0.5409100000000 1.0
C      1  0.5067320000000  0.5046000000000  0.4799570000000 1.0
C      1  0.4783380000000  0.5520280000000  0.4224810000000 1.0
C      1  0.5048460000000  0.4553120000000  0.5130940000000 1.0
C      1  0.4597320000000  0.5728100000000  0.5365660000000 1.0
C      1  0.4987930000000  0.4284290000000  0.5589560000000 1.0
C      1  0.5246700000000  0.4118000000000  0.5466660000000 1.0
C      1  0.5606330000000  0.4278540000000  0.4857850000000 1.0
C      1  0.5219280000000  0.5414460000000  0.4406710000000 1.0
C      1  0.4570350000000  0.5347980000000  0.4946490000000 1.0
C      1  0.5368660000000  0.4390140000000  0.5557950000000 1.0
C      1  0.5389020000000  0.4013050000000  0.5244950000000 1.0
C      1  0.5010520000000  0.3964140000000  0.4528150000000 1.0
C      1  0.5067300000000  0.4835910000000  0.4418140000000 1.0
C      1  0.5067800000000  0.5795680000000  0.5346070000000 1.0
C      1  0.5045930000000  0.5506400000000  0.5493310000000 1.0
C      1  0.5991130000000  0.5061320000000  0.4938470000000 1.0
C      1  0.4598200000000  0.5064380000000  0.4913190000000 1.0
C      1  0.4618800000000  0.4652220000000  0.4701730000000 1.0
C      1  0.5534400000000  0.5380950000000  0.4957030000000 1.0
C      1  0.4608050000000  0.5689990000000  0.4345770000000 1.0
C      1  0.5385160000000  0.5151790000000  0.4801390000000 1.0
C      1  0.4191790000000  0.5287320000000  0.4541120000000 1.0
C      1  0.4490700000000  0.4956500000000  0.5360530000000 1.0
C      1  0.5313920000000  0.4381540000000  0.3773300000000 1.0
C      1  0.5083690000000  0.4455240000000  0.4822810000000 1.0
C      1  0.4669360000000  0.5052990000000  0.5865670000000 1.0
C      1  0.5169210000000  0.4516690000000  0.5760030000000 1.0
C      1  0.3983380000000  0.4521330000000  0.5014660000000 1.0
C      1  0.5871750000000  0.4803020000000  0.5027590000000 1.0
C      1  0.5349710000000  0.4508220000000  0.3999920000000 1.0
C      1  0.4618820000000  0.5587550000000  0.5645770000000 1.0
C      1  0.4976120000000  0.5038940000000  0.5916630000000 1.0
C      1  0.5359430000000  0.4801020000000  0.5553280000000 1.0
C      1  0.5250810000000  0.5160370000000  0.5418460000000 1.0
C      1  0.5445280000000  0.5199100000000  0.4506660000000 1.0
C      1  0.5813370000000  0.5340890000000  0.4909820000000 1.0
C      1  0.4822040000000  0.4452310000000  0.5347520000000 1.0
C      1  0.5417820000000  0.4591530000000  0.4537870000000 1.0
C      1  0.5581200000000  0.4444220000000  0.5306830000000 1.0
C      1  0.5070950000000  0.5792390000000  0.4728060000000 1.0
C      1  0.5348300000000  0.5764410000000  0.5454310000000 1.0
C      1  0.5708150000000  0.4676800000000  0.4605290000000 1.0
C      1  0.4261020000000  0.5709380000000  0.4759380000000 1.0
C      1  0.4870820000000  0.5261120000000  0.4284250000000 1.0
C      1  0.5276780000000  0.4089550000000  0.4499260000000 1.0
C      1  0.5561840000000  0.4678850000000  0.5092590000000 1.0
C      1  0.5489220000000  0.5535170000000  0.5545850000000 1.0
C      1  0.5347850000000  0.4313500000000  0.4689420000000 1.0
C      1  0.4904520000000  0.4603760000000  0.4615040000000 1.0
C      1  0.5253770000000  0.4189450000000  0.4221270000000 1.0
C      1  0.5351690000000  0.4994260000000  0.5788470000000 1.0
C      1  0.4785400000000  0.5025760000000  0.4707560000000 1.0
C      1  0.4091770000000  0.4929100000000  0.5364430000000 1.0
C      1  0.3931770000000  0.5001070000000  0.4779560000000 1.0
C      1  0.5080850000000  0.5417260000000  0.5165160000000 1.0
C      1  0.4372130000000  0.4681860000000  0.4759950000000 1.0
C      1  0.5037500000000  0.5827940000000  0.4244510000000 1.0
C      1  0.4693260000000  0.5121070000000  0.4454840000000 1.0
C      1  0.5003720000000  0.5011400000000  0.5593280000000 1.0
C      1  0.4114290000000  0.5900940000000  0.4893340000000 1.0
C      1  0.5904730000000  0.5159460000000  0.4647420000000 1.0
C      1  0.5542350000000  0.5296610000000  0.5348070000000 1.0
C      1  0.4943160000000  0.4555890000000  0.4285370000000 1.0
C      1  0.5610570000000  0.4703420000000  0.5487180000000 1.0
C      1  0.5803450000000  0.4476410000000  0.4772790000000 1.0
C      1  0.4680230000000  0.4191910000000  0.5477470000000 1.0
C      1  0.4975730000000  0.4295890000000  0.4186190000000 1.0
C      1  0.4819820000000  0.5834530000000  0.5208560000000 1.0
C      1  0.5342520000000  0.5560830000000  0.5053320000000 1.0
C      1  0.5246360000000  0.4794380000000  0.4691600000000 1.0
C      1  0.4736530000000  0.4743890000000  0.5462770000000 1.0
C      1  0.5140600000000  0.5110700000000  0.4269870000000 1.0
C      1  0.5153860000000  0.5087690000000  0.5120710000000 1.0
C      1  0.5385490000000  0.4634860000000  0.4226400000000 1.0
C      1  0.5432900000000  0.4937070000000  0.4292540000000 1.0
C      1  0.5075060000000  0.4750820000000  0.5408210000000 1.0
C      1  0.4181520000000  0.5425060000000  0.5186190000000 1.0
C      1  0.5152280000000  0.4760070000000  0.5890670000000 1.0
C      1  0.5258860000000  0.4778280000000  0.5021940000000 1.0
C      1  0.5085430000000  0.5328270000000  0.5968420000000 1.0
C      1  0.4381320000000  0.4918570000000  0.5081920000000 1.0
C      1  0.5592740000000  0.4986650000000  0.4956340000000 1.0
C      1  0.5091680000000  0.5515720000000  0.5800460000000 1.0
C      1  0.4866520000000  0.5255690000000  0.5455560000000 1.0
C      1  0.4421700000000  0.5184010000000  0.4421610000000 1.0
END
