TITL C-2778434-4341-465 1.90083992705252e-05 125000 -270.222514771982 0 0 49 (C1) n - 1
REM
REM in /home/nfs/bkarasulu/CARBON/AIRSS/Generating-Clusters/REBO/Only-C1/SD-CG/HFTN-CG
REM
REM
REM
REM
REM
REM ./C.cell (11c1c37f851c82e70ff6c80c92926a4b)
REM
REM compiler GCC version 9.2.1 20190827 (Red Hat 9.2.1-1)
REM options -cpp -mtune=generic -march=x86-64 -g -O0 -fpre-include=/usr/include/finclude/math-vector-fortran.h
REM seed -1867687794 -1185642918 839560183 639972688 158595791 791356520 -297931202 524580071 -69469041 387196148 -1489907166 -340036406 -1853047965 1981310801 -944524545 102908990 1931196110 597803294 1172695017 -798090416 -1689135273 -247078440 1185527280 519119172 -341382384 844027933 -1859051417 -976693310 -777128924 1924959555 1033857296 -1691637902 -677479746
REM
CELL 1.54180   50.00000   50.00000   50.00000   90.00000   90.00000   90.00000
LATT -1
SFAC C  
C      1  0.5164600000000  0.5220210000000  0.4789070000000 1.0
C      1  0.5530220000000  0.5067780000000  0.4730660000000 1.0
C      1  0.5271830000000  0.5067040000000  0.4520160000000 1.0
C      1  0.4810410000000  0.5119630000000  0.5803940000000 1.0
C      1  0.5321370000000  0.5239010000000  0.4273270000000 1.0
C      1  0.5107420000000  0.5131980000000  0.5702290000000 1.0
C      1  0.5094420000000  0.5701510000000  0.5079250000000 1.0
C      1  0.5305840000000  0.4946560000000  0.5674170000000 1.0
C      1  0.4600710000000  0.5410050000000  0.4771400000000 1.0
C      1  0.4594170000000  0.4813350000000  0.4679210000000 1.0
C      1  0.5615840000000  0.4627070000000  0.5031510000000 1.0
C      1  0.5497490000000  0.4673680000000  0.4788820000000 1.0
C      1  0.5516250000000  0.5186790000000  0.5433380000000 1.0
C      1  0.4757570000000  0.5167680000000  0.4380310000000 1.0
C      1  0.4425890000000  0.4856480000000  0.5153960000000 1.0
C      1  0.5293110000000  0.4288350000000  0.4590640000000 1.0
C      1  0.5314300000000  0.5492970000000  0.4927050000000 1.0
C      1  0.5341520000000  0.5404230000000  0.5425370000000 1.0
C      1  0.4289750000000  0.5396890000000  0.5131730000000 1.0
C      1  0.4799280000000  0.4608440000000  0.5483260000000 1.0
C      1  0.4767190000000  0.5128650000000  0.5502050000000 1.0
C      1  0.4690720000000  0.5671680000000  0.4826020000000 1.0
C      1  0.5045930000000  0.5275650000000  0.5400980000000 1.0
C      1  0.4892050000000  0.4435280000000  0.5289680000000 1.0
C      1  0.5076270000000  0.4809770000000  0.4450640000000 1.0
C      1  0.4931230000000  0.5016460000000  0.4904880000000 1.0
C      1  0.4790660000000  0.5224640000000  0.4673440000000 1.0
C      1  0.4640650000000  0.5735230000000  0.5290100000000 1.0
C      1  0.4971260000000  0.4491070000000  0.4696150000000 1.0
C      1  0.5515670000000  0.5220250000000  0.4970060000000 1.0
C      1  0.4777630000000  0.4883870000000  0.4465250000000 1.0
C      1  0.4821300000000  0.5745910000000  0.5068400000000 1.0
C      1  0.5357410000000  0.5612350000000  0.5235740000000 1.0
C      1  0.5245210000000  0.4696420000000  0.4706970000000 1.0
C      1  0.4409910000000  0.5584050000000  0.5293520000000 1.0
C      1  0.5399210000000  0.4893160000000  0.5378040000000 1.0
C      1  0.5207240000000  0.4350610000000  0.4898120000000 1.0
C      1  0.4720230000000  0.4561340000000  0.4836520000000 1.0
C      1  0.4426420000000  0.4976570000000  0.4870410000000 1.0
C      1  0.5445210000000  0.4628660000000  0.5247250000000 1.0
C      1  0.5138260000000  0.4847890000000  0.5124020000000 1.0
C      1  0.4679470000000  0.4876670000000  0.5371410000000 1.0
C      1  0.4988670000000  0.4269210000000  0.4437510000000 1.0
C      1  0.5220420000000  0.5164090000000  0.5131410000000 1.0
C      1  0.4746010000000  0.4813580000000  0.5046820000000 1.0
C      1  0.5162690000000  0.4510250000000  0.5163490000000 1.0
C      1  0.5186630000000  0.4516550000000  0.4360560000000 1.0
C      1  0.4704870000000  0.4372800000000  0.5093410000000 1.0
C      1  0.4389560000000  0.5267690000000  0.4897700000000 1.0
END
