TITL C-2778429-3646-341 0.00254291384406523 125000 -558.416426332798 0 0 96 (C1) n - 1
REM
REM in /home/nfs/bkarasulu/CARBON/AIRSS/Generating-Clusters/REBO/Only-C1/SD-CG/HFTN-CG
REM
REM
REM
REM
REM
REM ./C.cell (11c1c37f851c82e70ff6c80c92926a4b)
REM
REM compiler GCC version 9.2.1 20190827 (Red Hat 9.2.1-1)
REM options -cpp -mtune=generic -march=x86-64 -g -O0 -fpre-include=/usr/include/finclude/math-vector-fortran.h
REM seed 1223702199 -286949202 484551746 1843968729 347802861 -584477334 882078854 713818184 1607592870 -163903344 -333898306 796042153 -182541892 -943827342 -808532810 1347214431 1394474476 1823128080 -410768865 1046235879 -2062362458 -198286575 -563966064 -765748821 240471252 -1555404800 -1061257778 766294701 1456879098 -344745016 -572129490 -479666117 42644179
REM
CELL 1.54180   50.00000   50.00000   50.00000   90.00000   90.00000   90.00000
LATT -1
SFAC C  
C      1  0.5183990000000  0.5198600000000  0.4726430000000 1.0
C      1  0.5055540000000  0.5165340000000  0.4208570000000 1.0
C      1  0.5099190000000  0.5377810000000  0.4993540000000 1.0
C      1  0.5343830000000  0.4791790000000  0.4886670000000 1.0
C      1  0.4860700000000  0.5260580000000  0.5598980000000 1.0
C      1  0.5556250000000  0.5521650000000  0.4524810000000 1.0
C      1  0.5647450000000  0.5517480000000  0.5022580000000 1.0
C      1  0.5456100000000  0.5042020000000  0.5088960000000 1.0
C      1  0.5715600000000  0.5146330000000  0.4894790000000 1.0
C      1  0.5132760000000  0.5407300000000  0.5526800000000 1.0
C      1  0.4882570000000  0.5613370000000  0.4538100000000 1.0
C      1  0.5386010000000  0.4719250000000  0.5589960000000 1.0
C      1  0.4534310000000  0.4362620000000  0.4596480000000 1.0
C      1  0.4779280000000  0.5334290000000  0.5048960000000 1.0
C      1  0.5425530000000  0.5769980000000  0.4647530000000 1.0
C      1  0.5341860000000  0.5291610000000  0.4457550000000 1.0
C      1  0.5562210000000  0.5815070000000  0.4897120000000 1.0
C      1  0.4965570000000  0.4497650000000  0.4286960000000 1.0
C      1  0.4960100000000  0.4217030000000  0.5539600000000 1.0
C      1  0.5336490000000  0.4395340000000  0.5196230000000 1.0
C      1  0.5460110000000  0.5730150000000  0.5204780000000 1.0
C      1  0.5165370000000  0.5730080000000  0.5203510000000 1.0
C      1  0.5203790000000  0.4193370000000  0.4960920000000 1.0
C      1  0.4996250000000  0.5685400000000  0.4914770000000 1.0
C      1  0.5807180000000  0.5383880000000  0.4668760000000 1.0
C      1  0.4353580000000  0.4675590000000  0.5237780000000 1.0
C      1  0.4689530000000  0.4580010000000  0.4445060000000 1.0
C      1  0.4981070000000  0.4760080000000  0.4504140000000 1.0
C      1  0.4574430000000  0.4726410000000  0.4809370000000 1.0
C      1  0.4245790000000  0.5193570000000  0.5272910000000 1.0
C      1  0.4317630000000  0.5430300000000  0.4319360000000 1.0
C      1  0.4654280000000  0.5396740000000  0.5423580000000 1.0
C      1  0.5645990000000  0.5152220000000  0.4386160000000 1.0
C      1  0.4018000000000  0.4342750000000  0.6113400000000 1.0
C      1  0.5356000000000  0.4456310000000  0.4804550000000 1.0
C      1  0.5768070000000  0.4989830000000  0.4614170000000 1.0
C      1  0.5137780000000  0.4646880000000  0.5288460000000 1.0
C      1  0.5792750000000  0.4755650000000  0.4862800000000 1.0
C      1  0.5079200000000  0.4704800000000  0.4084170000000 1.0
C      1  0.5035950000000  0.4228100000000  0.5245800000000 1.0
C      1  0.4796310000000  0.4920790000000  0.4910050000000 1.0
C      1  0.4229910000000  0.5524350000000  0.4830860000000 1.0
C      1  0.4163020000000  0.4455370000000  0.5926400000000 1.0
C      1  0.4511770000000  0.4476020000000  0.5034510000000 1.0
C      1  0.5456170000000  0.5344170000000  0.4832650000000 1.0
C      1  0.5693200000000  0.5094080000000  0.5627420000000 1.0
C      1  0.5258950000000  0.5278450000000  0.5235600000000 1.0
C      1  0.4437410000000  0.5141330000000  0.4452320000000 1.0
C      1  0.4431910000000  0.5585620000000  0.5027050000000 1.0
C      1  0.4058550000000  0.5300220000000  0.4821620000000 1.0
C      1  0.4707860000000  0.4179440000000  0.4733250000000 1.0
C      1  0.5140640000000  0.5772520000000  0.4645250000000 1.0
C      1  0.4700010000000  0.5059770000000  0.5155200000000 1.0
C      1  0.5119550000000  0.5031230000000  0.5393890000000 1.0
C      1  0.5344790000000  0.4768410000000  0.4174460000000 1.0
C      1  0.4300290000000  0.4441920000000  0.4764270000000 1.0
C      1  0.4960220000000  0.4407680000000  0.5703470000000 1.0
C      1  0.4584540000000  0.5446260000000  0.4496150000000 1.0
C      1  0.5069480000000  0.4682250000000  0.5618290000000 1.0
C      1  0.4463950000000  0.4689080000000  0.5538350000000 1.0
C      1  0.4024770000000  0.5159280000000  0.5098090000000 1.0
C      1  0.4871050000000  0.5570290000000  0.5273720000000 1.0
C      1  0.5603580000000  0.4525640000000  0.5029680000000 1.0
C      1  0.4347090000000  0.4899060000000  0.4670740000000 1.0
C      1  0.5803900000000  0.5066560000000  0.5353480000000 1.0
C      1  0.5425410000000  0.4612840000000  0.4400470000000 1.0
C      1  0.5206630000000  0.4405070000000  0.4499440000000 1.0
C      1  0.4797010000000  0.5348640000000  0.4734880000000 1.0
C      1  0.4854170000000  0.4533720000000  0.4841780000000 1.0
C      1  0.4680940000000  0.5708410000000  0.4950080000000 1.0
C      1  0.4785860000000  0.4275500000000  0.5051390000000 1.0
C      1  0.4310380000000  0.4569810000000  0.5736380000000 1.0
C      1  0.4511400000000  0.4820360000000  0.4393850000000 1.0
C      1  0.5443070000000  0.4778050000000  0.5289750000000 1.0
C      1  0.4943210000000  0.5298620000000  0.4426010000000 1.0
C      1  0.5637650000000  0.5532550000000  0.5418220000000 1.0
C      1  0.4958400000000  0.4973690000000  0.5755060000000 1.0
C      1  0.4410180000000  0.5431190000000  0.5279490000000 1.0
C      1  0.5371390000000  0.5070290000000  0.4210950000000 1.0
C      1  0.5018350000000  0.4266310000000  0.4718540000000 1.0
C      1  0.4424900000000  0.4978660000000  0.5253650000000 1.0
C      1  0.5052260000000  0.5727360000000  0.5512170000000 1.0
C      1  0.5486910000000  0.4921570000000  0.5756610000000 1.0
C      1  0.4929580000000  0.4949280000000  0.4058540000000 1.0
C      1  0.4868420000000  0.4935500000000  0.5369000000000 1.0
C      1  0.4698920000000  0.4823510000000  0.5587560000000 1.0
C      1  0.5591580000000  0.5376070000000  0.5660110000000 1.0
C      1  0.5260790000000  0.5085550000000  0.5852370000000 1.0
C      1  0.4176240000000  0.4666980000000  0.4947590000000 1.0
C      1  0.5320270000000  0.5350390000000  0.5752430000000 1.0
C      1  0.5054710000000  0.4731090000000  0.4996060000000 1.0
C      1  0.5551660000000  0.4751120000000  0.4624920000000 1.0
C      1  0.5796790000000  0.5331440000000  0.5237180000000 1.0
C      1  0.4997680000000  0.4964230000000  0.4676590000000 1.0
C      1  0.5752710000000  0.4794410000000  0.5187630000000 1.0
C      1  0.4095530000000  0.4960760000000  0.4839440000000 1.0
END
