TITL C-2778437-8639-841 -7.03975649112829e-08 125000 -37.7561488472272 0 0 8 (Cs) n - 1
REM
REM in /home/nfs/bkarasulu/CARBON/AIRSS/Generating-Clusters/REBO/Only-C1/SD-CG/HFTN-CG
REM
REM
REM
REM
REM
REM ./C.cell (11c1c37f851c82e70ff6c80c92926a4b)
REM
REM compiler GCC version 9.2.1 20190827 (Red Hat 9.2.1-1)
REM options -cpp -mtune=generic -march=x86-64 -g -O0 -fpre-include=/usr/include/finclude/math-vector-fortran.h
REM seed -697604512 -1951700876 -1987067067 1806291678 60861417 -1666771107 -493571263 -2077922243 -482872070 460624506 -642520812 1705956972 -517378454 -2016451058 -12247985 -354665778 1610102184 1843494279 -414189461 -1472699362 -870694162 881027496 -1305658153 -973987513 1862010002 -1661242721 2085641536 1255459730 1900242401 2104607819 -519004038 1632216169 -1514811521
REM
CELL 1.54180   50.00000   50.00000   50.00000   90.00000   90.00000   90.00000
LATT -1
SFAC C  
C      1  0.4880770000000  0.4373960000000  0.5069400000000 1.0
C      1  0.4853870000000  0.5322220000000  0.5258750000000 1.0
C      1  0.4927830000000  0.4628670000000  0.5029520000000 1.0
C      1  0.4990920000000  0.5234600000000  0.4543260000000 1.0
C      1  0.4976150000000  0.4890230000000  0.4988560000000 1.0
C      1  0.5001580000000  0.5134650000000  0.4792250000000 1.0
C      1  0.5315890000000  0.5227840000000  0.5201080000000 1.0
C      1  0.5052990000000  0.5187830000000  0.5117180000000 1.0
END
