TITL C-2778424-3986-1270 -0.000482619069461821 125000 -433.324227729863 0 0 74 (C1) n - 1
REM
REM in /home/nfs/bkarasulu/CARBON/AIRSS/Generating-Clusters/REBO/Only-C1/SD-CG/HFTN-CG
REM
REM
REM
REM
REM
REM ./C.cell (11c1c37f851c82e70ff6c80c92926a4b)
REM
REM compiler GCC version 9.2.1 20190827 (Red Hat 9.2.1-1)
REM options -cpp -mtune=generic -march=x86-64 -g -O0 -fpre-include=/usr/include/finclude/math-vector-fortran.h
REM seed -434724416 1252881570 1891332745 2014462480 978268685 -1596468315 1514093852 643851915 1839079812 843474252 -1885652141 -958000866 -1246960460 -1805153124 -1865384118 994022646 488092044 -557576061 -1473126578 1837164117 -951533921 -1784378823 -1733834049 508930847 -517325350 -209821554 -862018662 -1575958546 1334463457 1859423914 981807278 982920697 295110956
REM
CELL 1.54180   50.00000   50.00000   50.00000   90.00000   90.00000   90.00000
LATT -1
SFAC C  
C      1  0.4672900000000  0.4360100000000  0.4902450000000 1.0
C      1  0.5532280000000  0.5397850000000  0.5054300000000 1.0
C      1  0.4846180000000  0.5458740000000  0.4960610000000 1.0
C      1  0.4433890000000  0.4929430000000  0.5038690000000 1.0
C      1  0.5243600000000  0.5417600000000  0.4999850000000 1.0
C      1  0.4981210000000  0.4419270000000  0.5331790000000 1.0
C      1  0.5644020000000  0.4893060000000  0.4559680000000 1.0
C      1  0.5044430000000  0.5009580000000  0.4703760000000 1.0
C      1  0.4681540000000  0.4828960000000  0.5637140000000 1.0
C      1  0.4838490000000  0.5938290000000  0.4101780000000 1.0
C      1  0.5545760000000  0.4949260000000  0.5012040000000 1.0
C      1  0.5402980000000  0.4619410000000  0.5624860000000 1.0
C      1  0.4907130000000  0.5419880000000  0.4238940000000 1.0
C      1  0.4644680000000  0.5521140000000  0.5523050000000 1.0
C      1  0.4696720000000  0.4337540000000  0.5181550000000 1.0
C      1  0.4991630000000  0.5650640000000  0.5201580000000 1.0
C      1  0.5183570000000  0.5026340000000  0.4190540000000 1.0
C      1  0.4699050000000  0.5262250000000  0.4362090000000 1.0
C      1  0.5560900000000  0.5288930000000  0.5317540000000 1.0
C      1  0.4871760000000  0.5686980000000  0.4168270000000 1.0
C      1  0.5037340000000  0.4744670000000  0.5361750000000 1.0
C      1  0.4884940000000  0.4716760000000  0.4485280000000 1.0
C      1  0.5170120000000  0.4841140000000  0.4435920000000 1.0
C      1  0.5084220000000  0.5146110000000  0.5014380000000 1.0
C      1  0.5160520000000  0.5039050000000  0.5484140000000 1.0
C      1  0.5351000000000  0.4925240000000  0.4827320000000 1.0
C      1  0.5313450000000  0.4274850000000  0.4867260000000 1.0
C      1  0.5474720000000  0.4563410000000  0.5087480000000 1.0
C      1  0.4721620000000  0.4844750000000  0.5302820000000 1.0
C      1  0.4257430000000  0.4592150000000  0.5354830000000 1.0
C      1  0.4882600000000  0.4572060000000  0.4770440000000 1.0
C      1  0.4497180000000  0.5490190000000  0.5153370000000 1.0
C      1  0.5027980000000  0.4814830000000  0.5050190000000 1.0
C      1  0.4475280000000  0.4413240000000  0.5381300000000 1.0
C      1  0.4563490000000  0.4774580000000  0.4543910000000 1.0
C      1  0.5271860000000  0.5671810000000  0.4636830000000 1.0
C      1  0.4722750000000  0.4975350000000  0.4325470000000 1.0
C      1  0.5314340000000  0.5302540000000  0.5463280000000 1.0
C      1  0.4417470000000  0.4365740000000  0.4775220000000 1.0
C      1  0.5182610000000  0.4577830000000  0.4913330000000 1.0
C      1  0.4432580000000  0.5023420000000  0.5508850000000 1.0
C      1  0.4723390000000  0.4519820000000  0.5532150000000 1.0
C      1  0.5781880000000  0.4874150000000  0.5469910000000 1.0
C      1  0.5115540000000  0.5508440000000  0.5458300000000 1.0
C      1  0.5427700000000  0.4705460000000  0.4502170000000 1.0
C      1  0.5196910000000  0.4803230000000  0.5719550000000 1.0
C      1  0.4685670000000  0.5161660000000  0.5026990000000 1.0
C      1  0.4690440000000  0.5700630000000  0.5281610000000 1.0
C      1  0.5671470000000  0.4711980000000  0.5661810000000 1.0
C      1  0.4923200000000  0.5221810000000  0.5813200000000 1.0
C      1  0.5161340000000  0.5738660000000  0.4927180000000 1.0
C      1  0.5218620000000  0.4272590000000  0.5168750000000 1.0
C      1  0.4244820000000  0.4861240000000  0.4787360000000 1.0
C      1  0.5320180000000  0.5363200000000  0.4498940000000 1.0
C      1  0.5064700000000  0.5413280000000  0.4719010000000 1.0
C      1  0.5167300000000  0.5294260000000  0.4246110000000 1.0
C      1  0.4699140000000  0.4745890000000  0.4998040000000 1.0
C      1  0.5418760000000  0.4441930000000  0.4622370000000 1.0
C      1  0.5375040000000  0.4472010000000  0.5375560000000 1.0
C      1  0.4519390000000  0.5343120000000  0.4585390000000 1.0
C      1  0.4898200000000  0.5448870000000  0.5643910000000 1.0
C      1  0.4380700000000  0.5098450000000  0.4682180000000 1.0
C      1  0.4721640000000  0.5025910000000  0.4719040000000 1.0
C      1  0.5817160000000  0.4770140000000  0.4757550000000 1.0
C      1  0.4922660000000  0.4938590000000  0.5787670000000 1.0
C      1  0.4332980000000  0.4608780000000  0.4658570000000 1.0
C      1  0.4546130000000  0.5485670000000  0.4840100000000 1.0
C      1  0.4903680000000  0.5112480000000  0.5285050000000 1.0
C      1  0.5664660000000  0.5022410000000  0.5262170000000 1.0
C      1  0.5722240000000  0.4596140000000  0.4953060000000 1.0
C      1  0.5567040000000  0.5182320000000  0.4596240000000 1.0
C      1  0.4461020000000  0.5294980000000  0.5431250000000 1.0
C      1  0.4307660000000  0.4867630000000  0.5305250000000 1.0
C      1  0.5682510000000  0.5309300000000  0.4829720000000 1.0
END
