TITL C-2778427-5640-87 -0.00420870220025323 125000 -821.838379083965 0 0 144 (C1) n - 1
REM
REM in /home/nfs/bkarasulu/CARBON/AIRSS/Generating-Clusters/REBO/Only-C1/SD-CG/HFTN-CG
REM
REM
REM
REM
REM
REM ./C.cell (11c1c37f851c82e70ff6c80c92926a4b)
REM
REM compiler GCC version 9.2.1 20190827 (Red Hat 9.2.1-1)
REM options -cpp -mtune=generic -march=x86-64 -g -O0 -fpre-include=/usr/include/finclude/math-vector-fortran.h
REM seed -1779195625 -1354128207 -988034692 1547849316 42554332 1579128699 2129376060 -1481678279 1391883533 -1771969877 12253796 239101524 -922210713 -1127979853 -2123549495 821798788 321207213 -1321271357 805480306 1421384586 989331351 1193114138 -2236374 409800543 -157179211 -1149333537 -1037914312 122929261 1661451346 -78809422 -1876478183 -959178534 1304308704
REM
CELL 1.54180   50.00000   50.00000   50.00000   90.00000   90.00000   90.00000
LATT -1
SFAC C  
C      1  0.5003280000000  0.4389230000000  0.5791360000000 1.0
C      1  0.4528700000000  0.4209250000000  0.5434460000000 1.0
C      1  0.4194140000000  0.4773820000000  0.4349250000000 1.0
C      1  0.5081720000000  0.5553770000000  0.5557550000000 1.0
C      1  0.4545980000000  0.4729800000000  0.4756080000000 1.0
C      1  0.5710510000000  0.5669650000000  0.4511150000000 1.0
C      1  0.5340920000000  0.4087970000000  0.4653690000000 1.0
C      1  0.4287450000000  0.4766090000000  0.5403730000000 1.0
C      1  0.4573380000000  0.5611030000000  0.5051660000000 1.0
C      1  0.4974040000000  0.5185540000000  0.5332150000000 1.0
C      1  0.4762890000000  0.5872950000000  0.4405060000000 1.0
C      1  0.4384560000000  0.5561480000000  0.4372320000000 1.0
C      1  0.5387930000000  0.4170010000000  0.4380620000000 1.0
C      1  0.4529430000000  0.4090590000000  0.5134120000000 1.0
C      1  0.4978480000000  0.4690200000000  0.5322280000000 1.0
C      1  0.4936580000000  0.5687510000000  0.5841550000000 1.0
C      1  0.5315710000000  0.5920430000000  0.4512570000000 1.0
C      1  0.5843740000000  0.5571420000000  0.5049390000000 1.0
C      1  0.5479710000000  0.4720010000000  0.4172160000000 1.0
C      1  0.5116570000000  0.5649310000000  0.4726580000000 1.0
C      1  0.5905320000000  0.5091050000000  0.5452730000000 1.0
C      1  0.4520670000000  0.5122010000000  0.5834620000000 1.0
C      1  0.4612730000000  0.4639330000000  0.4056420000000 1.0
C      1  0.4232620000000  0.4815760000000  0.4673120000000 1.0
C      1  0.5522870000000  0.4663580000000  0.4866370000000 1.0
C      1  0.4901580000000  0.4474300000000  0.4819960000000 1.0
C      1  0.4520170000000  0.4901180000000  0.5248700000000 1.0
C      1  0.4449460000000  0.4401510000000  0.4437090000000 1.0
C      1  0.4627240000000  0.5209330000000  0.5147810000000 1.0
C      1  0.5106710000000  0.4851410000000  0.4981820000000 1.0
C      1  0.4933500000000  0.5270010000000  0.5004940000000 1.0
C      1  0.5370220000000  0.4994320000000  0.5881780000000 1.0
C      1  0.5767410000000  0.5273040000000  0.5704820000000 1.0
C      1  0.5390530000000  0.4590780000000  0.5373740000000 1.0
C      1  0.5855490000000  0.4469850000000  0.4464190000000 1.0
C      1  0.4605140000000  0.5900970000000  0.4689400000000 1.0
C      1  0.5642140000000  0.5396710000000  0.4556520000000 1.0
C      1  0.4171540000000  0.5081870000000  0.5350590000000 1.0
C      1  0.4647800000000  0.4660070000000  0.5540460000000 1.0
C      1  0.4879950000000  0.4171510000000  0.4295370000000 1.0
C      1  0.5227470000000  0.5059810000000  0.5174050000000 1.0
C      1  0.4285340000000  0.4166180000000  0.5003860000000 1.0
C      1  0.5317660000000  0.5550980000000  0.5803210000000 1.0
C      1  0.5247270000000  0.4896050000000  0.4694720000000 1.0
C      1  0.5566510000000  0.4952930000000  0.4758830000000 1.0
C      1  0.4795660000000  0.4683150000000  0.4569390000000 1.0
C      1  0.5008620000000  0.5495190000000  0.4209370000000 1.0
C      1  0.5440850000000  0.4908390000000  0.5356040000000 1.0
C      1  0.5614020000000  0.4956690000000  0.4246450000000 1.0
C      1  0.5619160000000  0.5202180000000  0.4357920000000 1.0
C      1  0.4750100000000  0.4884100000000  0.3968780000000 1.0
C      1  0.5820980000000  0.4634420000000  0.5129080000000 1.0
C      1  0.4309520000000  0.5255940000000  0.5605020000000 1.0
C      1  0.5120360000000  0.5954470000000  0.5393130000000 1.0
C      1  0.5329940000000  0.4639000000000  0.5083370000000 1.0
C      1  0.4919380000000  0.5917070000000  0.5590980000000 1.0
C      1  0.4649040000000  0.4470230000000  0.5267870000000 1.0
C      1  0.6007910000000  0.4618450000000  0.4915930000000 1.0
C      1  0.4798470000000  0.5636080000000  0.4723740000000 1.0
C      1  0.4795780000000  0.4819220000000  0.5058450000000 1.0
C      1  0.6018210000000  0.4633920000000  0.4631370000000 1.0
C      1  0.4976950000000  0.4666870000000  0.4216040000000 1.0
C      1  0.4316920000000  0.4443060000000  0.5487900000000 1.0
C      1  0.4158480000000  0.5178970000000  0.4821640000000 1.0
C      1  0.5654780000000  0.5148480000000  0.4992970000000 1.0
C      1  0.4393420000000  0.4601680000000  0.4242760000000 1.0
C      1  0.5229100000000  0.4769190000000  0.4058720000000 1.0
C      1  0.4193430000000  0.6009740000000  0.4875320000000 1.0
C      1  0.5511590000000  0.5394020000000  0.4848830000000 1.0
C      1  0.5390670000000  0.3989130000000  0.4974250000000 1.0
C      1  0.4720320000000  0.4854680000000  0.5812990000000 1.0
C      1  0.5440390000000  0.4535380000000  0.5653620000000 1.0
C      1  0.5550660000000  0.5711100000000  0.4975990000000 1.0
C      1  0.4853760000000  0.5238050000000  0.4688960000000 1.0
C      1  0.4519010000000  0.4488570000000  0.4973200000000 1.0
C      1  0.5037400000000  0.4051270000000  0.4803140000000 1.0
C      1  0.4013950000000  0.4868510000000  0.5133800000000 1.0
C      1  0.5159410000000  0.4867290000000  0.5544950000000 1.0
C      1  0.4819250000000  0.4124480000000  0.4591660000000 1.0
C      1  0.5657550000000  0.5402770000000  0.5434530000000 1.0
C      1  0.5016690000000  0.4382030000000  0.5394180000000 1.0
C      1  0.4601470000000  0.5127190000000  0.4492720000000 1.0
C      1  0.4644890000000  0.5738220000000  0.5574710000000 1.0
C      1  0.4512980000000  0.5356800000000  0.4863130000000 1.0
C      1  0.4195850000000  0.4453490000000  0.4991320000000 1.0
C      1  0.4619160000000  0.4343550000000  0.4683530000000 1.0
C      1  0.5112610000000  0.4098340000000  0.5133340000000 1.0
C      1  0.5491070000000  0.4165410000000  0.5236860000000 1.0
C      1  0.4340460000000  0.5855690000000  0.5018280000000 1.0
C      1  0.4879260000000  0.5660690000000  0.5055530000000 1.0
C      1  0.5722090000000  0.4930800000000  0.5234300000000 1.0
C      1  0.5841720000000  0.5310140000000  0.5197280000000 1.0
C      1  0.5041880000000  0.5200160000000  0.4268140000000 1.0
C      1  0.5204200000000  0.5371620000000  0.4818500000000 1.0
C      1  0.5044600000000  0.5375600000000  0.5913420000000 1.0
C      1  0.4786810000000  0.4951750000000  0.5432500000000 1.0
C      1  0.5003210000000  0.4443480000000  0.4437930000000 1.0
C      1  0.5133810000000  0.5145360000000  0.4573390000000 1.0
C      1  0.5040140000000  0.5168690000000  0.5650210000000 1.0
C      1  0.5533890000000  0.5840960000000  0.4663460000000 1.0
C      1  0.4601910000000  0.5722540000000  0.4210700000000 1.0
C      1  0.4401680000000  0.5630280000000  0.4693980000000 1.0
C      1  0.5138220000000  0.5578020000000  0.5259830000000 1.0
C      1  0.5362130000000  0.5204040000000  0.5613370000000 1.0
C      1  0.4917330000000  0.4373890000000  0.5086380000000 1.0
C      1  0.5571630000000  0.4246450000000  0.4857780000000 1.0
C      1  0.5482460000000  0.4460560000000  0.4635900000000 1.0
C      1  0.4782600000000  0.5561360000000  0.4057200000000 1.0
C      1  0.5052880000000  0.5735860000000  0.4417480000000 1.0
C      1  0.5850400000000  0.5069610000000  0.4654190000000 1.0
C      1  0.5267060000000  0.4308970000000  0.5713250000000 1.0
C      1  0.5033680000000  0.5935340000000  0.5114640000000 1.0
C      1  0.5386170000000  0.5793660000000  0.5235240000000 1.0
C      1  0.5468250000000  0.5647700000000  0.5517230000000 1.0
C      1  0.4791390000000  0.4264720000000  0.5601850000000 1.0
C      1  0.4279860000000  0.4930470000000  0.5703290000000 1.0
C      1  0.4297480000000  0.5107530000000  0.4537900000000 1.0
C      1  0.6041090000000  0.4904920000000  0.4549160000000 1.0
C      1  0.5795370000000  0.4867500000000  0.5679520000000 1.0
C      1  0.5559900000000  0.4767330000000  0.5784530000000 1.0
C      1  0.4825770000000  0.5132810000000  0.5983770000000 1.0
C      1  0.5559090000000  0.4458940000000  0.4323720000000 1.0
C      1  0.4399290000000  0.5719910000000  0.5303530000000 1.0
C      1  0.5204460000000  0.5893530000000  0.4893890000000 1.0
C      1  0.5671650000000  0.4395560000000  0.5146780000000 1.0
C      1  0.4581210000000  0.5020890000000  0.4876520000000 1.0
C      1  0.5018780000000  0.5002680000000  0.4011610000000 1.0
C      1  0.4164030000000  0.5230310000000  0.5061620000000 1.0
C      1  0.5346800000000  0.5326820000000  0.5315810000000 1.0
C      1  0.4841060000000  0.4938450000000  0.4363810000000 1.0
C      1  0.4685070000000  0.5448180000000  0.4489410000000 1.0
C      1  0.4774150000000  0.5442980000000  0.5652130000000 1.0
C      1  0.4750720000000  0.4024590000000  0.4987040000000 1.0
C      1  0.4990710000000  0.4683150000000  0.5778750000000 1.0
C      1  0.4809790000000  0.4400200000000  0.4093540000000 1.0
C      1  0.5086880000000  0.4924530000000  0.5962250000000 1.0
C      1  0.5519200000000  0.5295480000000  0.5899460000000 1.0
C      1  0.4369210000000  0.5538810000000  0.5559580000000 1.0
C      1  0.4196230000000  0.5319650000000  0.4328310000000 1.0
C      1  0.4085150000000  0.4706340000000  0.4923820000000 1.0
C      1  0.4387310000000  0.4624710000000  0.5757400000000 1.0
C      1  0.4566390000000  0.6140140000000  0.4814050000000 1.0
C      1  0.5253280000000  0.4156200000000  0.5438640000000 1.0
C      1  0.5187370000000  0.4578060000000  0.4667380000000 1.0
END
