TITL C-2778432-5617-1152 0.00869975389167075 125000 -909.679387148797 0 0 158 (C1) n - 1
REM
REM in /home/nfs/bkarasulu/CARBON/AIRSS/Generating-Clusters/REBO/Only-C1/SD-CG/HFTN-CG
REM
REM
REM
REM
REM
REM ./C.cell (11c1c37f851c82e70ff6c80c92926a4b)
REM
REM compiler GCC version 9.2.1 20190827 (Red Hat 9.2.1-1)
REM options -cpp -mtune=generic -march=x86-64 -g -O0 -fpre-include=/usr/include/finclude/math-vector-fortran.h
REM seed -377848493 679776346 1211744846 -2012737680 -785713723 1516785547 1944187545 527930245 -855756262 310756945 -73574354 1489239411 -825469699 1284235674 -1579265937 -1823147009 200680923 -475724130 687710476 1309459196 1340516751 605575394 1006906016 1884745442 1690925015 -369223573 -437735090 754391083 -2108419691 507828231 1771917216 -1573576451 -1815337262
REM
CELL 1.54180   50.00000   50.00000   50.00000   90.00000   90.00000   90.00000
LATT -1
SFAC C  
C      1  0.4771690000000  0.4189970000000  0.5218880000000 1.0
C      1  0.3929590000000  0.5372260000000  0.4760830000000 1.0
C      1  0.4139170000000  0.4816450000000  0.5424700000000 1.0
C      1  0.4538540000000  0.5017430000000  0.4379380000000 1.0
C      1  0.5415560000000  0.5117280000000  0.4222570000000 1.0
C      1  0.5365560000000  0.4055350000000  0.4382980000000 1.0
C      1  0.4806240000000  0.4795430000000  0.5813170000000 1.0
C      1  0.4391750000000  0.4258990000000  0.5520680000000 1.0
C      1  0.5110980000000  0.5760360000000  0.4550640000000 1.0
C      1  0.4749190000000  0.4604270000000  0.5553340000000 1.0
C      1  0.3870480000000  0.5075320000000  0.4778110000000 1.0
C      1  0.4831220000000  0.5797020000000  0.5415160000000 1.0
C      1  0.5162600000000  0.5996760000000  0.4755220000000 1.0
C      1  0.4449540000000  0.5627240000000  0.4388540000000 1.0
C      1  0.4871900000000  0.5323550000000  0.5499930000000 1.0
C      1  0.5479600000000  0.4279440000000  0.4357450000000 1.0
C      1  0.5569220000000  0.5557410000000  0.5723780000000 1.0
C      1  0.5681480000000  0.4586410000000  0.5199020000000 1.0
C      1  0.4822340000000  0.4147180000000  0.4460970000000 1.0
C      1  0.4814960000000  0.5062720000000  0.4504550000000 1.0
C      1  0.4432620000000  0.4208500000000  0.4918910000000 1.0
C      1  0.4437810000000  0.5442740000000  0.4176560000000 1.0
C      1  0.5389090000000  0.4890520000000  0.4424060000000 1.0
C      1  0.4939410000000  0.5382890000000  0.5171630000000 1.0
C      1  0.4629020000000  0.4097430000000  0.4738840000000 1.0
C      1  0.4531730000000  0.4995900000000  0.5830810000000 1.0
C      1  0.5716770000000  0.5206010000000  0.5602550000000 1.0
C      1  0.5145000000000  0.5564330000000  0.4127010000000 1.0
C      1  0.5334580000000  0.5418170000000  0.4339150000000 1.0
C      1  0.4675660000000  0.5289560000000  0.4076600000000 1.0
C      1  0.4219090000000  0.5135430000000  0.4390880000000 1.0
C      1  0.4974220000000  0.5039730000000  0.6098240000000 1.0
C      1  0.5281560000000  0.5192350000000  0.4858340000000 1.0
C      1  0.4310160000000  0.5250830000000  0.4762130000000 1.0
C      1  0.4833470000000  0.6020860000000  0.4666820000000 1.0
C      1  0.5461570000000  0.5814040000000  0.4658390000000 1.0
C      1  0.5632720000000  0.5603360000000  0.4561310000000 1.0
C      1  0.5024340000000  0.4348820000000  0.4737360000000 1.0
C      1  0.4161450000000  0.5700720000000  0.5128050000000 1.0
C      1  0.5001670000000  0.5308900000000  0.4004470000000 1.0
C      1  0.5147700000000  0.5058980000000  0.4075080000000 1.0
C      1  0.5918670000000  0.5287470000000  0.5246740000000 1.0
C      1  0.5362560000000  0.4646160000000  0.5848900000000 1.0
C      1  0.5491170000000  0.5883090000000  0.4942360000000 1.0
C      1  0.4520830000000  0.5144930000000  0.4984280000000 1.0
C      1  0.5599140000000  0.4775920000000  0.4926260000000 1.0
C      1  0.5825070000000  0.5499410000000  0.5505730000000 1.0
C      1  0.5060080000000  0.4847890000000  0.4500600000000 1.0
C      1  0.5091840000000  0.4352380000000  0.4415320000000 1.0
C      1  0.5643080000000  0.4755580000000  0.5741350000000 1.0
C      1  0.5498320000000  0.4699650000000  0.5438550000000 1.0
C      1  0.5786910000000  0.5457770000000  0.4774280000000 1.0
C      1  0.4726690000000  0.5781760000000  0.4446620000000 1.0
C      1  0.5534280000000  0.4145650000000  0.5026470000000 1.0
C      1  0.4529440000000  0.4776600000000  0.5358120000000 1.0
C      1  0.5116980000000  0.4758570000000  0.6058350000000 1.0
C      1  0.4692280000000  0.4320600000000  0.5670400000000 1.0
C      1  0.4129240000000  0.5423830000000  0.4524140000000 1.0
C      1  0.4954870000000  0.5302920000000  0.4361910000000 1.0
C      1  0.5112200000000  0.3993460000000  0.4580670000000 1.0
C      1  0.6003550000000  0.5011940000000  0.5056260000000 1.0
C      1  0.4775880000000  0.5077390000000  0.4812750000000 1.0
C      1  0.4726750000000  0.4419440000000  0.4273900000000 1.0
C      1  0.3921400000000  0.5167820000000  0.5099950000000 1.0
C      1  0.4573610000000  0.5627500000000  0.5325500000000 1.0
C      1  0.4411200000000  0.4499410000000  0.5747580000000 1.0
C      1  0.5996200000000  0.4699840000000  0.5206320000000 1.0
C      1  0.4691510000000  0.5652650000000  0.5016530000000 1.0
C      1  0.5512510000000  0.5695490000000  0.5355810000000 1.0
C      1  0.4671150000000  0.4949500000000  0.4086180000000 1.0
C      1  0.4965780000000  0.4859970000000  0.4112080000000 1.0
C      1  0.5474070000000  0.5133640000000  0.6013800000000 1.0
C      1  0.4807640000000  0.5191260000000  0.5870040000000 1.0
C      1  0.5234260000000  0.5164510000000  0.5553030000000 1.0
C      1  0.4282640000000  0.5711670000000  0.5389040000000 1.0
C      1  0.4983200000000  0.5289860000000  0.4891270000000 1.0
C      1  0.4807660000000  0.4804350000000  0.4988030000000 1.0
C      1  0.4716540000000  0.4489520000000  0.5088900000000 1.0
C      1  0.5672080000000  0.5203460000000  0.4812580000000 1.0
C      1  0.5101670000000  0.4050690000000  0.5394600000000 1.0
C      1  0.4784140000000  0.4462030000000  0.4789030000000 1.0
C      1  0.5974890000000  0.4889280000000  0.4737000000000 1.0
C      1  0.4198910000000  0.4441720000000  0.4545380000000 1.0
C      1  0.5176740000000  0.4852610000000  0.5675470000000 1.0
C      1  0.4918210000000  0.5502760000000  0.5787720000000 1.0
C      1  0.5340740000000  0.4957920000000  0.5331360000000 1.0
C      1  0.5078180000000  0.5666340000000  0.5239300000000 1.0
C      1  0.4988500000000  0.4511300000000  0.5859370000000 1.0
C      1  0.6289890000000  0.5097690000000  0.4113720000000 1.0
C      1  0.5844110000000  0.4995040000000  0.5419780000000 1.0
C      1  0.4412800000000  0.5731100000000  0.5675160000000 1.0
C      1  0.5330310000000  0.4197150000000  0.4754210000000 1.0
C      1  0.5857050000000  0.4562910000000  0.4722000000000 1.0
C      1  0.4995600000000  0.4223780000000  0.5667360000000 1.0
C      1  0.5332220000000  0.4673360000000  0.4751620000000 1.0
C      1  0.4174200000000  0.4306240000000  0.4816380000000 1.0
C      1  0.5868470000000  0.4380140000000  0.5484170000000 1.0
C      1  0.4452480000000  0.5541950000000  0.4718880000000 1.0
C      1  0.5347530000000  0.4562200000000  0.4453760000000 1.0
C      1  0.5200830000000  0.5922420000000  0.5063320000000 1.0
C      1  0.4393110000000  0.4790880000000  0.4564030000000 1.0
C      1  0.5386320000000  0.4166450000000  0.5547940000000 1.0
C      1  0.5149080000000  0.6034130000000  0.5369140000000 1.0
C      1  0.5664300000000  0.5759390000000  0.5125060000000 1.0
C      1  0.4349610000000  0.5815270000000  0.4894090000000 1.0
C      1  0.4845640000000  0.5688800000000  0.4752890000000 1.0
C      1  0.3996450000000  0.5483900000000  0.5042650000000 1.0
C      1  0.6103120000000  0.4648850000000  0.4922450000000 1.0
C      1  0.5887050000000  0.4679380000000  0.5528440000000 1.0
C      1  0.4596150000000  0.4062560000000  0.5381690000000 1.0
C      1  0.5255830000000  0.4246190000000  0.5181620000000 1.0
C      1  0.3983040000000  0.4919670000000  0.4508160000000 1.0
C      1  0.5845070000000  0.5550120000000  0.5042650000000 1.0
C      1  0.4017800000000  0.4500150000000  0.4990340000000 1.0
C      1  0.4214110000000  0.4810360000000  0.4276990000000 1.0
C      1  0.4368660000000  0.4876220000000  0.5103490000000 1.0
C      1  0.4823680000000  0.4889740000000  0.5286330000000 1.0
C      1  0.5607310000000  0.4394050000000  0.4810250000000 1.0
C      1  0.5281890000000  0.4340400000000  0.5810020000000 1.0
C      1  0.6103300000000  0.5090580000000  0.4287660000000 1.0
C      1  0.4245110000000  0.4923940000000  0.4806890000000 1.0
C      1  0.5283890000000  0.4461580000000  0.5430040000000 1.0
C      1  0.5158670000000  0.5386630000000  0.4613280000000 1.0
C      1  0.5625030000000  0.4272370000000  0.5329120000000 1.0
C      1  0.4958890000000  0.4007380000000  0.5084610000000 1.0
C      1  0.4613600000000  0.5355070000000  0.5162760000000 1.0
C      1  0.5057990000000  0.4693370000000  0.5430440000000 1.0
C      1  0.4986280000000  0.4617620000000  0.4289600000000 1.0
C      1  0.5672200000000  0.5042890000000  0.5844840000000 1.0
C      1  0.5645610000000  0.5302940000000  0.4397310000000 1.0
C      1  0.4207420000000  0.4599990000000  0.5201580000000 1.0
C      1  0.5687070000000  0.4980100000000  0.5139850000000 1.0
C      1  0.4372290000000  0.4790430000000  0.5650450000000 1.0
C      1  0.5340360000000  0.4492160000000  0.5017460000000 1.0
C      1  0.5199490000000  0.5108580000000  0.5883190000000 1.0
C      1  0.5137200000000  0.4910290000000  0.4827000000000 1.0
C      1  0.4827120000000  0.5029160000000  0.5566940000000 1.0
C      1  0.3990980000000  0.5021450000000  0.5329260000000 1.0
C      1  0.4211100000000  0.5749740000000  0.4587990000000 1.0
C      1  0.5120650000000  0.5818690000000  0.4274670000000 1.0
C      1  0.5880520000000  0.5082090000000  0.4495330000000 1.0
C      1  0.5172690000000  0.5462220000000  0.5484220000000 1.0
C      1  0.4510720000000  0.4675690000000  0.4174390000000 1.0
C      1  0.4419920000000  0.4379180000000  0.5214220000000 1.0
C      1  0.4550860000000  0.4522330000000  0.4614350000000 1.0
C      1  0.4849130000000  0.6046030000000  0.5207850000000 1.0
C      1  0.4406590000000  0.4399980000000  0.4325800000000 1.0
C      1  0.5596120000000  0.4949100000000  0.4633340000000 1.0
C      1  0.5188320000000  0.4762820000000  0.5112960000000 1.0
C      1  0.5235750000000  0.5626180000000  0.5760940000000 1.0
C      1  0.4646560000000  0.5978120000000  0.4943180000000 1.0
C      1  0.5493740000000  0.5222120000000  0.5101550000000 1.0
C      1  0.4811830000000  0.5570660000000  0.4229910000000 1.0
C      1  0.5536450000000  0.5373740000000  0.5365540000000 1.0
C      1  0.5317250000000  0.5832960000000  0.5513220000000 1.0
C      1  0.4042620000000  0.4668930000000  0.4711660000000 1.0
C      1  0.4896630000000  0.3978040000000  0.4815550000000 1.0
C      1  0.4691910000000  0.5715870000000  0.5695550000000 1.0
END
