TITL C-2778422-5617-1145 0.000308777012760704 125000 -603.828606535261 0 0 104 (C1) n - 1
REM
REM in /home/nfs/bkarasulu/CARBON/AIRSS/Generating-Clusters/REBO/Only-C1/SD-CG/HFTN-CG
REM
REM
REM
REM
REM
REM ./C.cell (11c1c37f851c82e70ff6c80c92926a4b)
REM
REM compiler GCC version 9.2.1 20190827 (Red Hat 9.2.1-1)
REM options -cpp -mtune=generic -march=x86-64 -g -O0 -fpre-include=/usr/include/finclude/math-vector-fortran.h
REM seed 1095031611 -1636344556 -1339713303 -2018270124 -447692903 -745922449 -1160195699 -465741471 1567939944 -66345236 -1696460459 2105654398 343914616 136248886 406417894 -724032278 -231348947 -1303422081 73660571 1531406198 1658591613 1019428432 -1620383669 -572438510 -627151071 -1352180736 24163719 1566597944 844548206 -238757580 -703165508 374091677 1600502058
REM
CELL 1.54180   50.00000   50.00000   50.00000   90.00000   90.00000   90.00000
LATT -1
SFAC C  
C      1  0.4995130000000  0.5176680000000  0.5967480000000 1.0
C      1  0.4525180000000  0.5202290000000  0.4753530000000 1.0
C      1  0.5307310000000  0.4479710000000  0.5067590000000 1.0
C      1  0.4969920000000  0.5790830000000  0.4783130000000 1.0
C      1  0.4705920000000  0.4921170000000  0.4756400000000 1.0
C      1  0.5506070000000  0.4858740000000  0.5181590000000 1.0
C      1  0.4801520000000  0.4662960000000  0.4922200000000 1.0
C      1  0.4394280000000  0.4681960000000  0.4909940000000 1.0
C      1  0.5146920000000  0.5342440000000  0.5141010000000 1.0
C      1  0.5407180000000  0.4180370000000  0.4633350000000 1.0
C      1  0.4398640000000  0.5692700000000  0.4754950000000 1.0
C      1  0.5030640000000  0.4203760000000  0.4986050000000 1.0
C      1  0.4717360000000  0.5130030000000  0.5989640000000 1.0
C      1  0.5338710000000  0.4794520000000  0.5808570000000 1.0
C      1  0.5347630000000  0.5258840000000  0.5573070000000 1.0
C      1  0.5619390000000  0.4885680000000  0.5652680000000 1.0
C      1  0.5639110000000  0.4630070000000  0.4670520000000 1.0
C      1  0.5406140000000  0.5263460000000  0.5089240000000 1.0
C      1  0.4840670000000  0.4871100000000  0.5632510000000 1.0
C      1  0.5038680000000  0.5671620000000  0.4470250000000 1.0
C      1  0.5383030000000  0.5640530000000  0.4485840000000 1.0
C      1  0.5606090000000  0.4982730000000  0.4312010000000 1.0
C      1  0.4994750000000  0.4384310000000  0.4488100000000 1.0
C      1  0.5026150000000  0.4664810000000  0.5829840000000 1.0
C      1  0.4186460000000  0.5539960000000  0.5555690000000 1.0
C      1  0.4426460000000  0.4950870000000  0.5602810000000 1.0
C      1  0.4574150000000  0.4420180000000  0.5022530000000 1.0
C      1  0.4553880000000  0.5152370000000  0.5754850000000 1.0
C      1  0.4299730000000  0.5030820000000  0.5333260000000 1.0
C      1  0.5331010000000  0.5256640000000  0.4580800000000 1.0
C      1  0.4320240000000  0.5266980000000  0.5002730000000 1.0
C      1  0.4405590000000  0.4554970000000  0.5291570000000 1.0
C      1  0.5395340000000  0.4544990000000  0.4280400000000 1.0
C      1  0.4530180000000  0.4294070000000  0.4713270000000 1.0
C      1  0.5619440000000  0.5397160000000  0.5283160000000 1.0
C      1  0.4991650000000  0.4740700000000  0.5156400000000 1.0
C      1  0.4240880000000  0.4945120000000  0.4641590000000 1.0
C      1  0.4570890000000  0.4672430000000  0.5565110000000 1.0
C      1  0.4926430000000  0.4402410000000  0.4789710000000 1.0
C      1  0.4271630000000  0.5342070000000  0.5313180000000 1.0
C      1  0.5137680000000  0.5025400000000  0.5705850000000 1.0
C      1  0.5389930000000  0.4618810000000  0.4804820000000 1.0
C      1  0.4726330000000  0.5620140000000  0.4343450000000 1.0
C      1  0.5207460000000  0.5421750000000  0.4310290000000 1.0
C      1  0.5239150000000  0.5728520000000  0.5181740000000 1.0
C      1  0.5615520000000  0.4698470000000  0.4394350000000 1.0
C      1  0.4650100000000  0.5379660000000  0.5584770000000 1.0
C      1  0.5195260000000  0.4824860000000  0.4709980000000 1.0
C      1  0.4781460000000  0.4984730000000  0.5181840000000 1.0
C      1  0.5193190000000  0.4481370000000  0.5611440000000 1.0
C      1  0.5089580000000  0.4494240000000  0.5299510000000 1.0
C      1  0.5572780000000  0.5080980000000  0.5403610000000 1.0
C      1  0.5775500000000  0.4736380000000  0.5046780000000 1.0
C      1  0.4988740000000  0.4995280000000  0.4065330000000 1.0
C      1  0.5355470000000  0.4172280000000  0.4945800000000 1.0
C      1  0.5627540000000  0.4259100000000  0.5130480000000 1.0
C      1  0.5501240000000  0.5188190000000  0.4840650000000 1.0
C      1  0.4627900000000  0.5303210000000  0.4340350000000 1.0
C      1  0.5209420000000  0.5377310000000  0.5866470000000 1.0
C      1  0.4660100000000  0.4452490000000  0.4490620000000 1.0
C      1  0.4962190000000  0.5064310000000  0.4925630000000 1.0
C      1  0.4790060000000  0.4199550000000  0.5153650000000 1.0
C      1  0.5171730000000  0.4728400000000  0.4149910000000 1.0
C      1  0.4429100000000  0.4683960000000  0.4593390000000 1.0
C      1  0.5241070000000  0.4903240000000  0.5039200000000 1.0
C      1  0.5652000000000  0.5489830000000  0.4630010000000 1.0
C      1  0.5354370000000  0.5565340000000  0.5419350000000 1.0
C      1  0.4987650000000  0.5374420000000  0.4866270000000 1.0
C      1  0.5922170000000  0.4929650000000  0.4906130000000 1.0
C      1  0.5378490000000  0.4999400000000  0.4137110000000 1.0
C      1  0.4443630000000  0.5634650000000  0.5357560000000 1.0
C      1  0.4430350000000  0.5572920000000  0.5028100000000 1.0
C      1  0.4594650000000  0.4307700000000  0.5405480000000 1.0
C      1  0.4166570000000  0.5006810000000  0.4918880000000 1.0
C      1  0.5783330000000  0.5129290000000  0.4770550000000 1.0
C      1  0.5256940000000  0.5515610000000  0.4765230000000 1.0
C      1  0.5687580000000  0.5518390000000  0.4967450000000 1.0
C      1  0.4811850000000  0.5128310000000  0.5444190000000 1.0
C      1  0.4913510000000  0.4320980000000  0.5511050000000 1.0
C      1  0.4510070000000  0.4931570000000  0.5104410000000 1.0
C      1  0.4171290000000  0.4764380000000  0.5158690000000 1.0
C      1  0.4969790000000  0.5755460000000  0.5070020000000 1.0
C      1  0.4676980000000  0.4844750000000  0.4438710000000 1.0
C      1  0.5820670000000  0.4457490000000  0.5034320000000 1.0
C      1  0.5498000000000  0.4573340000000  0.5601980000000 1.0
C      1  0.5537690000000  0.4541920000000  0.5302520000000 1.0
C      1  0.4689030000000  0.5767810000000  0.4635540000000 1.0
C      1  0.5712800000000  0.5202840000000  0.4477190000000 1.0
C      1  0.5186910000000  0.5228320000000  0.4093000000000 1.0
C      1  0.4825290000000  0.4492010000000  0.5954390000000 1.0
C      1  0.4414400000000  0.5534540000000  0.4468460000000 1.0
C      1  0.4665200000000  0.4397560000000  0.5726690000000 1.0
C      1  0.4715250000000  0.5696270000000  0.5174050000000 1.0
C      1  0.4891790000000  0.4630540000000  0.4304180000000 1.0
C      1  0.5114320000000  0.5045250000000  0.4556440000000 1.0
C      1  0.4738950000000  0.5438590000000  0.4699530000000 1.0
C      1  0.4792470000000  0.5607060000000  0.5622040000000 1.0
C      1  0.4332630000000  0.5203160000000  0.4476620000000 1.0
C      1  0.5414300000000  0.5646720000000  0.4975740000000 1.0
C      1  0.5286390000000  0.4335380000000  0.4441310000000 1.0
C      1  0.4872630000000  0.5184570000000  0.4508830000000 1.0
C      1  0.4732040000000  0.4984750000000  0.4156680000000 1.0
C      1  0.5109160000000  0.5570610000000  0.5636010000000 1.0
C      1  0.5009930000000  0.5366170000000  0.5388800000000 1.0
END
