TITL C-2778424-3986-903 -0.00211423504631583 125000 -267.336325888431 0 0 48 (C1) n - 1
REM
REM in /home/nfs/bkarasulu/CARBON/AIRSS/Generating-Clusters/REBO/Only-C1/SD-CG/HFTN-CG
REM
REM
REM
REM
REM
REM ./C.cell (11c1c37f851c82e70ff6c80c92926a4b)
REM
REM compiler GCC version 9.2.1 20190827 (Red Hat 9.2.1-1)
REM options -cpp -mtune=generic -march=x86-64 -g -O0 -fpre-include=/usr/include/finclude/math-vector-fortran.h
REM seed 72253385 974349397 1940853776 810173987 -1683249730 -981938477 -793819511 -47487041 -1470746079 1379725831 1187691195 -77174793 -890494848 -1978373932 1435817602 1225641014 288032478 -1374366811 1141449572 -832022098 -1039599507 192980359 1429221686 1228502269 -641761448 1266967972 -1184448125 785784466 154339141 811886157 -948860617 -1007816988 -94493012
REM
CELL 1.54180   50.00000   50.00000   50.00000   90.00000   90.00000   90.00000
LATT -1
SFAC C  
C      1  0.4545980000000  0.5403980000000  0.4985300000000 1.0
C      1  0.4960170000000  0.4653390000000  0.4157010000000 1.0
C      1  0.4530860000000  0.4648970000000  0.4888250000000 1.0
C      1  0.5374450000000  0.4079920000000  0.5181710000000 1.0
C      1  0.5429300000000  0.5712370000000  0.5746250000000 1.0
C      1  0.4855040000000  0.4708310000000  0.5170980000000 1.0
C      1  0.5296210000000  0.5165260000000  0.4689260000000 1.0
C      1  0.5328180000000  0.5577240000000  0.5543060000000 1.0
C      1  0.4798080000000  0.4429910000000  0.5153890000000 1.0
C      1  0.4795370000000  0.5418350000000  0.5443200000000 1.0
C      1  0.4469000000000  0.5673780000000  0.4984460000000 1.0
C      1  0.4783870000000  0.5334220000000  0.4809800000000 1.0
C      1  0.4454720000000  0.5046070000000  0.5306790000000 1.0
C      1  0.4697220000000  0.5509990000000  0.5682420000000 1.0
C      1  0.5125220000000  0.4918140000000  0.4529670000000 1.0
C      1  0.4428980000000  0.5075830000000  0.4608650000000 1.0
C      1  0.4471400000000  0.4795490000000  0.4613740000000 1.0
C      1  0.4840720000000  0.4272630000000  0.4701230000000 1.0
C      1  0.4659350000000  0.5224600000000  0.4521840000000 1.0
C      1  0.5280510000000  0.4702830000000  0.4924770000000 1.0
C      1  0.5211320000000  0.4217780000000  0.5007610000000 1.0
C      1  0.4722070000000  0.4974500000000  0.5623810000000 1.0
C      1  0.5163860000000  0.5441370000000  0.4825490000000 1.0
C      1  0.5031400000000  0.4836840000000  0.4981520000000 1.0
C      1  0.4431690000000  0.4768700000000  0.5118090000000 1.0
C      1  0.5532200000000  0.5121070000000  0.4853220000000 1.0
C      1  0.5530980000000  0.4845900000000  0.5047790000000 1.0
C      1  0.5597850000000  0.5368530000000  0.5078400000000 1.0
C      1  0.4981880000000  0.5206740000000  0.4564550000000 1.0
C      1  0.5775940000000  0.5078590000000  0.5087300000000 1.0
C      1  0.4988060000000  0.4673240000000  0.4434920000000 1.0
C      1  0.5529600000000  0.3948810000000  0.5347300000000 1.0
C      1  0.5156510000000  0.5086290000000  0.5266410000000 1.0
C      1  0.4718910000000  0.4569200000000  0.4615540000000 1.0
C      1  0.5022010000000  0.5172660000000  0.4979450000000 1.0
C      1  0.5372470000000  0.5423410000000  0.5267310000000 1.0
C      1  0.5270520000000  0.4439710000000  0.4811310000000 1.0
C      1  0.4239090000000  0.5021370000000  0.5067110000000 1.0
C      1  0.5084650000000  0.4414810000000  0.4588460000000 1.0
C      1  0.4608430000000  0.5286710000000  0.5269460000000 1.0
C      1  0.5342250000000  0.4919550000000  0.5298380000000 1.0
C      1  0.5070000000000  0.5450480000000  0.5396700000000 1.0
C      1  0.4786370000000  0.4845760000000  0.5404780000000 1.0
C      1  0.5257580000000  0.5689030000000  0.4800460000000 1.0
C      1  0.4909590000000  0.4229570000000  0.4983620000000 1.0
C      1  0.5511630000000  0.5789670000000  0.4832200000000 1.0
C      1  0.4327580000000  0.5198680000000  0.4854950000000 1.0
C      1  0.5700940000000  0.5629740000000  0.4951570000000 1.0
END
