TITL C-2778428-5639-412 -27.684325431384 125000 -1137.51185736674 0 0 195 (C1) n - 1
REM
REM in /home/nfs/bkarasulu/CARBON/AIRSS/Generating-Clusters/REBO/Only-C1/SD-CG/HFTN-CG
REM
REM
REM
REM
REM
REM ./C.cell (11c1c37f851c82e70ff6c80c92926a4b)
REM
REM compiler GCC version 9.2.1 20190827 (Red Hat 9.2.1-1)
REM options -cpp -mtune=generic -march=x86-64 -g -O0 -fpre-include=/usr/include/finclude/math-vector-fortran.h
REM seed 463595714 -1684521368 -782868958 -1766798261 -861833482 982449101 -633613327 -1970405168 -1606385826 -1224470829 -1259141640 1888508772 -509579644 1483896162 479497929 -2103011954 -846409657 -1107114785 1183841136 -825901005 887321217 -632130375 -396255115 -2086424630 -616962811 685938427 -1956551818 -2105885496 968310808 934598495 -941495205 -880834751 1574315096
REM
CELL 1.54180   50.00000   50.00000   50.00000   90.00000   90.00000   90.00000
LATT -1
SFAC C  
C      1  0.4152860000000  0.4895650000000  0.5772730000000 1.0
C      1  0.5193980000000  0.4379480000000  0.4197570000000 1.0
C      1  0.5677190000000  0.5427630000000  0.4197360000000 1.0
C      1  0.4966920000000  0.5601680000000  0.4836720000000 1.0
C      1  0.5302100000000  0.5353130000000  0.5514520000000 1.0
C      1  0.4620110000000  0.5963120000000  0.4981260000000 1.0
C      1  0.4891420000000  0.5336610000000  0.4116170000000 1.0
C      1  0.4560580000000  0.5111850000000  0.5301770000000 1.0
C      1  0.5784490000000  0.4302220000000  0.5316880000000 1.0
C      1  0.4671520000000  0.3881460000000  0.5201460000000 1.0
C      1  0.5200490000000  0.4936700000000  0.4543720000000 1.0
C      1  0.5141810000000  0.4139500000000  0.4435640000000 1.0
C      1  0.5416550000000  0.5574890000000  0.4331980000000 1.0
C      1  0.5592770000000  0.4881090000000  0.4570920000000 1.0
C      1  0.5971510000000  0.4796360000000  0.5320630000000 1.0
C      1  0.5321380000000  0.4603850000000  0.3892280000000 1.0
C      1  0.4265860000000  0.5020590000000  0.4497780000000 1.0
C      1  0.6219690000000  0.4659540000000  0.4989230000000 1.0
C      1  0.4299610000000  0.5359710000000  0.4225380000000 1.0
C      1  0.4495030000000  0.4816900000000  0.4626060000000 1.0
C      1  0.4419400000000  0.5240610000000  0.6002130000000 1.0
C      1  0.5151910000000  0.4830140000000  0.6126430000000 1.0
C      1  0.4700390000000  0.5504000000000  0.5808270000000 1.0
C      1  0.5254770000000  0.5186220000000  0.4054380000000 1.0
C      1  0.4215050000000  0.6111820000000  0.4747410000000 1.0
C      1  0.4769120000000  0.5090170000000  0.4318110000000 1.0
C      1  0.5871630000000  0.5260430000000  0.5204780000000 1.0
C      1  0.4032900000000  0.5166820000000  0.4647760000000 1.0
C      1  0.4679310000000  0.5524770000000  0.4669210000000 1.0
C      1  0.5544200000000  0.5381400000000  0.5016690000000 1.0
C      1  0.5166970000000  0.5231310000000  0.4384080000000 1.0
C      1  0.5729420000000  0.5684040000000  0.5403810000000 1.0
C      1  0.5379230000000  0.5908110000000  0.4390860000000 1.0
C      1  0.5847250000000  0.5574530000000  0.5100800000000 1.0
C      1  0.4682410000000  0.4341020000000  0.4598130000000 1.0
C      1  0.4985260000000  0.4824070000000  0.5763630000000 1.0
C      1  0.4188140000000  0.4633650000000  0.4436040000000 1.0
C      1  0.4801890000000  0.4358530000000  0.4101390000000 1.0
C      1  0.4790380000000  0.4968270000000  0.4702980000000 1.0
C      1  0.4028050000000  0.5208820000000  0.5449170000000 1.0
C      1  0.4847130000000  0.4784400000000  0.4440460000000 1.0
C      1  0.4341950000000  0.5104630000000  0.4086690000000 1.0
C      1  0.5081750000000  0.4569330000000  0.4444020000000 1.0
C      1  0.4853470000000  0.4252550000000  0.4360970000000 1.0
C      1  0.5406900000000  0.4245240000000  0.5052630000000 1.0
C      1  0.4657720000000  0.5679890000000  0.5260940000000 1.0
C      1  0.5457220000000  0.4211240000000  0.4440060000000 1.0
C      1  0.4285740000000  0.4762950000000  0.5245330000000 1.0
C      1  0.5292040000000  0.5688840000000  0.4814770000000 1.0
C      1  0.5109420000000  0.5807890000000  0.4232680000000 1.0
C      1  0.6148830000000  0.5043380000000  0.4681030000000 1.0
C      1  0.4128980000000  0.5581200000000  0.4902140000000 1.0
C      1  0.4884530000000  0.5251580000000  0.4665280000000 1.0
C      1  0.4978120000000  0.4580390000000  0.5563720000000 1.0
C      1  0.5926470000000  0.4686650000000  0.4477820000000 1.0
C      1  0.5401630000000  0.4826930000000  0.5966450000000 1.0
C      1  0.4949490000000  0.5681530000000  0.5755390000000 1.0
C      1  0.4515070000000  0.4667570000000  0.5425490000000 1.0
C      1  0.5513880000000  0.5062770000000  0.5135590000000 1.0
C      1  0.5044710000000  0.4420380000000  0.3921550000000 1.0
C      1  0.4498050000000  0.5208400000000  0.4827730000000 1.0
C      1  0.4558510000000  0.3963040000000  0.4672050000000 1.0
C      1  0.5257230000000  0.4459060000000  0.4681820000000 1.0
C      1  0.4360500000000  0.5899380000000  0.4619370000000 1.0
C      1  0.4959300000000  0.5340820000000  0.5139420000000 1.0
C      1  0.4275380000000  0.3956300000000  0.4267380000000 1.0
C      1  0.4957080000000  0.3901730000000  0.5382790000000 1.0
C      1  0.4027190000000  0.5796800000000  0.5052400000000 1.0
C      1  0.4811310000000  0.5646250000000  0.4157140000000 1.0
C      1  0.6030910000000  0.5037250000000  0.5171350000000 1.0
C      1  0.4213470000000  0.5642590000000  0.4632370000000 1.0
C      1  0.4901390000000  0.5988000000000  0.5622210000000 1.0
C      1  0.4607180000000  0.5931150000000  0.5486780000000 1.0
C      1  0.5104590000000  0.4193120000000  0.5359000000000 1.0
C      1  0.5513270000000  0.5893110000000  0.5257540000000 1.0
C      1  0.5144250000000  0.6023010000000  0.5175650000000 1.0
C      1  0.5821870000000  0.5731780000000  0.4584850000000 1.0
C      1  0.4582200000000  0.5641460000000  0.4957610000000 1.0
C      1  0.4577330000000  0.4535050000000  0.4102140000000 1.0
C      1  0.4024200000000  0.4759230000000  0.4706420000000 1.0
C      1  0.3916890000000  0.5019610000000  0.5189140000000 1.0
C      1  0.4937300000000  0.4625010000000  0.6047310000000 1.0
C      1  0.4625140000000  0.4919680000000  0.5546360000000 1.0
C      1  0.5261390000000  0.4465570000000  0.5500910000000 1.0
C      1  0.4220930000000  0.5314180000000  0.4977110000000 1.0
C      1  0.4952370000000  0.5065220000000  0.3943580000000 1.0
C      1  0.4059180000000  0.6059140000000  0.4970310000000 1.0
C      1  0.5700830000000  0.5937270000000  0.4424680000000 1.0
C      1  0.6015300000000  0.4511420000000  0.4760680000000 1.0
C      1  0.5716500000000  0.4053800000000  0.5107750000000 1.0
C      1  0.5456300000000  0.3855070000000  0.5090970000000 1.0
C      1  0.5791720000000  0.5761430000000  0.4868940000000 1.0
C      1  0.5199610000000  0.5138330000000  0.5071480000000 1.0
C      1  0.4205690000000  0.4862930000000  0.4221050000000 1.0
C      1  0.4465520000000  0.4355430000000  0.4862530000000 1.0
C      1  0.5178080000000  0.4765150000000  0.4790580000000 1.0
C      1  0.3929320000000  0.5026990000000  0.4897820000000 1.0
C      1  0.5014480000000  0.5494350000000  0.4461770000000 1.0
C      1  0.4179050000000  0.5017050000000  0.6087830000000 1.0
C      1  0.4241680000000  0.5467080000000  0.5535980000000 1.0
C      1  0.5161750000000  0.5315990000000  0.4797720000000 1.0
C      1  0.4747010000000  0.5203470000000  0.5642570000000 1.0
C      1  0.5594520000000  0.5016190000000  0.5438150000000 1.0
C      1  0.6015030000000  0.4618520000000  0.5770140000000 1.0
C      1  0.4597890000000  0.4486380000000  0.5888980000000 1.0
C      1  0.5578480000000  0.5935150000000  0.4943680000000 1.0
C      1  0.4471000000000  0.4976510000000  0.5821500000000 1.0
C      1  0.4139190000000  0.4690870000000  0.5553750000000 1.0
C      1  0.5416540000000  0.5851650000000  0.5581310000000 1.0
C      1  0.4928960000000  0.4843890000000  0.4961110000000 1.0
C      1  0.5634440000000  0.5233470000000  0.5700200000000 1.0
C      1  0.5876340000000  0.5081570000000  0.4495180000000 1.0
C      1  0.5281630000000  0.3987220000000  0.4869140000000 1.0
C      1  0.5032290000000  0.5104070000000  0.6171630000000 1.0
C      1  0.5157980000000  0.4942060000000  0.5306050000000 1.0
C      1  0.4363000000000  0.4403630000000  0.4482890000000 1.0
C      1  0.4638500000000  0.4584470000000  0.5045690000000 1.0
C      1  0.4646630000000  0.4387720000000  0.5371140000000 1.0
C      1  0.4670790000000  0.5946140000000  0.4620510000000 1.0
C      1  0.4824510000000  0.3863950000000  0.4660000000000 1.0
C      1  0.4175960000000  0.5236740000000  0.5759170000000 1.0
C      1  0.4837670000000  0.4325900000000  0.6068880000000 1.0
C      1  0.4902100000000  0.4728430000000  0.5281570000000 1.0
C      1  0.5081300000000  0.4800370000000  0.3972880000000 1.0
C      1  0.4684210000000  0.4792060000000  0.5919660000000 1.0
C      1  0.5792470000000  0.5471970000000  0.4474600000000 1.0
C      1  0.5293230000000  0.4666230000000  0.5255940000000 1.0
C      1  0.5586540000000  0.5570250000000  0.5692960000000 1.0
C      1  0.5590940000000  0.5130690000000  0.4096380000000 1.0
C      1  0.5433840000000  0.4134140000000  0.5373880000000 1.0
C      1  0.5585040000000  0.5395540000000  0.5339970000000 1.0
C      1  0.5976960000000  0.4825620000000  0.5598570000000 1.0
C      1  0.5590660000000  0.4758110000000  0.5520460000000 1.0
C      1  0.5663830000000  0.5260320000000  0.4675120000000 1.0
C      1  0.5798420000000  0.4322650000000  0.4920180000000 1.0
C      1  0.4371210000000  0.4460560000000  0.5651270000000 1.0
C      1  0.4860880000000  0.4378570000000  0.4886960000000 1.0
C      1  0.5579230000000  0.4348290000000  0.4708500000000 1.0
C      1  0.5508540000000  0.4428460000000  0.4197930000000 1.0
C      1  0.4825440000000  0.6195030000000  0.4728530000000 1.0
C      1  0.4785480000000  0.4348140000000  0.5655140000000 1.0
C      1  0.4718690000000  0.4205760000000  0.5131560000000 1.0
C      1  0.5140400000000  0.5534940000000  0.5295190000000 1.0
C      1  0.3901590000000  0.4731710000000  0.5317700000000 1.0
C      1  0.5913910000000  0.4821130000000  0.4792390000000 1.0
C      1  0.4525280000000  0.5196610000000  0.4509190000000 1.0
C      1  0.5917910000000  0.5087690000000  0.5687060000000 1.0
C      1  0.5036930000000  0.4441810000000  0.5171350000000 1.0
C      1  0.4292370000000  0.5278020000000  0.5270730000000 1.0
C      1  0.5557320000000  0.4732890000000  0.4101830000000 1.0
C      1  0.5251780000000  0.4772020000000  0.4246670000000 1.0
C      1  0.4057120000000  0.4670170000000  0.5024330000000 1.0
C      1  0.5406280000000  0.5443950000000  0.4623630000000 1.0
C      1  0.4908870000000  0.4075860000000  0.5980580000000 1.0
C      1  0.5459150000000  0.5085230000000  0.4380460000000 1.0
C      1  0.4478130000000  0.5653560000000  0.5615340000000 1.0
C      1  0.4561570000000  0.4703940000000  0.4311650000000 1.0
C      1  0.5144780000000  0.5066470000000  0.5585920000000 1.0
C      1  0.6238980000000  0.4961270000000  0.4969490000000 1.0
C      1  0.5350070000000  0.5982740000000  0.4709820000000 1.0
C      1  0.4861980000000  0.4028010000000  0.5676480000000 1.0
C      1  0.4620860000000  0.5063170000000  0.4020470000000 1.0
C      1  0.4723670000000  0.5341830000000  0.5019130000000 1.0
C      1  0.4536390000000  0.6071710000000  0.5228110000000 1.0
C      1  0.4757460000000  0.5256670000000  0.6037220000000 1.0
C      1  0.5176230000000  0.6035040000000  0.5456220000000 1.0
C      1  0.5248950000000  0.5602550000000  0.5727840000000 1.0
C      1  0.4355720000000  0.4188760000000  0.5563760000000 1.0
C      1  0.5664070000000  0.4994610000000  0.4876230000000 1.0
C      1  0.5261090000000  0.5271160000000  0.6029040000000 1.0
C      1  0.4632990000000  0.5411580000000  0.5426450000000 1.0
C      1  0.4146480000000  0.5405020000000  0.4475870000000 1.0
C      1  0.5367670000000  0.4549960000000  0.4979480000000 1.0
C      1  0.4581650000000  0.5498030000000  0.4354380000000 1.0
C      1  0.4937790000000  0.5717200000000  0.5417400000000 1.0
C      1  0.5278720000000  0.3835530000000  0.5344140000000 1.0
C      1  0.5021960000000  0.5271720000000  0.5814250000000 1.0
C      1  0.5953070000000  0.4523990000000  0.5154000000000 1.0
C      1  0.4484410000000  0.4036680000000  0.4962850000000 1.0
C      1  0.4597550000000  0.4044800000000  0.5476470000000 1.0
C      1  0.4396190000000  0.4094290000000  0.4468980000000 1.0
C      1  0.5616850000000  0.4574610000000  0.4474210000000 1.0
C      1  0.5361720000000  0.5644480000000  0.5114110000000 1.0
C      1  0.4311510000000  0.4985900000000  0.4999950000000 1.0
C      1  0.5089500000000  0.3962990000000  0.4669360000000 1.0
C      1  0.5107220000000  0.6131930000000  0.4823030000000 1.0
C      1  0.4859870000000  0.5799370000000  0.4449920000000 1.0
C      1  0.4615360000000  0.4900500000000  0.5065290000000 1.0
C      1  0.4319690000000  0.4626220000000  0.4812180000000 1.0
C      1  0.5570540000000  0.4364010000000  0.5574070000000 1.0
C      1  0.4926240000000  0.5887220000000  0.4961930000000 1.0
C      1  0.5500130000000  0.4632400000000  0.5774900000000 1.0
C      1  0.5182690000000  0.5512530000000  0.4102800000000 1.0
C      1  0.5795890000000  0.4886610000000  0.4229740000000 1.0
C      1  0.5475260000000  0.5109940000000  0.5932960000000 1.0
END
