TITL C-2778434-4341-832 -0.000564464503654984 125000 -106.945722512644 0 0 20 (C1) n - 1
REM
REM in /home/nfs/bkarasulu/CARBON/AIRSS/Generating-Clusters/REBO/Only-C1/SD-CG/HFTN-CG
REM
REM
REM
REM
REM
REM ./C.cell (11c1c37f851c82e70ff6c80c92926a4b)
REM
REM compiler GCC version 9.2.1 20190827 (Red Hat 9.2.1-1)
REM options -cpp -mtune=generic -march=x86-64 -g -O0 -fpre-include=/usr/include/finclude/math-vector-fortran.h
REM seed 1411385759 1411594512 -535911709 -1512130926 238278136 1947296119 -566678948 1112871449 589586521 -1113105030 -2066958187 1162560340 -1371216406 -260961246 -714839610 411647410 -1493534873 -1549934259 -2147312724 1133353311 1433144368 -167260793 1438761271 -1280615544 -1977504571 -846439948 198289783 -649285445 724174187 924962548 1308792639 -1447896858 -174081438
REM
CELL 1.54180   50.00000   50.00000   50.00000   90.00000   90.00000   90.00000
LATT -1
SFAC C  
C      1  0.5324720000000  0.4940780000000  0.5418820000000 1.0
C      1  0.4785950000000  0.4887830000000  0.5448110000000 1.0
C      1  0.5659940000000  0.4817120000000  0.5112310000000 1.0
C      1  0.5049120000000  0.5069550000000  0.5464210000000 1.0
C      1  0.4612980000000  0.4917470000000  0.5268620000000 1.0
C      1  0.4539040000000  0.5383160000000  0.4863330000000 1.0
C      1  0.5125030000000  0.5022390000000  0.4378670000000 1.0
C      1  0.5249570000000  0.5001170000000  0.4146970000000 1.0
C      1  0.4659310000000  0.5111530000000  0.5025780000000 1.0
C      1  0.4607820000000  0.5093690000000  0.4697170000000 1.0
C      1  0.4857070000000  0.5062310000000  0.4546690000000 1.0
C      1  0.4164930000000  0.4813510000000  0.4507110000000 1.0
C      1  0.4367680000000  0.4941770000000  0.4594110000000 1.0
C      1  0.4952860000000  0.5088600000000  0.5145370000000 1.0
C      1  0.5169300000000  0.5013830000000  0.4974070000000 1.0
C      1  0.5132340000000  0.5022410000000  0.4701120000000 1.0
C      1  0.5554620000000  0.4838210000000  0.5561830000000 1.0
C      1  0.5756270000000  0.4764460000000  0.5375050000000 1.0
C      1  0.5389720000000  0.4926610000000  0.5129150000000 1.0
C      1  0.5041740000000  0.5283600000000  0.5641500000000 1.0
END
