TITL C-2778426-5645-658 -0.00158607398814432 125000 -721.718212053446 0 0 125 (C1) n - 1
REM
REM in /home/nfs/bkarasulu/CARBON/AIRSS/Generating-Clusters/REBO/Only-C1/SD-CG/HFTN-CG
REM
REM
REM
REM
REM
REM ./C.cell (11c1c37f851c82e70ff6c80c92926a4b)
REM
REM compiler GCC version 9.2.1 20190827 (Red Hat 9.2.1-1)
REM options -cpp -mtune=generic -march=x86-64 -g -O0 -fpre-include=/usr/include/finclude/math-vector-fortran.h
REM seed 425355532 518934109 -785393899 -1349996993 456920566 1535843944 1249377671 -602277573 1154439856 826983721 -315174407 634660997 99524371 -1050442937 -1834660529 1639538240 17468305 -66467346 -2130882613 -1243336637 1739904441 606138277 1441191268 -205211988 -710458134 1667324429 2122558514 -1296472601 1761683695 -654581193 614282316 -1727914453 -887773806
REM
CELL 1.54180   50.00000   50.00000   50.00000   90.00000   90.00000   90.00000
LATT -1
SFAC C  
C      1  0.4512780000000  0.4227710000000  0.4544320000000 1.0
C      1  0.4770440000000  0.4986520000000  0.5500340000000 1.0
C      1  0.4724400000000  0.5673440000000  0.5631820000000 1.0
C      1  0.4195820000000  0.5153230000000  0.4555630000000 1.0
C      1  0.5324770000000  0.4980000000000  0.4858260000000 1.0
C      1  0.5385000000000  0.5294400000000  0.4620930000000 1.0
C      1  0.4606770000000  0.4335420000000  0.4295070000000 1.0
C      1  0.5313990000000  0.4644960000000  0.4198360000000 1.0
C      1  0.4759430000000  0.5703510000000  0.4292280000000 1.0
C      1  0.4739020000000  0.4605190000000  0.4952920000000 1.0
C      1  0.5356930000000  0.5577530000000  0.5474300000000 1.0
C      1  0.5809270000000  0.4524230000000  0.5418270000000 1.0
C      1  0.4966650000000  0.5473220000000  0.4161640000000 1.0
C      1  0.5586290000000  0.5222660000000  0.5039010000000 1.0
C      1  0.5031420000000  0.5334890000000  0.5523150000000 1.0
C      1  0.5720260000000  0.5270410000000  0.4667040000000 1.0
C      1  0.4420490000000  0.5196820000000  0.4367440000000 1.0
C      1  0.4997240000000  0.5144460000000  0.4110630000000 1.0
C      1  0.5803140000000  0.5314440000000  0.5495040000000 1.0
C      1  0.5404290000000  0.4601810000000  0.5675070000000 1.0
C      1  0.4825310000000  0.5020140000000  0.5893790000000 1.0
C      1  0.5199680000000  0.5836740000000  0.4897310000000 1.0
C      1  0.5710940000000  0.4434470000000  0.4880310000000 1.0
C      1  0.5416330000000  0.4508610000000  0.4452540000000 1.0
C      1  0.5148230000000  0.5176670000000  0.6339210000000 1.0
C      1  0.4614150000000  0.5196620000000  0.5720090000000 1.0
C      1  0.4387940000000  0.4414970000000  0.4986100000000 1.0
C      1  0.4949460000000  0.5082290000000  0.5248100000000 1.0
C      1  0.5453080000000  0.4636370000000  0.5280720000000 1.0
C      1  0.5052720000000  0.4822730000000  0.4072030000000 1.0
C      1  0.5207770000000  0.4263120000000  0.5060430000000 1.0
C      1  0.5029650000000  0.4716710000000  0.4901200000000 1.0
C      1  0.4331290000000  0.4894460000000  0.4917090000000 1.0
C      1  0.4914350000000  0.4343500000000  0.4296990000000 1.0
C      1  0.5352470000000  0.4123150000000  0.5321540000000 1.0
C      1  0.5879200000000  0.5271090000000  0.5202020000000 1.0
C      1  0.5333800000000  0.5239890000000  0.5447040000000 1.0
C      1  0.5112160000000  0.5087380000000  0.6055200000000 1.0
C      1  0.4834890000000  0.4623400000000  0.4154400000000 1.0
C      1  0.4581350000000  0.4536930000000  0.5235590000000 1.0
C      1  0.5457240000000  0.4462090000000  0.5083400000000 1.0
C      1  0.4349930000000  0.4687070000000  0.4522740000000 1.0
C      1  0.4266170000000  0.5281970000000  0.5089420000000 1.0
C      1  0.4762810000000  0.5328270000000  0.4788680000000 1.0
C      1  0.4375670000000  0.5759000000000  0.5109560000000 1.0
C      1  0.5493260000000  0.4296460000000  0.4676880000000 1.0
C      1  0.4770220000000  0.4064190000000  0.5298630000000 1.0
C      1  0.5373610000000  0.5648920000000  0.4804630000000 1.0
C      1  0.4892120000000  0.5817540000000  0.5372490000000 1.0
C      1  0.4289330000000  0.5574160000000  0.4369280000000 1.0
C      1  0.4585460000000  0.4270310000000  0.5410680000000 1.0
C      1  0.5851370000000  0.4944630000000  0.5143460000000 1.0
C      1  0.5676630000000  0.4646090000000  0.4616100000000 1.0
C      1  0.5706870000000  0.5706460000000  0.5017540000000 1.0
C      1  0.5542750000000  0.4868370000000  0.5780700000000 1.0
C      1  0.4525970000000  0.5475260000000  0.5619150000000 1.0
C      1  0.4505000000000  0.4645550000000  0.4236640000000 1.0
C      1  0.5594100000000  0.5714510000000  0.5270770000000 1.0
C      1  0.4517670000000  0.5249840000000  0.5205740000000 1.0
C      1  0.4933400000000  0.4383620000000  0.5124880000000 1.0
C      1  0.5251150000000  0.4167060000000  0.4776610000000 1.0
C      1  0.5951320000000  0.5155440000000  0.4888820000000 1.0
C      1  0.5607520000000  0.5070840000000  0.5558660000000 1.0
C      1  0.5122590000000  0.4833760000000  0.5178520000000 1.0
C      1  0.4437170000000  0.4709830000000  0.5707380000000 1.0
C      1  0.4782110000000  0.5437400000000  0.5315020000000 1.0
C      1  0.5684520000000  0.5569380000000  0.5536910000000 1.0
C      1  0.5823400000000  0.4330460000000  0.5171460000000 1.0
C      1  0.5124550000000  0.4645010000000  0.5830940000000 1.0
C      1  0.5148180000000  0.4534040000000  0.4665140000000 1.0
C      1  0.4297080000000  0.4919760000000  0.5254220000000 1.0
C      1  0.4961680000000  0.5603140000000  0.5810550000000 1.0
C      1  0.5309130000000  0.5370140000000  0.4944370000000 1.0
C      1  0.4587320000000  0.5574610000000  0.4765250000000 1.0
C      1  0.5242720000000  0.5233980000000  0.4317490000000 1.0
C      1  0.4824370000000  0.4876090000000  0.4567630000000 1.0
C      1  0.4693740000000  0.5182180000000  0.4159440000000 1.0
C      1  0.4198470000000  0.5574200000000  0.4990300000000 1.0
C      1  0.5702310000000  0.4822430000000  0.5373360000000 1.0
C      1  0.5348930000000  0.4965260000000  0.4169650000000 1.0
C      1  0.5675340000000  0.4075020000000  0.5268470000000 1.0
C      1  0.5612140000000  0.5089530000000  0.4327320000000 1.0
C      1  0.4727780000000  0.4145830000000  0.4716400000000 1.0
C      1  0.4576020000000  0.4768480000000  0.4750940000000 1.0
C      1  0.5136660000000  0.4791940000000  0.4460730000000 1.0
C      1  0.4550440000000  0.5474610000000  0.4213450000000 1.0
C      1  0.4969740000000  0.5710910000000  0.5091620000000 1.0
C      1  0.4152490000000  0.5309100000000  0.4785800000000 1.0
C      1  0.5345820000000  0.5059770000000  0.5190590000000 1.0
C      1  0.4222780000000  0.5124380000000  0.5471920000000 1.0
C      1  0.5030780000000  0.5032890000000  0.4760050000000 1.0
C      1  0.4678400000000  0.4493700000000  0.5633170000000 1.0
C      1  0.5833160000000  0.4948230000000  0.4640560000000 1.0
C      1  0.4123030000000  0.4880460000000  0.4576790000000 1.0
C      1  0.5050580000000  0.4118880000000  0.5398780000000 1.0
C      1  0.4601110000000  0.5715940000000  0.5246060000000 1.0
C      1  0.5116440000000  0.5721630000000  0.5578300000000 1.0
C      1  0.5448960000000  0.4893380000000  0.4552080000000 1.0
C      1  0.4805880000000  0.5805030000000  0.4842070000000 1.0
C      1  0.4858770000000  0.4744870000000  0.5726500000000 1.0
C      1  0.4629310000000  0.5872230000000  0.4557250000000 1.0
C      1  0.4343120000000  0.4411240000000  0.4678980000000 1.0
C      1  0.5105970000000  0.5582360000000  0.4447500000000 1.0
C      1  0.4320530000000  0.5627210000000  0.4614030000000 1.0
C      1  0.5061330000000  0.5384250000000  0.5125090000000 1.0
C      1  0.4002370000000  0.4805090000000  0.4842770000000 1.0
C      1  0.4740610000000  0.5171630000000  0.5020700000000 1.0
C      1  0.5635780000000  0.4916370000000  0.4903410000000 1.0
C      1  0.5170710000000  0.4639510000000  0.5434370000000 1.0
C      1  0.4991860000000  0.5300250000000  0.5836890000000 1.0
C      1  0.5581040000000  0.4316380000000  0.5488020000000 1.0
C      1  0.5663130000000  0.5577780000000  0.4749890000000 1.0
C      1  0.4276100000000  0.5410780000000  0.5480060000000 1.0
C      1  0.4946600000000  0.4435560000000  0.5446500000000 1.0
C      1  0.5293240000000  0.4868290000000  0.5950060000000 1.0
C      1  0.4616250000000  0.4926530000000  0.4344860000000 1.0
C      1  0.4962280000000  0.5836870000000  0.4540750000000 1.0
C      1  0.5044690000000  0.5338280000000  0.4647870000000 1.0
C      1  0.4665420000000  0.4217310000000  0.5011630000000 1.0
C      1  0.4532150000000  0.4780590000000  0.5396660000000 1.0
C      1  0.4998130000000  0.4237400000000  0.4593680000000 1.0
C      1  0.4173010000000  0.4647650000000  0.5090280000000 1.0
C      1  0.5403400000000  0.5535000000000  0.4304510000000 1.0
C      1  0.4358020000000  0.5001900000000  0.5708490000000 1.0
C      1  0.5637590000000  0.5361550000000  0.4287860000000 1.0
END
