TITL C-2778436-5916-1 -0.00243637269845601 125000 -438.656902856185 0 0 76 (C1) n - 1
REM
REM in /home/nfs/bkarasulu/CARBON/AIRSS/Generating-Clusters/REBO/Only-C1/SD-CG/HFTN-CG
REM
REM
REM
REM
REM
REM ./C.cell (11c1c37f851c82e70ff6c80c92926a4b)
REM
REM compiler GCC version 9.2.1 20190827 (Red Hat 9.2.1-1)
REM options -cpp -mtune=generic -march=x86-64 -g -O0 -fpre-include=/usr/include/finclude/math-vector-fortran.h
REM seed -519813646 98605258 9838728 210232901 101624071 75464688 149802330 -1235986558 2050721753 934292981 605479166 -153317395 884716170 250489606 119758958 1220909610 -192107523 -350898038 -1396547242 1785110703 208709643 -1262860423 -802984279 717197867 117224470 -753647693 -2069319055 93782786 1243358325 1672393350 -1332104160 -1967123912 1903732005
REM
CELL 1.54180   50.00000   50.00000   50.00000   90.00000   90.00000   90.00000
LATT -1
SFAC C  
C      1  0.4677510000000  0.4113810000000  0.5338690000000 1.0
C      1  0.5426100000000  0.5235850000000  0.5726920000000 1.0
C      1  0.4917300000000  0.4405900000000  0.4606510000000 1.0
C      1  0.4607870000000  0.4703910000000  0.4398010000000 1.0
C      1  0.5169600000000  0.5332120000000  0.5575700000000 1.0
C      1  0.4880440000000  0.5358940000000  0.4271120000000 1.0
C      1  0.5731060000000  0.5332290000000  0.5210980000000 1.0
C      1  0.5144150000000  0.5468250000000  0.4288990000000 1.0
C      1  0.4682840000000  0.5421620000000  0.5358960000000 1.0
C      1  0.5620160000000  0.4843730000000  0.4958490000000 1.0
C      1  0.4989390000000  0.5528350000000  0.5467270000000 1.0
C      1  0.4977160000000  0.5041320000000  0.5384510000000 1.0
C      1  0.4911120000000  0.4764300000000  0.4295860000000 1.0
C      1  0.4457220000000  0.5447740000000  0.5114690000000 1.0
C      1  0.4603810000000  0.5131120000000  0.5495640000000 1.0
C      1  0.4922750000000  0.5603030000000  0.4661210000000 1.0
C      1  0.4905120000000  0.5269150000000  0.5177760000000 1.0
C      1  0.4237810000000  0.4723330000000  0.5231210000000 1.0
C      1  0.5023510000000  0.4991170000000  0.5686940000000 1.0
C      1  0.5031150000000  0.4709170000000  0.5405650000000 1.0
C      1  0.4186810000000  0.5011600000000  0.5229150000000 1.0
C      1  0.5345920000000  0.5242420000000  0.4329980000000 1.0
C      1  0.5160800000000  0.5684340000000  0.4491950000000 1.0
C      1  0.5266980000000  0.5186060000000  0.5033090000000 1.0
C      1  0.4535440000000  0.4844460000000  0.5127270000000 1.0
C      1  0.5641260000000  0.4863110000000  0.5444180000000 1.0
C      1  0.4672770000000  0.5137820000000  0.4759100000000 1.0
C      1  0.4497870000000  0.5582990000000  0.4859410000000 1.0
C      1  0.5501940000000  0.5795080000000  0.4937640000000 1.0
C      1  0.5697780000000  0.5014840000000  0.5187210000000 1.0
C      1  0.5416000000000  0.5340780000000  0.4796930000000 1.0
C      1  0.5459180000000  0.4593670000000  0.5070070000000 1.0
C      1  0.5563080000000  0.4594010000000  0.5372770000000 1.0
C      1  0.4317260000000  0.4863760000000  0.4866710000000 1.0
C      1  0.5663380000000  0.5598590000000  0.5139230000000 1.0
C      1  0.5125420000000  0.4340370000000  0.5286990000000 1.0
C      1  0.4753910000000  0.4581730000000  0.5530160000000 1.0
C      1  0.5080150000000  0.4921620000000  0.4985590000000 1.0
C      1  0.5103700000000  0.5479820000000  0.4998650000000 1.0
C      1  0.5492160000000  0.4940660000000  0.5684890000000 1.0
C      1  0.4667130000000  0.4667670000000  0.4886800000000 1.0
C      1  0.5204680000000  0.4297890000000  0.4739420000000 1.0
C      1  0.4326070000000  0.4550480000000  0.4956270000000 1.0
C      1  0.5259550000000  0.4359040000000  0.5019670000000 1.0
C      1  0.5127800000000  0.5183600000000  0.4568950000000 1.0
C      1  0.4617540000000  0.4887490000000  0.5524320000000 1.0
C      1  0.4284170000000  0.5221770000000  0.5069150000000 1.0
C      1  0.5284260000000  0.4840980000000  0.5229790000000 1.0
C      1  0.4725440000000  0.5739510000000  0.4805160000000 1.0
C      1  0.4642800000000  0.4451320000000  0.4544630000000 1.0
C      1  0.4793710000000  0.5057510000000  0.4389270000000 1.0
C      1  0.4461230000000  0.4937560000000  0.4573450000000 1.0
C      1  0.4839790000000  0.4868990000000  0.4672320000000 1.0
C      1  0.4888250000000  0.4182850000000  0.5006160000000 1.0
C      1  0.5052230000000  0.4658750000000  0.4803330000000 1.0
C      1  0.5132300000000  0.5662490000000  0.5256820000000 1.0
C      1  0.4442640000000  0.4374400000000  0.4733560000000 1.0
C      1  0.4598050000000  0.5338330000000  0.4422000000000 1.0
C      1  0.4776790000000  0.5022300000000  0.5034950000000 1.0
C      1  0.5305960000000  0.5630970000000  0.4768830000000 1.0
C      1  0.4853550000000  0.4322720000000  0.5378700000000 1.0
C      1  0.5250070000000  0.4741200000000  0.5738270000000 1.0
C      1  0.5589530000000  0.5202700000000  0.4644690000000 1.0
C      1  0.4418210000000  0.5414750000000  0.4628180000000 1.0
C      1  0.5397320000000  0.5779500000000  0.5242640000000 1.0
C      1  0.5338610000000  0.4938190000000  0.4480770000000 1.0
C      1  0.5584720000000  0.4911650000000  0.4690890000000 1.0
C      1  0.5290080000000  0.4448990000000  0.4478220000000 1.0
C      1  0.4274340000000  0.5168820000000  0.4746760000000 1.0
C      1  0.4916300000000  0.4705780000000  0.5787840000000 1.0
C      1  0.4869530000000  0.4444010000000  0.4997960000000 1.0
C      1  0.5181070000000  0.4697940000000  0.4381330000000 1.0
C      1  0.5356950000000  0.5152890000000  0.5344400000000 1.0
C      1  0.4911910000000  0.5318900000000  0.4667850000000 1.0
C      1  0.5296110000000  0.4516580000000  0.5502440000000 1.0
C      1  0.5643420000000  0.5258640000000  0.5498110000000 1.0
END
