TITL C-2778432-5617-1268 -4.97486533421879e-09 125000 -32.9760674795735 0 0 7 (D2) n - 1
REM
REM in /home/nfs/bkarasulu/CARBON/AIRSS/Generating-Clusters/REBO/Only-C1/SD-CG/HFTN-CG
REM
REM
REM
REM
REM
REM ./C.cell (11c1c37f851c82e70ff6c80c92926a4b)
REM
REM compiler GCC version 9.2.1 20190827 (Red Hat 9.2.1-1)
REM options -cpp -mtune=generic -march=x86-64 -g -O0 -fpre-include=/usr/include/finclude/math-vector-fortran.h
REM seed 210961029 -413805233 -1161476362 797263395 -566849291 2105027376 -2066633372 1351344086 2048393732 1774422418 -1573084067 -1086699993 -83040196 -2129326717 -2130831269 -2027956399 1887198930 1812262764 -284484222 634901283 1746057509 1639071205 1244040330 1960210952 -1300495844 14500908 -1696913537 -1643890329 1426963403 1467612938 1024145590 533472066 -357697922
REM
CELL 1.54180   50.00000   50.00000   50.00000   90.00000   90.00000   90.00000
LATT -1
SFAC C  
C      1  0.5179260000000  0.4804790000000  0.5089750000000 1.0
C      1  0.4820740000000  0.5195210000000  0.4910250000000 1.0
C      1  0.5087660000000  0.4598640000000  0.5243060000000 1.0
C      1  0.5000000000000  0.5000000000000  0.5000000000000 1.0
C      1  0.4895050000000  0.5363330000000  0.4708740000000 1.0
C      1  0.5442950000000  0.4823530000000  0.5022600000000 1.0
C      1  0.4574340000000  0.5214500000000  0.5025600000000 1.0
END
