TITL C-2778433-5640-816 0.00138737825549421 125000 -325.771418636082 0 0 55 (C1) n - 1
REM
REM in /home/nfs/bkarasulu/CARBON/AIRSS/Generating-Clusters/REBO/Only-C1/SD-CG/HFTN-CG
REM
REM
REM
REM
REM
REM ./C.cell (11c1c37f851c82e70ff6c80c92926a4b)
REM
REM compiler GCC version 9.2.1 20190827 (Red Hat 9.2.1-1)
REM options -cpp -mtune=generic -march=x86-64 -g -O0 -fpre-include=/usr/include/finclude/math-vector-fortran.h
REM seed 809553683 898348771 1173647910 -408889724 -2146924199 -1043407359 229291537 1842644036 -372048403 512393785 -1703677305 289442524 -2084023974 2116497287 133966321 -1563635850 -313951829 -157195787 -874936167 734671157 -49924179 131435871 106184304 273595561 1881225500 1398328556 -1245229021 1305287603 385597757 -594209726 -504212875 -396264852 -843850658
REM
CELL 1.54180   50.00000   50.00000   50.00000   90.00000   90.00000   90.00000
LATT -1
SFAC C  
C      1  0.4946330000000  0.4584220000000  0.5064340000000 1.0
C      1  0.5120160000000  0.4461610000000  0.4727290000000 1.0
C      1  0.4573190000000  0.4887230000000  0.4920340000000 1.0
C      1  0.4828680000000  0.4359810000000  0.4738770000000 1.0
C      1  0.5746900000000  0.4995830000000  0.4711200000000 1.0
C      1  0.4745550000000  0.5453220000000  0.5251210000000 1.0
C      1  0.5194490000000  0.5385310000000  0.4330030000000 1.0
C      1  0.4708990000000  0.4268440000000  0.4980200000000 1.0
C      1  0.4655500000000  0.4512470000000  0.4560760000000 1.0
C      1  0.4802330000000  0.5501520000000  0.4655100000000 1.0
C      1  0.5065060000000  0.4746140000000  0.5669190000000 1.0
C      1  0.5245260000000  0.4495250000000  0.5057690000000 1.0
C      1  0.5278670000000  0.4908370000000  0.4529330000000 1.0
C      1  0.4909840000000  0.4498400000000  0.5587400000000 1.0
C      1  0.4974090000000  0.5287780000000  0.5663260000000 1.0
C      1  0.5249500000000  0.5307420000000  0.5580780000000 1.0
C      1  0.4789180000000  0.5466410000000  0.5533030000000 1.0
C      1  0.5465230000000  0.4849400000000  0.4769830000000 1.0
C      1  0.4871420000000  0.5006440000000  0.5670180000000 1.0
C      1  0.4374940000000  0.4514490000000  0.4618060000000 1.0
C      1  0.5432250000000  0.4549700000000  0.4800240000000 1.0
C      1  0.5345780000000  0.5006840000000  0.5028400000000 1.0
C      1  0.5402540000000  0.4636440000000  0.5288980000000 1.0
C      1  0.5080380000000  0.4712490000000  0.4519370000000 1.0
C      1  0.5601060000000  0.5099730000000  0.5231660000000 1.0
C      1  0.4278170000000  0.4517690000000  0.4885030000000 1.0
C      1  0.4867740000000  0.4644440000000  0.5326160000000 1.0
C      1  0.5631780000000  0.4772150000000  0.5198600000000 1.0
C      1  0.4430440000000  0.4834460000000  0.5402110000000 1.0
C      1  0.4903140000000  0.4927090000000  0.5353200000000 1.0
C      1  0.5430580000000  0.5556760000000  0.4976130000000 1.0
C      1  0.4803640000000  0.4734650000000  0.4448430000000 1.0
C      1  0.4909040000000  0.5022150000000  0.4705600000000 1.0
C      1  0.4996810000000  0.5368220000000  0.5107860000000 1.0
C      1  0.4683430000000  0.5017400000000  0.4466660000000 1.0
C      1  0.5308120000000  0.5548850000000  0.5439600000000 1.0
C      1  0.5287010000000  0.5649950000000  0.4492550000000 1.0
C      1  0.5230310000000  0.5557120000000  0.5166780000000 1.0
C      1  0.5074130000000  0.5068410000000  0.5164230000000 1.0
C      1  0.4853080000000  0.4780710000000  0.4883940000000 1.0
C      1  0.5553140000000  0.5263140000000  0.4937000000000 1.0
C      1  0.4556830000000  0.5378850000000  0.4804420000000 1.0
C      1  0.5347790000000  0.5162650000000  0.4429200000000 1.0
C      1  0.4572280000000  0.4930450000000  0.5577820000000 1.0
C      1  0.4944660000000  0.5283950000000  0.4814330000000 1.0
C      1  0.4517720000000  0.5098210000000  0.4725480000000 1.0
C      1  0.4409100000000  0.4721120000000  0.5122020000000 1.0
C      1  0.5487090000000  0.5564670000000  0.4683380000000 1.0
C      1  0.4480790000000  0.4390900000000  0.5093440000000 1.0
C      1  0.4516640000000  0.5459590000000  0.5085010000000 1.0
C      1  0.4267610000000  0.5517050000000  0.5178460000000 1.0
C      1  0.4967250000000  0.5595520000000  0.4444180000000 1.0
C      1  0.5297110000000  0.4796260000000  0.5511010000000 1.0
C      1  0.5391170000000  0.5072770000000  0.5491080000000 1.0
C      1  0.5596090000000  0.5269840000000  0.4599680000000 1.0
END
