TITL C-2778424-3986-156 -0.00304734930695917 125000 -541.124864617761 0 0 96 (C1) n - 1
REM
REM in /home/nfs/bkarasulu/CARBON/AIRSS/Generating-Clusters/REBO/Only-C1/SD-CG/HFTN-CG
REM
REM
REM
REM
REM
REM ./C.cell (11c1c37f851c82e70ff6c80c92926a4b)
REM
REM compiler GCC version 9.2.1 20190827 (Red Hat 9.2.1-1)
REM options -cpp -mtune=generic -march=x86-64 -g -O0 -fpre-include=/usr/include/finclude/math-vector-fortran.h
REM seed -26073813 395544034 599198579 -716570490 311294217 264236796 -1919221585 -1866585482 262770042 1677155918 1691534014 705817262 -1218822560 1798753135 -16338390 1137559361 1194196893 971477506 396379412 -136383867 983265525 -1864055923 -2106284538 -1096896655 -783977140 73430480 -1529821227 -603048849 1327532440 -665996371 862302125 -1049991920 -1489540788
REM
CELL 1.54180   50.00000   50.00000   50.00000   90.00000   90.00000   90.00000
LATT -1
SFAC C  
C      1  0.4297220000000  0.4758320000000  0.5299320000000 1.0
C      1  0.5429150000000  0.4800710000000  0.5993010000000 1.0
C      1  0.4537240000000  0.4600440000000  0.5139030000000 1.0
C      1  0.4710700000000  0.5899260000000  0.4877500000000 1.0
C      1  0.5840740000000  0.5186430000000  0.5317650000000 1.0
C      1  0.4153550000000  0.4631480000000  0.5032870000000 1.0
C      1  0.5428700000000  0.4837020000000  0.4706000000000 1.0
C      1  0.5506320000000  0.4372250000000  0.4712920000000 1.0
C      1  0.4641990000000  0.4265710000000  0.5330580000000 1.0
C      1  0.4570370000000  0.5312420000000  0.5711460000000 1.0
C      1  0.4909370000000  0.5485500000000  0.5041050000000 1.0
C      1  0.4658170000000  0.4433630000000  0.4382390000000 1.0
C      1  0.5716350000000  0.4652440000000  0.5073550000000 1.0
C      1  0.4840230000000  0.4553250000000  0.4990220000000 1.0
C      1  0.5400580000000  0.4655800000000  0.5137660000000 1.0
C      1  0.5083900000000  0.4243500000000  0.4926180000000 1.0
C      1  0.4972840000000  0.4858640000000  0.5749820000000 1.0
C      1  0.5274720000000  0.5028010000000  0.4510520000000 1.0
C      1  0.5439280000000  0.5925960000000  0.4753680000000 1.0
C      1  0.4816720000000  0.4611780000000  0.5660600000000 1.0
C      1  0.4364970000000  0.5301020000000  0.5455560000000 1.0
C      1  0.5142740000000  0.4669740000000  0.4657070000000 1.0
C      1  0.5258080000000  0.5785150000000  0.5191610000000 1.0
C      1  0.5261480000000  0.5778500000000  0.4906250000000 1.0
C      1  0.4537790000000  0.4916010000000  0.4463620000000 1.0
C      1  0.4318730000000  0.4465760000000  0.4807070000000 1.0
C      1  0.4361750000000  0.5500340000000  0.5244810000000 1.0
C      1  0.5076500000000  0.5842180000000  0.5428950000000 1.0
C      1  0.5281340000000  0.4274590000000  0.5140160000000 1.0
C      1  0.5778690000000  0.5122350000000  0.4547560000000 1.0
C      1  0.4749590000000  0.5187850000000  0.4509340000000 1.0
C      1  0.5540920000000  0.4296850000000  0.4999850000000 1.0
C      1  0.4888280000000  0.5816720000000  0.5042890000000 1.0
C      1  0.3892150000000  0.4665760000000  0.5000710000000 1.0
C      1  0.4349180000000  0.5052440000000  0.5306960000000 1.0
C      1  0.5145630000000  0.4781440000000  0.4978670000000 1.0
C      1  0.5306390000000  0.4862660000000  0.4209390000000 1.0
C      1  0.4752470000000  0.5564930000000  0.5694010000000 1.0
C      1  0.5100990000000  0.5310340000000  0.5201870000000 1.0
C      1  0.4461650000000  0.5123350000000  0.5031890000000 1.0
C      1  0.4925050000000  0.5208560000000  0.5563100000000 1.0
C      1  0.4228420000000  0.5131690000000  0.4822920000000 1.0
C      1  0.4880410000000  0.4509700000000  0.4241590000000 1.0
C      1  0.4668060000000  0.4930660000000  0.4945890000000 1.0
C      1  0.4947240000000  0.5021440000000  0.4281520000000 1.0
C      1  0.5050710000000  0.5592390000000  0.4755700000000 1.0
C      1  0.4573830000000  0.4451320000000  0.5583070000000 1.0
C      1  0.4516290000000  0.4184720000000  0.4814500000000 1.0
C      1  0.4532780000000  0.5667950000000  0.4780120000000 1.0
C      1  0.4996900000000  0.5256160000000  0.4725540000000 1.0
C      1  0.5653050000000  0.4636420000000  0.4579010000000 1.0
C      1  0.5869250000000  0.5020150000000  0.4798450000000 1.0
C      1  0.5188280000000  0.5639600000000  0.4273210000000 1.0
C      1  0.5590070000000  0.5300630000000  0.4856240000000 1.0
C      1  0.4601810000000  0.5424910000000  0.5014300000000 1.0
C      1  0.5262740000000  0.5023030000000  0.5194560000000 1.0
C      1  0.4252690000000  0.5395930000000  0.4709720000000 1.0
C      1  0.4877030000000  0.4515400000000  0.5331170000000 1.0
C      1  0.4956700000000  0.5045080000000  0.4940640000000 1.0
C      1  0.4782120000000  0.4208800000000  0.5024520000000 1.0
C      1  0.5207570000000  0.4370030000000  0.4695260000000 1.0
C      1  0.5618760000000  0.4767040000000  0.5357970000000 1.0
C      1  0.5173780000000  0.4992740000000  0.5508710000000 1.0
C      1  0.5308670000000  0.4523730000000  0.5591350000000 1.0
C      1  0.4696270000000  0.4815710000000  0.5333680000000 1.0
C      1  0.4643260000000  0.5007510000000  0.5573880000000 1.0
C      1  0.5697280000000  0.5414180000000  0.4557600000000 1.0
C      1  0.5179610000000  0.4413530000000  0.5366200000000 1.0
C      1  0.5435950000000  0.5522270000000  0.4396910000000 1.0
C      1  0.5816270000000  0.4743690000000  0.4828810000000 1.0
C      1  0.5105690000000  0.5468340000000  0.4070130000000 1.0
C      1  0.4402690000000  0.4303810000000  0.5101140000000 1.0
C      1  0.5001190000000  0.5626630000000  0.5602920000000 1.0
C      1  0.5011870000000  0.5717810000000  0.4470750000000 1.0
C      1  0.5470300000000  0.5013400000000  0.4951530000000 1.0
C      1  0.5322100000000  0.5321210000000  0.4647270000000 1.0
C      1  0.5292300000000  0.5523050000000  0.5324760000000 1.0
C      1  0.5614650000000  0.4893410000000  0.4356900000000 1.0
C      1  0.5478560000000  0.5205720000000  0.4298320000000 1.0
C      1  0.5588100000000  0.4875530000000  0.6187480000000 1.0
C      1  0.5843580000000  0.5202940000000  0.5039460000000 1.0
C      1  0.5669130000000  0.5023750000000  0.5476620000000 1.0
C      1  0.5218260000000  0.5376270000000  0.5605270000000 1.0
C      1  0.4335810000000  0.4589430000000  0.5562200000000 1.0
C      1  0.4252550000000  0.5604070000000  0.4958970000000 1.0
C      1  0.4759190000000  0.5083480000000  0.5883280000000 1.0
C      1  0.4872720000000  0.5069530000000  0.5257190000000 1.0
C      1  0.5054640000000  0.4726350000000  0.4371020000000 1.0
C      1  0.4656770000000  0.4972830000000  0.4187890000000 1.0
C      1  0.4600360000000  0.4749670000000  0.4739090000000 1.0
C      1  0.4529820000000  0.5420350000000  0.4549890000000 1.0
C      1  0.5261740000000  0.4721900000000  0.5788170000000 1.0
C      1  0.4702600000000  0.4431780000000  0.4703270000000 1.0
C      1  0.5446170000000  0.5133150000000  0.5610640000000 1.0
C      1  0.5183070000000  0.5172460000000  0.4129880000000 1.0
C      1  0.4397840000000  0.4607580000000  0.4515550000000 1.0
END
