TITL C-2778430-5657-931 222.551104004841 125000 -977.904923596484 0 0 165 (C1) n - 1
REM
REM in /home/nfs/bkarasulu/CARBON/AIRSS/Generating-Clusters/REBO/Only-C1/SD-CG/HFTN-CG
REM
REM
REM
REM
REM
REM ./C.cell (11c1c37f851c82e70ff6c80c92926a4b)
REM
REM compiler GCC version 9.2.1 20190827 (Red Hat 9.2.1-1)
REM options -cpp -mtune=generic -march=x86-64 -g -O0 -fpre-include=/usr/include/finclude/math-vector-fortran.h
REM seed 772878883 -332365998 1781467087 -39618520 9880015 -586433252 557943655 -911355921 1372206274 -530636946 764873014 1264311698 -15708949 235008927 -1473853800 -1431868369 245315554 1862066911 -457807820 817399470 -1370448044 2129424961 -2022432437 -1313484711 -847910604 -1028038094 2007085244 -2041200070 935598256 580409732 465578807 -1256369920 623140277
REM
CELL 1.54180   50.00000   50.00000   50.00000   90.00000   90.00000   90.00000
LATT -1
SFAC C  
C      1  0.4320420000000  0.5360540000000  0.4571580000000 1.0
C      1  0.5409790000000  0.4480570000000  0.4068620000000 1.0
C      1  0.4854020000000  0.4290750000000  0.5206640000000 1.0
C      1  0.4171920000000  0.4978590000000  0.5723240000000 1.0
C      1  0.4543990000000  0.5732630000000  0.4205620000000 1.0
C      1  0.4356470000000  0.4269750000000  0.5440180000000 1.0
C      1  0.4943160000000  0.6027380000000  0.5309270000000 1.0
C      1  0.4939870000000  0.5754080000000  0.5733170000000 1.0
C      1  0.4539260000000  0.4893480000000  0.4139440000000 1.0
C      1  0.5581220000000  0.4410220000000  0.4642680000000 1.0
C      1  0.6035010000000  0.4567560000000  0.5389680000000 1.0
C      1  0.4332180000000  0.5027000000000  0.5115080000000 1.0
C      1  0.5421240000000  0.4152230000000  0.5239700000000 1.0
C      1  0.4362250000000  0.4593580000000  0.5517390000000 1.0
C      1  0.5571070000000  0.4012800000000  0.5056920000000 1.0
C      1  0.5079160000000  0.5466610000000  0.4707450000000 1.0
C      1  0.5069550000000  0.5259840000000  0.5752700000000 1.0
C      1  0.4800790000000  0.5535100000000  0.4275530000000 1.0
C      1  0.6114400000000  0.4502960000000  0.4905360000000 1.0
C      1  0.5090280000000  0.4450180000000  0.5758410000000 1.0
C      1  0.4851710000000  0.4692650000000  0.4594700000000 1.0
C      1  0.4769010000000  0.6102770000000  0.4826070000000 1.0
C      1  0.5263970000000  0.3946500000000  0.4812940000000 1.0
C      1  0.4036760000000  0.4721900000000  0.5000400000000 1.0
C      1  0.5872510000000  0.5172360000000  0.4513380000000 1.0
C      1  0.5111100000000  0.4509130000000  0.4836890000000 1.0
C      1  0.4839850000000  0.4807550000000  0.4045370000000 1.0
C      1  0.4773050000000  0.4461910000000  0.4044210000000 1.0
C      1  0.4884050000000  0.4560280000000  0.5034320000000 1.0
C      1  0.4075260000000  0.4955090000000  0.4755450000000 1.0
C      1  0.5001170000000  0.5088460000000  0.4063840000000 1.0
C      1  0.4524430000000  0.5003410000000  0.4865430000000 1.0
C      1  0.4685060000000  0.5804500000000  0.4575210000000 1.0
C      1  0.4646660000000  0.5486370000000  0.5635470000000 1.0
C      1  0.4658880000000  0.4946260000000  0.5710980000000 1.0
C      1  0.4969490000000  0.4552790000000  0.5476090000000 1.0
C      1  0.4331610000000  0.5874240000000  0.5018590000000 1.0
C      1  0.4686100000000  0.4505290000000  0.4781080000000 1.0
C      1  0.5388640000000  0.5256660000000  0.5297750000000 1.0
C      1  0.5595870000000  0.5145640000000  0.4352230000000 1.0
C      1  0.5869300000000  0.5480540000000  0.5141740000000 1.0
C      1  0.4514140000000  0.4060620000000  0.4947130000000 1.0
C      1  0.5513220000000  0.5156400000000  0.4684330000000 1.0
C      1  0.5781720000000  0.4589350000000  0.4435310000000 1.0
C      1  0.5077340000000  0.5011420000000  0.5853610000000 1.0
C      1  0.5265810000000  0.4254040000000  0.4455050000000 1.0
C      1  0.4680470000000  0.5549660000000  0.4985740000000 1.0
C      1  0.4997680000000  0.5399730000000  0.4098130000000 1.0
C      1  0.4966300000000  0.3963890000000  0.4880060000000 1.0
C      1  0.4568560000000  0.6006040000000  0.4252520000000 1.0
C      1  0.5448340000000  0.5262980000000  0.4103570000000 1.0
C      1  0.5192230000000  0.5911910000000  0.5701600000000 1.0
C      1  0.5082600000000  0.4668620000000  0.4361740000000 1.0
C      1  0.4727710000000  0.4998990000000  0.4587500000000 1.0
C      1  0.5441470000000  0.5992150000000  0.5200620000000 1.0
C      1  0.4140730000000  0.4778850000000  0.5517740000000 1.0
C      1  0.4240360000000  0.4566520000000  0.4553450000000 1.0
C      1  0.4751810000000  0.3939360000000  0.5053650000000 1.0
C      1  0.5105720000000  0.4994480000000  0.4978480000000 1.0
C      1  0.4582570000000  0.4226060000000  0.4709750000000 1.0
C      1  0.5784430000000  0.4672930000000  0.5812810000000 1.0
C      1  0.5871030000000  0.5448980000000  0.4672150000000 1.0
C      1  0.5597210000000  0.5100180000000  0.5513090000000 1.0
C      1  0.4562510000000  0.4427270000000  0.5222320000000 1.0
C      1  0.4491280000000  0.5691830000000  0.5473150000000 1.0
C      1  0.5302730000000  0.5044500000000  0.3967410000000 1.0
C      1  0.4069930000000  0.5438030000000  0.5291450000000 1.0
C      1  0.5499000000000  0.5770190000000  0.5432100000000 1.0
C      1  0.6141560000000  0.4803700000000  0.5260960000000 1.0
C      1  0.4786370000000  0.5218970000000  0.6030420000000 1.0
C      1  0.5767670000000  0.5172690000000  0.4894740000000 1.0
C      1  0.5685910000000  0.5689740000000  0.4664530000000 1.0
C      1  0.5357720000000  0.4581790000000  0.4481240000000 1.0
C      1  0.5126250000000  0.4232880000000  0.4736170000000 1.0
C      1  0.4581480000000  0.4723280000000  0.6032450000000 1.0
C      1  0.4762770000000  0.5847190000000  0.5492810000000 1.0
C      1  0.5355590000000  0.4343690000000  0.5700120000000 1.0
C      1  0.6041960000000  0.5461260000000  0.4926940000000 1.0
C      1  0.4303010000000  0.4959350000000  0.4537650000000 1.0
C      1  0.5318850000000  0.5604330000000  0.5479920000000 1.0
C      1  0.4504000000000  0.4600610000000  0.4133320000000 1.0
C      1  0.4946620000000  0.5231180000000  0.4699660000000 1.0
C      1  0.4766960000000  0.4780700000000  0.5205640000000 1.0
C      1  0.4939160000000  0.5499970000000  0.5905170000000 1.0
C      1  0.4367870000000  0.4436040000000  0.4329810000000 1.0
C      1  0.4244340000000  0.4479100000000  0.5091340000000 1.0
C      1  0.5394820000000  0.5908350000000  0.5881670000000 1.0
C      1  0.4929420000000  0.5679080000000  0.5117680000000 1.0
C      1  0.5488910000000  0.4831560000000  0.4319310000000 1.0
C      1  0.4053000000000  0.5241580000000  0.4667590000000 1.0
C      1  0.4300410000000  0.4149620000000  0.5124750000000 1.0
C      1  0.4654820000000  0.5867660000000  0.5022560000000 1.0
C      1  0.5460240000000  0.5727410000000  0.4500730000000 1.0
C      1  0.5265190000000  0.5484910000000  0.4108920000000 1.0
C      1  0.5678510000000  0.4846160000000  0.5356920000000 1.0
C      1  0.5175630000000  0.4394790000000  0.5251700000000 1.0
C      1  0.4431920000000  0.5412440000000  0.5127020000000 1.0
C      1  0.4846550000000  0.4262160000000  0.5604020000000 1.0
C      1  0.5037890000000  0.4133540000000  0.4281100000000 1.0
C      1  0.6119610000000  0.4779210000000  0.4977620000000 1.0
C      1  0.4712430000000  0.6115320000000  0.4524420000000 1.0
C      1  0.4955910000000  0.5672840000000  0.4516970000000 1.0
C      1  0.5172980000000  0.5571640000000  0.4952670000000 1.0
C      1  0.5419220000000  0.4828140000000  0.5938710000000 1.0
C      1  0.5412020000000  0.4787220000000  0.4022240000000 1.0
C      1  0.4464830000000  0.5427140000000  0.4790770000000 1.0
C      1  0.4805270000000  0.5114250000000  0.4958030000000 1.0
C      1  0.4482960000000  0.5203940000000  0.5351210000000 1.0
C      1  0.6185550000000  0.5018680000000  0.5440260000000 1.0
C      1  0.5136420000000  0.4803580000000  0.4733520000000 1.0
C      1  0.4484260000000  0.5409120000000  0.4300120000000 1.0
C      1  0.4228480000000  0.5975610000000  0.4751350000000 1.0
C      1  0.4787430000000  0.5081670000000  0.5346280000000 1.0
C      1  0.4253180000000  0.5498740000000  0.5496850000000 1.0
C      1  0.4551850000000  0.4219680000000  0.4415920000000 1.0
C      1  0.4782410000000  0.4215720000000  0.4234040000000 1.0
C      1  0.5638630000000  0.4384790000000  0.4927500000000 1.0
C      1  0.5418220000000  0.4986520000000  0.4948180000000 1.0
C      1  0.6106410000000  0.5038900000000  0.5702460000000 1.0
C      1  0.5946380000000  0.4887920000000  0.5865850000000 1.0
C      1  0.5518760000000  0.4380590000000  0.5453650000000 1.0
C      1  0.4336620000000  0.5236850000000  0.5645920000000 1.0
C      1  0.5225870000000  0.5825570000000  0.4612640000000 1.0
C      1  0.4988990000000  0.4989930000000  0.4369690000000 1.0
C      1  0.4847490000000  0.4883300000000  0.6057440000000 1.0
C      1  0.5283510000000  0.4972110000000  0.4526750000000 1.0
C      1  0.4992240000000  0.6078980000000  0.5021250000000 1.0
C      1  0.5071590000000  0.5497580000000  0.5331840000000 1.0
C      1  0.4880360000000  0.5344720000000  0.5521630000000 1.0
C      1  0.5716000000000  0.5215690000000  0.5213830000000 1.0
C      1  0.5202790000000  0.6036680000000  0.5439140000000 1.0
C      1  0.5640760000000  0.5639360000000  0.5082700000000 1.0
C      1  0.4427790000000  0.5077260000000  0.4312400000000 1.0
C      1  0.4910100000000  0.3749580000000  0.5515560000000 1.0
C      1  0.5081880000000  0.4565740000000  0.4061030000000 1.0
C      1  0.5551390000000  0.3940270000000  0.4752310000000 1.0
C      1  0.4837190000000  0.4008760000000  0.5376070000000 1.0
C      1  0.4412750000000  0.4935460000000  0.5896070000000 1.0
C      1  0.4157480000000  0.5595230000000  0.5042150000000 1.0
C      1  0.4043100000000  0.5162660000000  0.5233120000000 1.0
C      1  0.5570840000000  0.4118790000000  0.4479970000000 1.0
C      1  0.5401050000000  0.5502750000000  0.5102340000000 1.0
C      1  0.4006420000000  0.4864960000000  0.5276060000000 1.0
C      1  0.5460460000000  0.4525350000000  0.5119030000000 1.0
C      1  0.4540820000000  0.4462830000000  0.5927780000000 1.0
C      1  0.4555700000000  0.5317400000000  0.5867220000000 1.0
C      1  0.5270960000000  0.5981510000000  0.4902760000000 1.0
C      1  0.5090770000000  0.5168030000000  0.5236040000000 1.0
C      1  0.5529210000000  0.4999510000000  0.5795500000000 1.0
C      1  0.4561250000000  0.4304240000000  0.5707000000000 1.0
C      1  0.5973760000000  0.4956940000000  0.4800990000000 1.0
C      1  0.5108580000000  0.4690140000000  0.5946980000000 1.0
C      1  0.5536870000000  0.4805710000000  0.5125410000000 1.0
C      1  0.5745010000000  0.4586470000000  0.5513860000000 1.0
C      1  0.4410830000000  0.5763320000000  0.4580880000000 1.0
C      1  0.4445580000000  0.4740250000000  0.5154980000000 1.0
C      1  0.5604000000000  0.5901900000000  0.4914530000000 1.0
C      1  0.4016810000000  0.5519390000000  0.4777560000000 1.0
C      1  0.5903850000000  0.4340240000000  0.4975860000000 1.0
C      1  0.5887760000000  0.4832250000000  0.4516410000000 1.0
C      1  0.4470290000000  0.4719400000000  0.4709080000000 1.0
C      1  0.4012850000000  0.4564110000000  0.4705860000000 1.0
C      1  0.5605620000000  0.4371170000000  0.4249640000000 1.0
C      1  0.4088940000000  0.5727840000000  0.4591860000000 1.0
C      1  0.4667790000000  0.4707770000000  0.5510130000000 1.0
END
