TITL C-2778434-4341-1320 -0.121024317584069 125000 -796.531146275954 0 0 139 (C1) n - 1
REM
REM in /home/nfs/bkarasulu/CARBON/AIRSS/Generating-Clusters/REBO/Only-C1/SD-CG/HFTN-CG
REM
REM
REM
REM
REM
REM ./C.cell (11c1c37f851c82e70ff6c80c92926a4b)
REM
REM compiler GCC version 9.2.1 20190827 (Red Hat 9.2.1-1)
REM options -cpp -mtune=generic -march=x86-64 -g -O0 -fpre-include=/usr/include/finclude/math-vector-fortran.h
REM seed -1352708098 2144132370 1869173534 1843006142 -1759464634 -2010000503 -1918361996 -462517943 536249953 -2065392442 -2051025568 -1641378220 -1785296434 -205597247 -1693539772 882613544 883646870 1863302187 -729449216 -1564066735 1327144753 1704097534 -1332001709 356948869 -405489734 1397507723 1658954764 -1073140981 -477885960 1994443007 1431912932 1718570097 2008898964
REM
CELL 1.54180   50.00000   50.00000   50.00000   90.00000   90.00000   90.00000
LATT -1
SFAC C  
C      1  0.4151490000000  0.5550400000000  0.5257520000000 1.0
C      1  0.4372840000000  0.4620420000000  0.5873620000000 1.0
C      1  0.4585040000000  0.4669120000000  0.4910680000000 1.0
C      1  0.4319490000000  0.5445390000000  0.4389150000000 1.0
C      1  0.4167110000000  0.4873610000000  0.5129060000000 1.0
C      1  0.4714920000000  0.5803350000000  0.4442790000000 1.0
C      1  0.5372410000000  0.5820250000000  0.4438510000000 1.0
C      1  0.4441570000000  0.4165200000000  0.4766480000000 1.0
C      1  0.4371000000000  0.4944520000000  0.5787300000000 1.0
C      1  0.5760600000000  0.4660020000000  0.4472970000000 1.0
C      1  0.5183900000000  0.5293110000000  0.4291650000000 1.0
C      1  0.5018840000000  0.5224800000000  0.4708780000000 1.0
C      1  0.4171320000000  0.5523250000000  0.4604930000000 1.0
C      1  0.4538930000000  0.5720540000000  0.5763900000000 1.0
C      1  0.5036570000000  0.4786180000000  0.5749010000000 1.0
C      1  0.5514420000000  0.5658250000000  0.5647480000000 1.0
C      1  0.4613620000000  0.4150230000000  0.4207220000000 1.0
C      1  0.4609160000000  0.5858490000000  0.4704100000000 1.0
C      1  0.4820860000000  0.4469200000000  0.4660020000000 1.0
C      1  0.5948510000000  0.5212410000000  0.4625450000000 1.0
C      1  0.4361260000000  0.5272090000000  0.5671650000000 1.0
C      1  0.5094600000000  0.4171970000000  0.5729290000000 1.0
C      1  0.4666580000000  0.5266280000000  0.5753130000000 1.0
C      1  0.5573890000000  0.5044440000000  0.5086220000000 1.0
C      1  0.4350110000000  0.4480800000000  0.4752630000000 1.0
C      1  0.5453350000000  0.5183140000000  0.5772940000000 1.0
C      1  0.5810440000000  0.5007330000000  0.4140730000000 1.0
C      1  0.4771490000000  0.5688990000000  0.5136130000000 1.0
C      1  0.5298600000000  0.5225510000000  0.4843520000000 1.0
C      1  0.5135480000000  0.5005090000000  0.5595130000000 1.0
C      1  0.4958210000000  0.5687180000000  0.5489180000000 1.0
C      1  0.5878700000000  0.4108840000000  0.4927200000000 1.0
C      1  0.5060330000000  0.5888520000000  0.4915950000000 1.0
C      1  0.4034770000000  0.4724040000000  0.5376690000000 1.0
C      1  0.5593950000000  0.4716310000000  0.5176540000000 1.0
C      1  0.4658640000000  0.4693790000000  0.5423940000000 1.0
C      1  0.4621610000000  0.4712510000000  0.4574690000000 1.0
C      1  0.5790400000000  0.5330870000000  0.5408250000000 1.0
C      1  0.5142800000000  0.4212020000000  0.5353170000000 1.0
C      1  0.4204140000000  0.4975740000000  0.4812540000000 1.0
C      1  0.5918710000000  0.4678760000000  0.4775850000000 1.0
C      1  0.4157350000000  0.5207830000000  0.5054640000000 1.0
C      1  0.4310440000000  0.4817450000000  0.4346580000000 1.0
C      1  0.4975320000000  0.5145090000000  0.5196010000000 1.0
C      1  0.5137950000000  0.4781950000000  0.5205430000000 1.0
C      1  0.4861570000000  0.4332910000000  0.5893640000000 1.0
C      1  0.4740810000000  0.4158930000000  0.4709720000000 1.0
C      1  0.5834470000000  0.4586100000000  0.5604620000000 1.0
C      1  0.4727880000000  0.5214890000000  0.4692820000000 1.0
C      1  0.5619110000000  0.5393450000000  0.5681200000000 1.0
C      1  0.5096680000000  0.5667660000000  0.4682210000000 1.0
C      1  0.5196620000000  0.4103110000000  0.4865430000000 1.0
C      1  0.5085200000000  0.5623050000000  0.5212070000000 1.0
C      1  0.4255370000000  0.4328950000000  0.4459200000000 1.0
C      1  0.4759690000000  0.5025920000000  0.5908710000000 1.0
C      1  0.4930690000000  0.4061580000000  0.4937250000000 1.0
C      1  0.5800880000000  0.5228070000000  0.4315260000000 1.0
C      1  0.4496790000000  0.4953440000000  0.5476480000000 1.0
C      1  0.5472920000000  0.5359230000000  0.5311160000000 1.0
C      1  0.5789050000000  0.4878020000000  0.5565830000000 1.0
C      1  0.4495310000000  0.4931220000000  0.5080730000000 1.0
C      1  0.4856820000000  0.5175360000000  0.5493520000000 1.0
C      1  0.5259890000000  0.4403680000000  0.4828010000000 1.0
C      1  0.5620120000000  0.5451920000000  0.4750150000000 1.0
C      1  0.5235420000000  0.5002090000000  0.4049400000000 1.0
C      1  0.5435870000000  0.5694080000000  0.5377320000000 1.0
C      1  0.4587330000000  0.4407410000000  0.5513800000000 1.0
C      1  0.5114050000000  0.4614640000000  0.4239460000000 1.0
C      1  0.4378840000000  0.5758000000000  0.5162220000000 1.0
C      1  0.4828380000000  0.4131420000000  0.4391700000000 1.0
C      1  0.5547530000000  0.5766420000000  0.4976580000000 1.0
C      1  0.5932370000000  0.5480710000000  0.5173240000000 1.0
C      1  0.4597070000000  0.4424440000000  0.5807670000000 1.0
C      1  0.4361230000000  0.5575810000000  0.5517110000000 1.0
C      1  0.4497430000000  0.5577960000000  0.4829220000000 1.0
C      1  0.4889330000000  0.4112680000000  0.5213840000000 1.0
C      1  0.6028570000000  0.5251630000000  0.4950450000000 1.0
C      1  0.4194310000000  0.5494760000000  0.4925600000000 1.0
C      1  0.5515010000000  0.4603420000000  0.5485750000000 1.0
C      1  0.5885970000000  0.4763670000000  0.5041140000000 1.0
C      1  0.5316320000000  0.4393480000000  0.5588910000000 1.0
C      1  0.5422910000000  0.4233400000000  0.5167750000000 1.0
C      1  0.5246720000000  0.4503650000000  0.5213490000000 1.0
C      1  0.5463260000000  0.4928290000000  0.5582460000000 1.0
C      1  0.4749800000000  0.5536830000000  0.5868960000000 1.0
C      1  0.5286010000000  0.5089050000000  0.5219230000000 1.0
C      1  0.5675240000000  0.4766520000000  0.4200880000000 1.0
C      1  0.5989050000000  0.4900980000000  0.4539010000000 1.0
C      1  0.5000000000000  0.5616420000000  0.5751440000000 1.0
C      1  0.5046170000000  0.4876210000000  0.4901410000000 1.0
C      1  0.4210910000000  0.4731590000000  0.4609240000000 1.0
C      1  0.4856720000000  0.5222120000000  0.3904750000000 1.0
C      1  0.4766670000000  0.5966040000000  0.4931240000000 1.0
C      1  0.4588150000000  0.5193820000000  0.5278990000000 1.0
C      1  0.5052850000000  0.4288830000000  0.4318000000000 1.0
C      1  0.5254150000000  0.5164590000000  0.5970530000000 1.0
C      1  0.4358160000000  0.5129210000000  0.4347940000000 1.0
C      1  0.4438260000000  0.4369010000000  0.4244710000000 1.0
C      1  0.4669280000000  0.5256010000000  0.4379580000000 1.0
C      1  0.5659450000000  0.4249020000000  0.5001630000000 1.0
C      1  0.4116320000000  0.4504850000000  0.5796420000000 1.0
C      1  0.4776580000000  0.5040380000000  0.4963700000000 1.0
C      1  0.5203020000000  0.5594040000000  0.4260230000000 1.0
C      1  0.4654460000000  0.4194260000000  0.5344770000000 1.0
C      1  0.4526660000000  0.5449450000000  0.5146620000000 1.0
C      1  0.4864640000000  0.4795810000000  0.4175910000000 1.0
C      1  0.4163810000000  0.5252790000000  0.5392140000000 1.0
C      1  0.5209420000000  0.4970180000000  0.4388340000000 1.0
C      1  0.4641870000000  0.5760150000000  0.5444950000000 1.0
C      1  0.5280560000000  0.4926810000000  0.4681290000000 1.0
C      1  0.4491930000000  0.5011970000000  0.4641650000000 1.0
C      1  0.5137170000000  0.4504650000000  0.4547980000000 1.0
C      1  0.4987080000000  0.4559490000000  0.4912000000000 1.0
C      1  0.5826640000000  0.5725400000000  0.5100460000000 1.0
C      1  0.4167490000000  0.4962410000000  0.5517740000000 1.0
C      1  0.4589310000000  0.5578670000000  0.4327340000000 1.0
C      1  0.6010020000000  0.4993440000000  0.5145950000000 1.0
C      1  0.5916920000000  0.5061080000000  0.5404050000000 1.0
C      1  0.4745890000000  0.4787560000000  0.5736150000000 1.0
C      1  0.5488970000000  0.5247740000000  0.4436970000000 1.0
C      1  0.5523120000000  0.4534980000000  0.4926870000000 1.0
C      1  0.5701660000000  0.5256980000000  0.4935660000000 1.0
C      1  0.4894350000000  0.5133510000000  0.4205080000000 1.0
C      1  0.5006430000000  0.5074540000000  0.6041800000000 1.0
C      1  0.5664390000000  0.5018650000000  0.4617770000000 1.0
C      1  0.4807720000000  0.4697340000000  0.5166980000000 1.0
C      1  0.3988440000000  0.4520650000000  0.5549940000000 1.0
C      1  0.5568360000000  0.5773910000000  0.4646170000000 1.0
C      1  0.5390920000000  0.4745200000000  0.4155580000000 1.0
C      1  0.4723730000000  0.4721830000000  0.3896900000000 1.0
C      1  0.4566540000000  0.4651280000000  0.4256980000000 1.0
C      1  0.5313220000000  0.5472410000000  0.4624520000000 1.0
C      1  0.4239240000000  0.4034140000000  0.4582390000000 1.0
C      1  0.5025120000000  0.5829950000000  0.4412800000000 1.0
C      1  0.5530000000000  0.4734900000000  0.4701940000000 1.0
C      1  0.5127740000000  0.4525810000000  0.5821650000000 1.0
C      1  0.4837320000000  0.5555710000000  0.4825180000000 1.0
C      1  0.5292070000000  0.5876560000000  0.5133300000000 1.0
C      1  0.5350500000000  0.5493550000000  0.5042530000000 1.0
END
