TITL C-2778430-5657-398 -0.0973512122259166 125000 -731.120408089739 0 0 128 (C1) n - 1
REM
REM in /home/nfs/bkarasulu/CARBON/AIRSS/Generating-Clusters/REBO/Only-C1/SD-CG/HFTN-CG
REM
REM
REM
REM
REM
REM ./C.cell (11c1c37f851c82e70ff6c80c92926a4b)
REM
REM compiler GCC version 9.2.1 20190827 (Red Hat 9.2.1-1)
REM options -cpp -mtune=generic -march=x86-64 -g -O0 -fpre-include=/usr/include/finclude/math-vector-fortran.h
REM seed 1060817116 -206936094 1411306358 1000611847 343897695 -192761536 -346952797 -504434386 -1994171573 1038623861 1958182623 -985954572 1954146948 1827875993 -531140061 -871588501 1785177884 1314302688 667183308 1856922870 -82117648 1332610164 -854506124 -1497140274 -396700228 393777780 -202660860 -61812777 660744730 -113090780 -2067983318 251980356 -999730422
REM
CELL 1.54180   50.00000   50.00000   50.00000   90.00000   90.00000   90.00000
LATT -1
SFAC C  
C      1  0.4303330000000  0.5154830000000  0.5469100000000 1.0
C      1  0.5350000000000  0.5838710000000  0.5996680000000 1.0
C      1  0.4570970000000  0.4421320000000  0.5053100000000 1.0
C      1  0.5448770000000  0.5794820000000  0.4773790000000 1.0
C      1  0.5620860000000  0.4105500000000  0.4916120000000 1.0
C      1  0.4524360000000  0.5462600000000  0.5344450000000 1.0
C      1  0.5481960000000  0.4341810000000  0.5099260000000 1.0
C      1  0.4484030000000  0.5212070000000  0.5703460000000 1.0
C      1  0.4158440000000  0.4809350000000  0.4468850000000 1.0
C      1  0.4422780000000  0.5756310000000  0.5481140000000 1.0
C      1  0.4713380000000  0.5818210000000  0.5167120000000 1.0
C      1  0.5308290000000  0.4775980000000  0.5170430000000 1.0
C      1  0.5414920000000  0.5063710000000  0.5323890000000 1.0
C      1  0.4503120000000  0.5218350000000  0.4894320000000 1.0
C      1  0.4818430000000  0.4359140000000  0.5136450000000 1.0
C      1  0.4177040000000  0.5439130000000  0.4956090000000 1.0
C      1  0.4767890000000  0.5321210000000  0.4617080000000 1.0
C      1  0.4613140000000  0.5982830000000  0.4754340000000 1.0
C      1  0.4806750000000  0.5563440000000  0.4982880000000 1.0
C      1  0.5869950000000  0.4645690000000  0.5273130000000 1.0
C      1  0.5481200000000  0.5196080000000  0.4937300000000 1.0
C      1  0.5377590000000  0.5405080000000  0.4793640000000 1.0
C      1  0.4967010000000  0.4996960000000  0.4862500000000 1.0
C      1  0.5256460000000  0.5530470000000  0.5419220000000 1.0
C      1  0.4336730000000  0.4599200000000  0.5028660000000 1.0
C      1  0.5451860000000  0.5184770000000  0.5701520000000 1.0
C      1  0.4997600000000  0.5277750000000  0.5811650000000 1.0
C      1  0.5118680000000  0.5125050000000  0.5207470000000 1.0
C      1  0.5535180000000  0.4730400000000  0.4415480000000 1.0
C      1  0.4785640000000  0.4014680000000  0.4935820000000 1.0
C      1  0.5137380000000  0.5236740000000  0.4274920000000 1.0
C      1  0.5070240000000  0.5368360000000  0.4765470000000 1.0
C      1  0.4884210000000  0.5846580000000  0.4807280000000 1.0
C      1  0.4389150000000  0.4878830000000  0.4314660000000 1.0
C      1  0.4657300000000  0.5158950000000  0.5292070000000 1.0
C      1  0.5885380000000  0.5328410000000  0.5127670000000 1.0
C      1  0.5291540000000  0.5695060000000  0.4508330000000 1.0
C      1  0.5061850000000  0.4208590000000  0.4510670000000 1.0
C      1  0.4765090000000  0.4471910000000  0.4708120000000 1.0
C      1  0.5059890000000  0.4574100000000  0.5141020000000 1.0
C      1  0.5521050000000  0.4726130000000  0.5815140000000 1.0
C      1  0.4529020000000  0.4314770000000  0.4669860000000 1.0
C      1  0.4401960000000  0.5818210000000  0.5177730000000 1.0
C      1  0.4817540000000  0.5256350000000  0.4305900000000 1.0
C      1  0.4421250000000  0.5788840000000  0.4708810000000 1.0
C      1  0.4695470000000  0.5417480000000  0.5743760000000 1.0
C      1  0.4674160000000  0.4207570000000  0.5477310000000 1.0
C      1  0.4403590000000  0.4412350000000  0.4431880000000 1.0
C      1  0.5625880000000  0.4613890000000  0.5508720000000 1.0
C      1  0.5750100000000  0.5511780000000  0.5313020000000 1.0
C      1  0.3866760000000  0.4914180000000  0.4869610000000 1.0
C      1  0.5546730000000  0.5475810000000  0.4554960000000 1.0
C      1  0.5722900000000  0.5110880000000  0.5048140000000 1.0
C      1  0.5091460000000  0.4983380000000  0.5955780000000 1.0
C      1  0.4278240000000  0.5712680000000  0.4940680000000 1.0
C      1  0.5955360000000  0.4413900000000  0.5041880000000 1.0
C      1  0.5099260000000  0.5449120000000  0.5118450000000 1.0
C      1  0.4931520000000  0.4654740000000  0.4181550000000 1.0
C      1  0.5300170000000  0.4954210000000  0.4897660000000 1.0
C      1  0.5315090000000  0.4824600000000  0.5966250000000 1.0
C      1  0.4803400000000  0.5646400000000  0.4386960000000 1.0
C      1  0.4352210000000  0.4585340000000  0.5344280000000 1.0
C      1  0.4417310000000  0.4779420000000  0.5962710000000 1.0
C      1  0.4852800000000  0.4321210000000  0.5656850000000 1.0
C      1  0.4925510000000  0.4870590000000  0.5236810000000 1.0
C      1  0.5674710000000  0.5214070000000  0.4563730000000 1.0
C      1  0.5099110000000  0.4463080000000  0.5522320000000 1.0
C      1  0.4243220000000  0.5331870000000  0.5215980000000 1.0
C      1  0.5961010000000  0.4871280000000  0.4742020000000 1.0
C      1  0.5249700000000  0.4771570000000  0.4231120000000 1.0
C      1  0.5398500000000  0.4271380000000  0.4715660000000 1.0
C      1  0.5002040000000  0.5765800000000  0.4542540000000 1.0
C      1  0.5643150000000  0.4817990000000  0.5110180000000 1.0
C      1  0.4532010000000  0.4080280000000  0.4827840000000 1.0
C      1  0.5298650000000  0.5718850000000  0.5769250000000 1.0
C      1  0.5316850000000  0.5714660000000  0.5038440000000 1.0
C      1  0.5286920000000  0.5481150000000  0.4252160000000 1.0
C      1  0.5257590000000  0.5408740000000  0.5720310000000 1.0
C      1  0.4407490000000  0.4322740000000  0.5451850000000 1.0
C      1  0.4724150000000  0.5704950000000  0.5588680000000 1.0
C      1  0.4141020000000  0.4524620000000  0.4466890000000 1.0
C      1  0.5183140000000  0.5126540000000  0.4556360000000 1.0
C      1  0.5467700000000  0.4984750000000  0.4599090000000 1.0
C      1  0.5264410000000  0.5857320000000  0.5482150000000 1.0
C      1  0.5025150000000  0.4754700000000  0.5515000000000 1.0
C      1  0.4779410000000  0.4807570000000  0.4512710000000 1.0
C      1  0.5803750000000  0.4439250000000  0.4805330000000 1.0
C      1  0.6030330000000  0.4805030000000  0.5016090000000 1.0
C      1  0.4866880000000  0.5479080000000  0.5381400000000 1.0
C      1  0.4372740000000  0.4851490000000  0.4833850000000 1.0
C      1  0.5515450000000  0.5707140000000  0.5300960000000 1.0
C      1  0.5413610000000  0.4421570000000  0.5399270000000 1.0
C      1  0.4860350000000  0.4911200000000  0.5740970000000 1.0
C      1  0.4790370000000  0.5223080000000  0.5004130000000 1.0
C      1  0.4856800000000  0.4060890000000  0.5249610000000 1.0
C      1  0.4621120000000  0.5014300000000  0.4663530000000 1.0
C      1  0.4712010000000  0.5118450000000  0.4022110000000 1.0
C      1  0.5199600000000  0.4469680000000  0.3981120000000 1.0
C      1  0.4194030000000  0.4163850000000  0.5516840000000 1.0
C      1  0.4101130000000  0.4978130000000  0.4731360000000 1.0
C      1  0.4535970000000  0.5563470000000  0.4548210000000 1.0
C      1  0.5268520000000  0.4926860000000  0.5583020000000 1.0
C      1  0.5934160000000  0.5132890000000  0.4635710000000 1.0
C      1  0.5047870000000  0.5863040000000  0.5085940000000 1.0
C      1  0.4860270000000  0.4675270000000  0.4897070000000 1.0
C      1  0.5345330000000  0.4226410000000  0.4409710000000 1.0
C      1  0.5672000000000  0.5934710000000  0.4757770000000 1.0
C      1  0.4339580000000  0.5339240000000  0.4482660000000 1.0
C      1  0.5536450000000  0.4593120000000  0.4902850000000 1.0
C      1  0.4604170000000  0.4634150000000  0.4281950000000 1.0
C      1  0.5403080000000  0.4468770000000  0.4240880000000 1.0
C      1  0.4923830000000  0.4470760000000  0.4454070000000 1.0
C      1  0.5010530000000  0.4975460000000  0.4099820000000 1.0
C      1  0.5010450000000  0.4087530000000  0.4773650000000 1.0
C      1  0.5667580000000  0.5238530000000  0.5449400000000 1.0
C      1  0.4641590000000  0.4854150000000  0.5044370000000 1.0
C      1  0.4947670000000  0.5882460000000  0.5407220000000 1.0
C      1  0.4572130000000  0.4959440000000  0.5824310000000 1.0
C      1  0.5233040000000  0.4148970000000  0.4979600000000 1.0
C      1  0.4888710000000  0.5160400000000  0.5509980000000 1.0
C      1  0.4490670000000  0.5156430000000  0.4278930000000 1.0
C      1  0.5798240000000  0.4668450000000  0.4610400000000 1.0
C      1  0.5288550000000  0.4594380000000  0.4695370000000 1.0
C      1  0.4159350000000  0.5278420000000  0.4703490000000 1.0
C      1  0.5667320000000  0.4937010000000  0.5606640000000 1.0
C      1  0.5088630000000  0.4805720000000  0.4597120000000 1.0
C      1  0.4446390000000  0.4892720000000  0.5316320000000 1.0
C      1  0.5156670000000  0.4217330000000  0.5292850000000 1.0
END
