TITL C-2778432-5617-596 -0.000534868893132474 125000 -118.044435344336 0 0 21 (C1) n - 1
REM
REM in /home/nfs/bkarasulu/CARBON/AIRSS/Generating-Clusters/REBO/Only-C1/SD-CG/HFTN-CG
REM
REM
REM
REM
REM
REM ./C.cell (11c1c37f851c82e70ff6c80c92926a4b)
REM
REM compiler GCC version 9.2.1 20190827 (Red Hat 9.2.1-1)
REM options -cpp -mtune=generic -march=x86-64 -g -O0 -fpre-include=/usr/include/finclude/math-vector-fortran.h
REM seed -473972461 742307598 -1751349959 1225374932 307514934 -1233339792 1663827960 -1946965378 -1509177953 891070327 1447963797 -809306028 698415796 1374647099 1856774035 196174677 1023117338 -1656904490 -1081527556 1414090518 16703109 1956517332 -1585685850 301804569 1014995067 -562989377 245120989 -38653873 -201591132 -1978446913 1743567825 -626143286 -1367362028
REM
CELL 1.54180   50.00000   50.00000   50.00000   90.00000   90.00000   90.00000
LATT -1
SFAC C  
C      1  0.5145370000000  0.4836280000000  0.4491110000000 1.0
C      1  0.4904410000000  0.4841840000000  0.5578590000000 1.0
C      1  0.5576660000000  0.5103540000000  0.4542410000000 1.0
C      1  0.5003680000000  0.5546540000000  0.5086090000000 1.0
C      1  0.5195640000000  0.5332040000000  0.5057770000000 1.0
C      1  0.4719300000000  0.5230320000000  0.5362310000000 1.0
C      1  0.4786540000000  0.4619350000000  0.5462290000000 1.0
C      1  0.4739560000000  0.5450930000000  0.5136110000000 1.0
C      1  0.5116880000000  0.4873290000000  0.5211160000000 1.0
C      1  0.4690480000000  0.5128430000000  0.5038790000000 1.0
C      1  0.4883060000000  0.5054180000000  0.4800280000000 1.0
C      1  0.5204080000000  0.5151070000000  0.5293880000000 1.0
C      1  0.4841790000000  0.4851680000000  0.5141620000000 1.0
C      1  0.4722460000000  0.4600630000000  0.4690030000000 1.0
C      1  0.5149810000000  0.5176540000000  0.4810850000000 1.0
C      1  0.5312950000000  0.5047800000000  0.4606080000000 1.0
C      1  0.5826200000000  0.5156270000000  0.4482160000000 1.0
C      1  0.4637360000000  0.4478210000000  0.4922930000000 1.0
C      1  0.4706820000000  0.4587930000000  0.5173490000000 1.0
C      1  0.4950110000000  0.5110700000000  0.5485390000000 1.0
C      1  0.4886820000000  0.4822410000000  0.4626660000000 1.0
END
