TITL C-2778426-5645-1097 -0.00303477824677815 125000 -451.730104908992 0 0 78 (C1) n - 1
REM
REM in /home/nfs/bkarasulu/CARBON/AIRSS/Generating-Clusters/REBO/Only-C1/SD-CG/HFTN-CG
REM
REM
REM
REM
REM
REM ./C.cell (11c1c37f851c82e70ff6c80c92926a4b)
REM
REM compiler GCC version 9.2.1 20190827 (Red Hat 9.2.1-1)
REM options -cpp -mtune=generic -march=x86-64 -g -O0 -fpre-include=/usr/include/finclude/math-vector-fortran.h
REM seed -2146697891 -1080832406 -1475254873 -1779121683 257801127 109321011 -1242026241 1571429412 737357993 1935583554 -519294815 1410081101 -1950480470 -222726120 954328257 -3374682 -656290088 252609745 729038951 1018440117 -653966082 -1362340672 866466681 -993845657 1190669985 -424875319 -1715803691 658497002 -857872788 -441168452 -1928006255 1540473627 -487919021
REM
CELL 1.54180   50.00000   50.00000   50.00000   90.00000   90.00000   90.00000
LATT -1
SFAC C  
C      1  0.5019590000000  0.4374020000000  0.5488030000000 1.0
C      1  0.4495510000000  0.5106250000000  0.4343270000000 1.0
C      1  0.5009450000000  0.4724850000000  0.5846450000000 1.0
C      1  0.4853080000000  0.5078260000000  0.5018600000000 1.0
C      1  0.5336420000000  0.4852120000000  0.5273430000000 1.0
C      1  0.4470140000000  0.4715210000000  0.4410060000000 1.0
C      1  0.5295750000000  0.5764700000000  0.5151180000000 1.0
C      1  0.4750400000000  0.5286760000000  0.5630910000000 1.0
C      1  0.5024800000000  0.5350190000000  0.5666110000000 1.0
C      1  0.5193450000000  0.4276100000000  0.5215040000000 1.0
C      1  0.5101380000000  0.4980570000000  0.5793230000000 1.0
C      1  0.5238930000000  0.4543770000000  0.5039020000000 1.0
C      1  0.4243390000000  0.4941860000000  0.4493900000000 1.0
C      1  0.5422040000000  0.4999980000000  0.4742670000000 1.0
C      1  0.5653050000000  0.5095330000000  0.4972920000000 1.0
C      1  0.4698540000000  0.4352910000000  0.4631960000000 1.0
C      1  0.5533110000000  0.4964530000000  0.4433530000000 1.0
C      1  0.5311130000000  0.5159000000000  0.4264310000000 1.0
C      1  0.5611520000000  0.5341770000000  0.5205270000000 1.0
C      1  0.5532340000000  0.4612470000000  0.5145010000000 1.0
C      1  0.4598630000000  0.5279840000000  0.4997380000000 1.0
C      1  0.4574900000000  0.5483050000000  0.5459180000000 1.0
C      1  0.4611150000000  0.4613010000000  0.4639520000000 1.0
C      1  0.5760850000000  0.4852150000000  0.5134070000000 1.0
C      1  0.4561090000000  0.4440000000000  0.4996530000000 1.0
C      1  0.5653460000000  0.5345810000000  0.4779000000000 1.0
C      1  0.4964150000000  0.4596510000000  0.5236490000000 1.0
C      1  0.4751110000000  0.5048170000000  0.4547420000000 1.0
C      1  0.4658490000000  0.5094280000000  0.5365410000000 1.0
C      1  0.5159730000000  0.5343940000000  0.5373790000000 1.0
C      1  0.5205020000000  0.5395710000000  0.4940560000000 1.0
C      1  0.5180660000000  0.4506800000000  0.5731210000000 1.0
C      1  0.4675260000000  0.4890460000000  0.4810600000000 1.0
C      1  0.5228480000000  0.4285930000000  0.4658450000000 1.0
C      1  0.4841920000000  0.4409200000000  0.5007890000000 1.0
C      1  0.5313750000000  0.5434050000000  0.4428530000000 1.0
C      1  0.5061300000000  0.4701070000000  0.4483490000000 1.0
C      1  0.5177850000000  0.5197420000000  0.4738560000000 1.0
C      1  0.5551660000000  0.4651520000000  0.4482710000000 1.0
C      1  0.5445310000000  0.4576080000000  0.5695920000000 1.0
C      1  0.5300920000000  0.5219840000000  0.5775340000000 1.0
C      1  0.4716640000000  0.5576240000000  0.5235030000000 1.0
C      1  0.5113900000000  0.4921220000000  0.5054740000000 1.0
C      1  0.4467360000000  0.5452070000000  0.4733910000000 1.0
C      1  0.5105040000000  0.5025090000000  0.4133520000000 1.0
C      1  0.5534480000000  0.4822360000000  0.5537360000000 1.0
C      1  0.4951770000000  0.5239640000000  0.4582960000000 1.0
C      1  0.5192870000000  0.4762190000000  0.4784810000000 1.0
C      1  0.4578880000000  0.5392870000000  0.4444060000000 1.0
C      1  0.4943580000000  0.4829160000000  0.4258280000000 1.0
C      1  0.4172730000000  0.5396820000000  0.4776890000000 1.0
C      1  0.4819100000000  0.4623540000000  0.5607350000000 1.0
C      1  0.4429680000000  0.5018100000000  0.5708460000000 1.0
C      1  0.4479030000000  0.4809770000000  0.5284960000000 1.0
C      1  0.4377720000000  0.5227500000000  0.5223890000000 1.0
C      1  0.5264650000000  0.5772780000000  0.4828190000000 1.0
C      1  0.5025050000000  0.4269120000000  0.4843380000000 1.0
C      1  0.4099710000000  0.5075040000000  0.4763600000000 1.0
C      1  0.4121880000000  0.5238910000000  0.5060820000000 1.0
C      1  0.5300770000000  0.4510670000000  0.4494690000000 1.0
C      1  0.5144280000000  0.5031440000000  0.5459520000000 1.0
C      1  0.5391120000000  0.5511640000000  0.5274570000000 1.0
C      1  0.5148320000000  0.5618030000000  0.4582880000000 1.0
C      1  0.4709510000000  0.5592610000000  0.4908350000000 1.0
C      1  0.5547700000000  0.5128890000000  0.5672140000000 1.0
C      1  0.4428790000000  0.4683530000000  0.5048150000000 1.0
C      1  0.5476360000000  0.5535040000000  0.4883860000000 1.0
C      1  0.4880120000000  0.4869200000000  0.5375420000000 1.0
C      1  0.5782260000000  0.4591600000000  0.4927300000000 1.0
C      1  0.4664070000000  0.4842530000000  0.4216410000000 1.0
C      1  0.4341900000000  0.4854670000000  0.4807560000000 1.0
C      1  0.5583300000000  0.5287600000000  0.4516500000000 1.0
C      1  0.4357300000000  0.5260150000000  0.5562740000000 1.0
C      1  0.4539330000000  0.4780910000000  0.5579670000000 1.0
C      1  0.4956470000000  0.5380420000000  0.5140290000000 1.0
C      1  0.5754490000000  0.4566910000000  0.4661590000000 1.0
C      1  0.5693290000000  0.5074910000000  0.5369500000000 1.0
C      1  0.4836850000000  0.5541300000000  0.4609690000000 1.0
END
