TITL C-2778422-5617-982 0.00161556762381972 125000 -1046.68115145888 0 0 179 (C1) n - 1
REM
REM in /home/nfs/bkarasulu/CARBON/AIRSS/Generating-Clusters/REBO/Only-C1/SD-CG/HFTN-CG
REM
REM
REM
REM
REM
REM ./C.cell (11c1c37f851c82e70ff6c80c92926a4b)
REM
REM compiler GCC version 9.2.1 20190827 (Red Hat 9.2.1-1)
REM options -cpp -mtune=generic -march=x86-64 -g -O0 -fpre-include=/usr/include/finclude/math-vector-fortran.h
REM seed 1108045106 1939009750 1329922633 -1086717792 -1933378221 -682990598 -83989738 -2087893423 -1424629583 448614992 -1288650981 607582432 -1279641135 1988149059 -2092862892 -41629499 -747743502 -584960377 -2023322720 2060074280 -1814148898 -51250391 643813217 1680484829 1097273637 813881190 -774467642 604857560 -1622016392 1473773550 -2071226498 -1610186288 -314225382
REM
CELL 1.54180   50.00000   50.00000   50.00000   90.00000   90.00000   90.00000
LATT -1
SFAC C  
C      1  0.5097770000000  0.5691490000000  0.5027560000000 1.0
C      1  0.4556080000000  0.4510520000000  0.5829260000000 1.0
C      1  0.4397380000000  0.4290120000000  0.5068750000000 1.0
C      1  0.6074750000000  0.4730240000000  0.5334620000000 1.0
C      1  0.5385700000000  0.4356180000000  0.5244860000000 1.0
C      1  0.5402810000000  0.5193330000000  0.5833570000000 1.0
C      1  0.4479100000000  0.5653990000000  0.5262410000000 1.0
C      1  0.5516150000000  0.4556910000000  0.4788670000000 1.0
C      1  0.5363370000000  0.5790930000000  0.4318080000000 1.0
C      1  0.6034260000000  0.5254530000000  0.5023760000000 1.0
C      1  0.5020670000000  0.5826400000000  0.4517320000000 1.0
C      1  0.5013380000000  0.4326150000000  0.4487040000000 1.0
C      1  0.4282630000000  0.4375330000000  0.4461130000000 1.0
C      1  0.5050540000000  0.4931140000000  0.5962030000000 1.0
C      1  0.4277540000000  0.4706510000000  0.5832030000000 1.0
C      1  0.4651070000000  0.5599200000000  0.5008130000000 1.0
C      1  0.5475550000000  0.4934520000000  0.5394460000000 1.0
C      1  0.4365160000000  0.5910310000000  0.4496950000000 1.0
C      1  0.5244220000000  0.3891880000000  0.4662830000000 1.0
C      1  0.5543630000000  0.5775880000000  0.4782810000000 1.0
C      1  0.5379120000000  0.4397710000000  0.6004580000000 1.0
C      1  0.4301820000000  0.5134870000000  0.4653530000000 1.0
C      1  0.4511570000000  0.4055130000000  0.4978010000000 1.0
C      1  0.4667470000000  0.5451690000000  0.4165950000000 1.0
C      1  0.4357620000000  0.6102670000000  0.5209350000000 1.0
C      1  0.4175190000000  0.4864180000000  0.5353550000000 1.0
C      1  0.5137660000000  0.5745240000000  0.5521080000000 1.0
C      1  0.4681590000000  0.4973250000000  0.5535660000000 1.0
C      1  0.5411630000000  0.4589910000000  0.5045000000000 1.0
C      1  0.3996420000000  0.5245190000000  0.4545460000000 1.0
C      1  0.5961170000000  0.5419870000000  0.4721900000000 1.0
C      1  0.4353510000000  0.5653800000000  0.4531840000000 1.0
C      1  0.4684390000000  0.5274930000000  0.6117970000000 1.0
C      1  0.4767060000000  0.4498300000000  0.5065900000000 1.0
C      1  0.4970600000000  0.4924830000000  0.4723010000000 1.0
C      1  0.5259200000000  0.5083680000000  0.3863140000000 1.0
C      1  0.5316040000000  0.3976730000000  0.5179890000000 1.0
C      1  0.5837200000000  0.4212160000000  0.4870990000000 1.0
C      1  0.4269120000000  0.4882970000000  0.4203800000000 1.0
C      1  0.5430090000000  0.5996980000000  0.4960540000000 1.0
C      1  0.5607210000000  0.5114370000000  0.5607040000000 1.0
C      1  0.5335420000000  0.5507380000000  0.4765350000000 1.0
C      1  0.5639170000000  0.5193300000000  0.4695560000000 1.0
C      1  0.5174100000000  0.4703370000000  0.4642070000000 1.0
C      1  0.5499890000000  0.5977370000000  0.5269240000000 1.0
C      1  0.4502110000000  0.5822370000000  0.4862050000000 1.0
C      1  0.5878540000000  0.5726290000000  0.5203390000000 1.0
C      1  0.4784860000000  0.4065960000000  0.4459650000000 1.0
C      1  0.5608930000000  0.4329280000000  0.5573550000000 1.0
C      1  0.5388330000000  0.5523500000000  0.5736250000000 1.0
C      1  0.4722940000000  0.5409710000000  0.5679770000000 1.0
C      1  0.5319970000000  0.5190470000000  0.4667970000000 1.0
C      1  0.5129450000000  0.4441880000000  0.5791910000000 1.0
C      1  0.5204770000000  0.4160220000000  0.4240870000000 1.0
C      1  0.4990150000000  0.4635140000000  0.5366150000000 1.0
C      1  0.5554240000000  0.5681860000000  0.4480610000000 1.0
C      1  0.4335510000000  0.4374000000000  0.5331240000000 1.0
C      1  0.5081240000000  0.3941330000000  0.4414200000000 1.0
C      1  0.5206770000000  0.5417950000000  0.5458650000000 1.0
C      1  0.4801070000000  0.6163050000000  0.5027700000000 1.0
C      1  0.4869280000000  0.5331150000000  0.4312330000000 1.0
C      1  0.4102230000000  0.4603230000000  0.4774950000000 1.0
C      1  0.4799940000000  0.5735530000000  0.5730740000000 1.0
C      1  0.5352470000000  0.4122410000000  0.5485230000000 1.0
C      1  0.4908310000000  0.5631280000000  0.5304640000000 1.0
C      1  0.5040010000000  0.4116350000000  0.5581450000000 1.0
C      1  0.5111360000000  0.5239230000000  0.5714450000000 1.0
C      1  0.4766680000000  0.5341070000000  0.5381010000000 1.0
C      1  0.4891830000000  0.5356630000000  0.5004140000000 1.0
C      1  0.4797500000000  0.4899350000000  0.4980180000000 1.0
C      1  0.4640200000000  0.4706370000000  0.4771560000000 1.0
C      1  0.4267320000000  0.5894310000000  0.5027710000000 1.0
C      1  0.4555710000000  0.3939540000000  0.4658580000000 1.0
C      1  0.5832550000000  0.4493970000000  0.5376360000000 1.0
C      1  0.5914950000000  0.4603730000000  0.4583250000000 1.0
C      1  0.4883280000000  0.4848710000000  0.4341580000000 1.0
C      1  0.4566900000000  0.4334620000000  0.4653090000000 1.0
C      1  0.5733130000000  0.4403520000000  0.4687640000000 1.0
C      1  0.4023740000000  0.5080710000000  0.5195680000000 1.0
C      1  0.5855710000000  0.4916740000000  0.5716980000000 1.0
C      1  0.4561200000000  0.4365250000000  0.5537650000000 1.0
C      1  0.5306750000000  0.5146320000000  0.4363890000000 1.0
C      1  0.4768380000000  0.5379920000000  0.4696310000000 1.0
C      1  0.4680710000000  0.3882950000000  0.5177240000000 1.0
C      1  0.5242490000000  0.4504290000000  0.5515450000000 1.0
C      1  0.4471860000000  0.5101800000000  0.5712850000000 1.0
C      1  0.4860430000000  0.4804630000000  0.3925590000000 1.0
C      1  0.5487940000000  0.4829550000000  0.4632130000000 1.0
C      1  0.5998440000000  0.5142520000000  0.5558030000000 1.0
C      1  0.5204270000000  0.4677830000000  0.6019180000000 1.0
C      1  0.5198950000000  0.5388150000000  0.5149870000000 1.0
C      1  0.4663350000000  0.6049940000000  0.4778390000000 1.0
C      1  0.4691520000000  0.3722690000000  0.4878330000000 1.0
C      1  0.5728550000000  0.5421370000000  0.4470900000000 1.0
C      1  0.5413770000000  0.4359190000000  0.4357960000000 1.0
C      1  0.4834840000000  0.4330430000000  0.5749900000000 1.0
C      1  0.5814040000000  0.5384950000000  0.5578060000000 1.0
C      1  0.4902050000000  0.3963510000000  0.4856620000000 1.0
C      1  0.5567790000000  0.5000370000000  0.5117700000000 1.0
C      1  0.5606230000000  0.5206430000000  0.4237110000000 1.0
C      1  0.4953060000000  0.6054580000000  0.4676440000000 1.0
C      1  0.4138730000000  0.4560520000000  0.5352390000000 1.0
C      1  0.5650780000000  0.5615970000000  0.5598680000000 1.0
C      1  0.4463740000000  0.5413130000000  0.4709530000000 1.0
C      1  0.4087830000000  0.5080900000000  0.4897860000000 1.0
C      1  0.4132680000000  0.5279350000000  0.5602750000000 1.0
C      1  0.4656730000000  0.4353160000000  0.4322950000000 1.0
C      1  0.5688330000000  0.4742820000000  0.5878980000000 1.0
C      1  0.5145460000000  0.4750860000000  0.5036670000000 1.0
C      1  0.5692770000000  0.5815800000000  0.5396160000000 1.0
C      1  0.4936830000000  0.5427000000000  0.5944520000000 1.0
C      1  0.5125740000000  0.4639390000000  0.4017850000000 1.0
C      1  0.5114460000000  0.6086610000000  0.4969240000000 1.0
C      1  0.5117290000000  0.5698550000000  0.5847360000000 1.0
C      1  0.4457360000000  0.5266110000000  0.5261140000000 1.0
C      1  0.5500290000000  0.5308760000000  0.5003020000000 1.0
C      1  0.4622790000000  0.5159210000000  0.5007380000000 1.0
C      1  0.5046700000000  0.5772740000000  0.4195150000000 1.0
C      1  0.5341690000000  0.4956630000000  0.4901480000000 1.0
C      1  0.5083300000000  0.5165780000000  0.6107500000000 1.0
C      1  0.5939320000000  0.4319460000000  0.5108350000000 1.0
C      1  0.4492420000000  0.5714930000000  0.5577430000000 1.0
C      1  0.4587250000000  0.4972040000000  0.4258490000000 1.0
C      1  0.4812160000000  0.4348790000000  0.5352020000000 1.0
C      1  0.5825020000000  0.5693030000000  0.4873870000000 1.0
C      1  0.5790100000000  0.5438720000000  0.5080640000000 1.0
C      1  0.4644500000000  0.6112880000000  0.5257670000000 1.0
C      1  0.4821680000000  0.4531140000000  0.4106620000000 1.0
C      1  0.5183120000000  0.5918290000000  0.5259280000000 1.0
C      1  0.5784480000000  0.4917700000000  0.4576140000000 1.0
C      1  0.5571110000000  0.4879940000000  0.4175490000000 1.0
C      1  0.4836350000000  0.5124800000000  0.4529680000000 1.0
C      1  0.5243600000000  0.5544790000000  0.4036190000000 1.0
C      1  0.4102380000000  0.5147190000000  0.4235910000000 1.0
C      1  0.3977790000000  0.4816900000000  0.4780950000000 1.0
C      1  0.3856700000000  0.5399850000000  0.5023960000000 1.0
C      1  0.4190340000000  0.4951470000000  0.5647260000000 1.0
C      1  0.6021170000000  0.5087280000000  0.4746580000000 1.0
C      1  0.5174810000000  0.4918920000000  0.5402750000000 1.0
C      1  0.4665400000000  0.4717390000000  0.5307440000000 1.0
C      1  0.4815430000000  0.4267860000000  0.4828590000000 1.0
C      1  0.4006770000000  0.5369570000000  0.5328120000000 1.0
C      1  0.5440820000000  0.4620990000000  0.4298150000000 1.0
C      1  0.6070290000000  0.5047900000000  0.5279260000000 1.0
C      1  0.5630610000000  0.4453190000000  0.5867390000000 1.0
C      1  0.5127340000000  0.5356770000000  0.4244840000000 1.0
C      1  0.4163610000000  0.5614970000000  0.5162320000000 1.0
C      1  0.5291200000000  0.4224820000000  0.4947760000000 1.0
C      1  0.4563630000000  0.5056940000000  0.6006410000000 1.0
C      1  0.4275200000000  0.5351630000000  0.4986260000000 1.0
C      1  0.4969010000000  0.4967650000000  0.5658620000000 1.0
C      1  0.4755090000000  0.5700370000000  0.4085780000000 1.0
C      1  0.5291090000000  0.4212320000000  0.4626570000000 1.0
C      1  0.4217700000000  0.5432230000000  0.4374490000000 1.0
C      1  0.4743020000000  0.5897410000000  0.5437170000000 1.0
C      1  0.5414610000000  0.5305200000000  0.3973390000000 1.0
C      1  0.5207300000000  0.4860290000000  0.4340100000000 1.0
C      1  0.4254850000000  0.4645170000000  0.4406090000000 1.0
C      1  0.5352700000000  0.4828190000000  0.3969200000000 1.0
C      1  0.4515280000000  0.4778360000000  0.6035150000000 1.0
C      1  0.5029420000000  0.5597100000000  0.4716420000000 1.0
C      1  0.4391990000000  0.5431260000000  0.5699960000000 1.0
C      1  0.4816240000000  0.4601210000000  0.4500080000000 1.0
C      1  0.6087000000000  0.4577300000000  0.5080440000000 1.0
C      1  0.4453130000000  0.4935330000000  0.5211650000000 1.0
C      1  0.4448660000000  0.4882350000000  0.4557450000000 1.0
C      1  0.4301590000000  0.4078020000000  0.4505830000000 1.0
C      1  0.6051330000000  0.4760500000000  0.4824760000000 1.0
C      1  0.3837800000000  0.5368410000000  0.4779140000000 1.0
C      1  0.4893320000000  0.5042840000000  0.5274370000000 1.0
C      1  0.5852520000000  0.4905790000000  0.5059690000000 1.0
C      1  0.4971150000000  0.5053100000000  0.3814640000000 1.0
C      1  0.5542440000000  0.4647540000000  0.5465230000000 1.0
C      1  0.4855520000000  0.4027190000000  0.5343520000000 1.0
C      1  0.5083000000000  0.4466570000000  0.4853950000000 1.0
C      1  0.5171480000000  0.3844600000000  0.4949190000000 1.0
C      1  0.4376450000000  0.4505270000000  0.4848790000000 1.0
C      1  0.5447990000000  0.4890500000000  0.5960320000000 1.0
C      1  0.4425550000000  0.5260950000000  0.4179770000000 1.0
END
