TITL C-2778432-5617-1198 0.00280480981750429 125000 -640.24905040897 0 0 112 (C1) n - 1
REM
REM in /home/nfs/bkarasulu/CARBON/AIRSS/Generating-Clusters/REBO/Only-C1/SD-CG/HFTN-CG
REM
REM
REM
REM
REM
REM ./C.cell (11c1c37f851c82e70ff6c80c92926a4b)
REM
REM compiler GCC version 9.2.1 20190827 (Red Hat 9.2.1-1)
REM options -cpp -mtune=generic -march=x86-64 -g -O0 -fpre-include=/usr/include/finclude/math-vector-fortran.h
REM seed 1962941131 198349121 737140987 537109019 -809363586 -344758932 308231177 1024907143 -787802565 -1678160995 -1679434005 894672218 -374604984 1387100824 1516961468 1936002361 -289168839 -309555124 1102867491 -607496291 1804042038 -1705557017 -18634082 103041893 1084341361 1041998053 -2004389230 1498779840 -769326705 -1399629062 1593785163 1927026456 -1054039070
REM
CELL 1.54180   50.00000   50.00000   50.00000   90.00000   90.00000   90.00000
LATT -1
SFAC C  
C      1  0.5253690000000  0.4163510000000  0.5263620000000 1.0
C      1  0.4605370000000  0.4316720000000  0.5480940000000 1.0
C      1  0.4517620000000  0.4452680000000  0.4576130000000 1.0
C      1  0.4882030000000  0.4324990000000  0.5617680000000 1.0
C      1  0.4351370000000  0.4750470000000  0.5757660000000 1.0
C      1  0.4854190000000  0.5175280000000  0.4426960000000 1.0
C      1  0.5239260000000  0.4372880000000  0.4333020000000 1.0
C      1  0.5730750000000  0.4879190000000  0.5522240000000 1.0
C      1  0.4933560000000  0.5343310000000  0.4693720000000 1.0
C      1  0.5002110000000  0.4125630000000  0.5122740000000 1.0
C      1  0.4317500000000  0.4579480000000  0.5401800000000 1.0
C      1  0.5772880000000  0.4503750000000  0.5146230000000 1.0
C      1  0.4988890000000  0.4378220000000  0.4415430000000 1.0
C      1  0.4369300000000  0.5260080000000  0.5558360000000 1.0
C      1  0.4497640000000  0.5584230000000  0.4533460000000 1.0
C      1  0.4826100000000  0.5072650000000  0.4112550000000 1.0
C      1  0.5058010000000  0.4201830000000  0.4767470000000 1.0
C      1  0.4347310000000  0.4415190000000  0.5038540000000 1.0
C      1  0.4633560000000  0.4596930000000  0.5034530000000 1.0
C      1  0.5253850000000  0.4878120000000  0.4299870000000 1.0
C      1  0.4475420000000  0.5743460000000  0.5162750000000 1.0
C      1  0.5132600000000  0.5864280000000  0.4806190000000 1.0
C      1  0.5158730000000  0.4782880000000  0.5822300000000 1.0
C      1  0.5399560000000  0.4642610000000  0.4330940000000 1.0
C      1  0.5483730000000  0.4333370000000  0.4930490000000 1.0
C      1  0.5718990000000  0.4789820000000  0.5077460000000 1.0
C      1  0.4266200000000  0.5554910000000  0.5446160000000 1.0
C      1  0.5449200000000  0.4902940000000  0.5244940000000 1.0
C      1  0.5031900000000  0.5541890000000  0.4337950000000 1.0
C      1  0.4590190000000  0.4584760000000  0.5694100000000 1.0
C      1  0.4316540000000  0.4282860000000  0.5320730000000 1.0
C      1  0.5586670000000  0.5551550000000  0.4979950000000 1.0
C      1  0.4127640000000  0.4790510000000  0.5518880000000 1.0
C      1  0.4529620000000  0.4264630000000  0.4838720000000 1.0
C      1  0.5821170000000  0.4340620000000  0.4613380000000 1.0
C      1  0.5336720000000  0.4239000000000  0.4696970000000 1.0
C      1  0.4496750000000  0.5090710000000  0.4578550000000 1.0
C      1  0.5394580000000  0.6169950000000  0.5274040000000 1.0
C      1  0.5129450000000  0.4487660000000  0.5732800000000 1.0
C      1  0.4786570000000  0.4868730000000  0.4926230000000 1.0
C      1  0.5150530000000  0.5329660000000  0.5389820000000 1.0
C      1  0.5466230000000  0.5230150000000  0.5337800000000 1.0
C      1  0.5985330000000  0.5235770000000  0.4719410000000 1.0
C      1  0.5705710000000  0.5181930000000  0.4580840000000 1.0
C      1  0.4957010000000  0.5389530000000  0.4110470000000 1.0
C      1  0.5124160000000  0.5035150000000  0.4529800000000 1.0
C      1  0.5347640000000  0.5570650000000  0.4462070000000 1.0
C      1  0.5069890000000  0.4482320000000  0.5419240000000 1.0
C      1  0.4229240000000  0.4815940000000  0.4690680000000 1.0
C      1  0.4565890000000  0.5347970000000  0.5008300000000 1.0
C      1  0.4112300000000  0.5316290000000  0.5255150000000 1.0
C      1  0.4778580000000  0.4068510000000  0.4872600000000 1.0
C      1  0.5427750000000  0.4319730000000  0.5347650000000 1.0
C      1  0.5522510000000  0.5233630000000  0.4131170000000 1.0
C      1  0.5005590000000  0.5532280000000  0.5234810000000 1.0
C      1  0.4262620000000  0.5267610000000  0.4972900000000 1.0
C      1  0.5170450000000  0.5113670000000  0.5882960000000 1.0
C      1  0.5345860000000  0.5246590000000  0.5655590000000 1.0
C      1  0.5657550000000  0.5438580000000  0.5243770000000 1.0
C      1  0.5514600000000  0.5148920000000  0.3883290000000 1.0
C      1  0.4558820000000  0.5316450000000  0.4329030000000 1.0
C      1  0.4768620000000  0.5882250000000  0.5535450000000 1.0
C      1  0.5459880000000  0.5804370000000  0.4332940000000 1.0
C      1  0.5510100000000  0.5266160000000  0.4914800000000 1.0
C      1  0.4609940000000  0.5267760000000  0.5391900000000 1.0
C      1  0.4140160000000  0.5023170000000  0.5331800000000 1.0
C      1  0.5346760000000  0.5627430000000  0.4782520000000 1.0
C      1  0.4224330000000  0.5113580000000  0.4732960000000 1.0
C      1  0.5413600000000  0.4915940000000  0.5639970000000 1.0
C      1  0.4256840000000  0.4702120000000  0.4951780000000 1.0
C      1  0.5077080000000  0.5494970000000  0.4945740000000 1.0
C      1  0.5548610000000  0.4985510000000  0.4774710000000 1.0
C      1  0.4843550000000  0.4949360000000  0.5420240000000 1.0
C      1  0.4901690000000  0.4459510000000  0.4931250000000 1.0
C      1  0.4338680000000  0.4889630000000  0.5154250000000 1.0
C      1  0.4992770000000  0.5823450000000  0.5370720000000 1.0
C      1  0.4609080000000  0.4873890000000  0.4284920000000 1.0
C      1  0.6033040000000  0.5169330000000  0.5051440000000 1.0
C      1  0.4880710000000  0.5780490000000  0.4746520000000 1.0
C      1  0.5235500000000  0.5243470000000  0.4776020000000 1.0
C      1  0.5993310000000  0.4909220000000  0.4630760000000 1.0
C      1  0.4727200000000  0.4841440000000  0.4603470000000 1.0
C      1  0.4723660000000  0.5085420000000  0.5137290000000 1.0
C      1  0.4823410000000  0.5668180000000  0.4488960000000 1.0
C      1  0.5103590000000  0.4517570000000  0.5154180000000 1.0
C      1  0.4700010000000  0.5549200000000  0.5326460000000 1.0
C      1  0.5562760000000  0.4611980000000  0.5393080000000 1.0
C      1  0.4824070000000  0.4739970000000  0.5759030000000 1.0
C      1  0.4506750000000  0.5757840000000  0.5543450000000 1.0
C      1  0.5199330000000  0.6001570000000  0.5321020000000 1.0
C      1  0.4173150000000  0.5623350000000  0.5121710000000 1.0
C      1  0.4369940000000  0.5653650000000  0.4843030000000 1.0
C      1  0.4674470000000  0.4220430000000  0.5161020000000 1.0
C      1  0.4333750000000  0.5052400000000  0.5739300000000 1.0
C      1  0.5162520000000  0.4987240000000  0.5413130000000 1.0
C      1  0.5530940000000  0.5323880000000  0.4395260000000 1.0
C      1  0.5914270000000  0.5038670000000  0.5367740000000 1.0
C      1  0.5102480000000  0.4914130000000  0.4067990000000 1.0
C      1  0.4909330000000  0.5207330000000  0.5884490000000 1.0
C      1  0.5915250000000  0.4906800000000  0.4927070000000 1.0
C      1  0.5545490000000  0.4363770000000  0.4463720000000 1.0
C      1  0.4749160000000  0.5040340000000  0.5722520000000 1.0
C      1  0.4598410000000  0.4753990000000  0.5320280000000 1.0
C      1  0.5784230000000  0.4332410000000  0.4902110000000 1.0
C      1  0.5359670000000  0.4569630000000  0.5042870000000 1.0
C      1  0.4386020000000  0.4689960000000  0.4467910000000 1.0
C      1  0.5085680000000  0.4874470000000  0.4796310000000 1.0
C      1  0.4634260000000  0.5342990000000  0.4714270000000 1.0
C      1  0.4699880000000  0.5661630000000  0.4943260000000 1.0
C      1  0.4823310000000  0.4520690000000  0.4625250000000 1.0
C      1  0.5350120000000  0.4799400000000  0.4872130000000 1.0
C      1  0.5917160000000  0.5344450000000  0.5287200000000 1.0
END
