TITL C-2778429-3646-708 0.00225826857433805 125000 -87.8503683902159 0 0 17 (C1) n - 1
REM
REM in /home/nfs/bkarasulu/CARBON/AIRSS/Generating-Clusters/REBO/Only-C1/SD-CG/HFTN-CG
REM
REM
REM
REM
REM
REM ./C.cell (11c1c37f851c82e70ff6c80c92926a4b)
REM
REM compiler GCC version 9.2.1 20190827 (Red Hat 9.2.1-1)
REM options -cpp -mtune=generic -march=x86-64 -g -O0 -fpre-include=/usr/include/finclude/math-vector-fortran.h
REM seed -1350723466 -589693297 1989883885 -1720111841 274248674 -19705009 698972980 -109490836 1237029161 2045011419 -742162701 396809934 1209991775 516556301 379484457 1379964142 -2092936330 1572168942 494314839 1574750405 -341001074 -1529623099 2095675566 1556470435 -880247299 -109912787 -1338959615 -1756718743 2016439111 1242367784 1263252234 1055593177 1658147007
REM
CELL 1.54180   50.00000   50.00000   50.00000   90.00000   90.00000   90.00000
LATT -1
SFAC C  
C      1  0.5242560000000  0.5051260000000  0.4632750000000 1.0
C      1  0.4710050000000  0.4897580000000  0.5000860000000 1.0
C      1  0.5418730000000  0.5499690000000  0.4669530000000 1.0
C      1  0.4896340000000  0.5176190000000  0.5059880000000 1.0
C      1  0.5376080000000  0.5014350000000  0.4397790000000 1.0
C      1  0.5134740000000  0.5577020000000  0.5138910000000 1.0
C      1  0.5101300000000  0.4841160000000  0.4751270000000 1.0
C      1  0.5261760000000  0.4594900000000  0.5546380000000 1.0
C      1  0.5253060000000  0.5304100000000  0.4762780000000 1.0
C      1  0.5074830000000  0.4723630000000  0.5415340000000 1.0
C      1  0.4602980000000  0.4760370000000  0.4798610000000 1.0
C      1  0.5091270000000  0.5350910000000  0.4992340000000 1.0
C      1  0.4890160000000  0.4850800000000  0.5285870000000 1.0
C      1  0.4465530000000  0.5203840000000  0.5435070000000 1.0
C      1  0.4976930000000  0.4633660000000  0.4862630000000 1.0
C      1  0.4649140000000  0.5091070000000  0.5277760000000 1.0
C      1  0.4854540000000  0.4429470000000  0.4972210000000 1.0
END
