TITL C-2778434-4341-641 -0.00267312064307426 125000 -348.414618050159 0 0 59 (C1) n - 1
REM
REM in /home/nfs/bkarasulu/CARBON/AIRSS/Generating-Clusters/REBO/Only-C1/SD-CG/HFTN-CG
REM
REM
REM
REM
REM
REM ./C.cell (11c1c37f851c82e70ff6c80c92926a4b)
REM
REM compiler GCC version 9.2.1 20190827 (Red Hat 9.2.1-1)
REM options -cpp -mtune=generic -march=x86-64 -g -O0 -fpre-include=/usr/include/finclude/math-vector-fortran.h
REM seed -1116266221 -776272330 1883924755 1835416834 -1275606381 -2090078506 -916454219 -1585809081 -854311651 2145784370 -76570188 461427654 -1536829333 -528017138 -1144335822 -1420412984 -205408070 -896910196 1886828141 2141935329 -245337195 126071726 1569507847 282842164 1425851775 1603032608 239377526 -442524825 -1537396791 -273675542 394743365 1433253444 -37146279
REM
CELL 1.54180   50.00000   50.00000   50.00000   90.00000   90.00000   90.00000
LATT -1
SFAC C  
C      1  0.5215090000000  0.4369230000000  0.4743690000000 1.0
C      1  0.4948800000000  0.4822940000000  0.5463680000000 1.0
C      1  0.4793390000000  0.4885380000000  0.4782200000000 1.0
C      1  0.4428060000000  0.4839470000000  0.5358800000000 1.0
C      1  0.5017740000000  0.5057470000000  0.4646650000000 1.0
C      1  0.4795320000000  0.5380030000000  0.4276400000000 1.0
C      1  0.4739910000000  0.5463860000000  0.4826260000000 1.0
C      1  0.5193290000000  0.4567550000000  0.4474630000000 1.0
C      1  0.5079190000000  0.4449200000000  0.5485400000000 1.0
C      1  0.5363310000000  0.5712830000000  0.5182990000000 1.0
C      1  0.4573760000000  0.4448140000000  0.4681110000000 1.0
C      1  0.5271920000000  0.4724750000000  0.5420340000000 1.0
C      1  0.4986160000000  0.5123870000000  0.5421550000000 1.0
C      1  0.5448100000000  0.4928960000000  0.4907350000000 1.0
C      1  0.5901980000000  0.4908260000000  0.5380510000000 1.0
C      1  0.5583160000000  0.5272170000000  0.5224220000000 1.0
C      1  0.5261740000000  0.4387860000000  0.5213040000000 1.0
C      1  0.4810690000000  0.4440030000000  0.5293530000000 1.0
C      1  0.4884120000000  0.5627130000000  0.5413550000000 1.0
C      1  0.5243220000000  0.5202200000000  0.5503050000000 1.0
C      1  0.4911500000000  0.4659970000000  0.4384790000000 1.0
C      1  0.5382660000000  0.5418480000000  0.4786470000000 1.0
C      1  0.5669360000000  0.5043730000000  0.5387290000000 1.0
C      1  0.4938630000000  0.4882010000000  0.4206370000000 1.0
C      1  0.5254480000000  0.4863890000000  0.4635580000000 1.0
C      1  0.4629880000000  0.4260990000000  0.4871260000000 1.0
C      1  0.4732730000000  0.5076440000000  0.4190400000000 1.0
C      1  0.4252900000000  0.5000410000000  0.4859430000000 1.0
C      1  0.4711920000000  0.4733520000000  0.5257690000000 1.0
C      1  0.4840770000000  0.5199960000000  0.5187620000000 1.0
C      1  0.4328710000000  0.5083710000000  0.4614290000000 1.0
C      1  0.5367220000000  0.4495970000000  0.4266730000000 1.0
C      1  0.5266860000000  0.5361570000000  0.4523410000000 1.0
C      1  0.4563230000000  0.5190780000000  0.4453150000000 1.0
C      1  0.4813350000000  0.5509910000000  0.5145860000000 1.0
C      1  0.4852710000000  0.5742460000000  0.4900010000000 1.0
C      1  0.5116470000000  0.4270770000000  0.4990580000000 1.0
C      1  0.4794340000000  0.5262380000000  0.4656140000000 1.0
C      1  0.4836120000000  0.4273240000000  0.5062230000000 1.0
C      1  0.4717110000000  0.5530200000000  0.5618910000000 1.0
C      1  0.5413410000000  0.4671610000000  0.5130430000000 1.0
C      1  0.5411080000000  0.4611970000000  0.4803790000000 1.0
C      1  0.5383640000000  0.5456790000000  0.5388350000000 1.0
C      1  0.5026750000000  0.5476950000000  0.4411390000000 1.0
C      1  0.4911850000000  0.4524320000000  0.5994350000000 1.0
C      1  0.4723110000000  0.4672820000000  0.4602450000000 1.0
C      1  0.5498960000000  0.5217110000000  0.4958750000000 1.0
C      1  0.5419540000000  0.4977630000000  0.5518770000000 1.0
C      1  0.4870720000000  0.4600960000000  0.5707970000000 1.0
C      1  0.5154560000000  0.5699850000000  0.5425280000000 1.0
C      1  0.5327860000000  0.5680050000000  0.4904530000000 1.0
C      1  0.4568590000000  0.5307910000000  0.5669270000000 1.0
C      1  0.5207010000000  0.4981730000000  0.4195550000000 1.0
C      1  0.4261540000000  0.4923420000000  0.5117310000000 1.0
C      1  0.4490660000000  0.5050400000000  0.5617350000000 1.0
C      1  0.4598690000000  0.4747090000000  0.5639940000000 1.0
C      1  0.5103430000000  0.5824040000000  0.4804210000000 1.0
C      1  0.4753730000000  0.4962810000000  0.5048960000000 1.0
C      1  0.5354950000000  0.5140800000000  0.4364220000000 1.0
END
