TITL C-2778428-5639-905 0.00545049921182158 125000 -723.543825629242 0 0 124 (C1) n - 1
REM
REM in /home/nfs/bkarasulu/CARBON/AIRSS/Generating-Clusters/REBO/Only-C1/SD-CG/HFTN-CG
REM
REM
REM
REM
REM
REM ./C.cell (11c1c37f851c82e70ff6c80c92926a4b)
REM
REM compiler GCC version 9.2.1 20190827 (Red Hat 9.2.1-1)
REM options -cpp -mtune=generic -march=x86-64 -g -O0 -fpre-include=/usr/include/finclude/math-vector-fortran.h
REM seed -1432130062 -556755778 2061414484 -1066868225 -1081001042 -104813845 -1565295892 -580788122 -243195636 -1958691873 -328610277 -785523278 -1908030849 659640526 -1800205025 -1685085117 467730370 513898301 407296406 1840563295 1466282261 -1856030905 1653308349 1383212935 -1850384274 -1152706578 716981639 754647956 -62827263 1889480010 -956817067 1959977449 -511868558
REM
CELL 1.54180   50.00000   50.00000   50.00000   90.00000   90.00000   90.00000
LATT -1
SFAC C  
C      1  0.5044490000000  0.4643380000000  0.4916690000000 1.0
C      1  0.5422450000000  0.4331970000000  0.5255880000000 1.0
C      1  0.5266490000000  0.4417590000000  0.5650930000000 1.0
C      1  0.4978920000000  0.5544660000000  0.5689230000000 1.0
C      1  0.5012270000000  0.4607020000000  0.5774300000000 1.0
C      1  0.5531740000000  0.4969670000000  0.4340810000000 1.0
C      1  0.5220420000000  0.5405590000000  0.5884590000000 1.0
C      1  0.5218130000000  0.4661400000000  0.4101190000000 1.0
C      1  0.5752360000000  0.5412470000000  0.5498260000000 1.0
C      1  0.5554890000000  0.4867970000000  0.5417190000000 1.0
C      1  0.5344390000000  0.5611800000000  0.4315090000000 1.0
C      1  0.5297640000000  0.5498100000000  0.5252080000000 1.0
C      1  0.5292520000000  0.4058980000000  0.5184520000000 1.0
C      1  0.4116380000000  0.4473900000000  0.4740260000000 1.0
C      1  0.4249750000000  0.4756970000000  0.4607000000000 1.0
C      1  0.4861590000000  0.5132430000000  0.4068150000000 1.0
C      1  0.5474960000000  0.5386330000000  0.5027420000000 1.0
C      1  0.4714100000000  0.5755600000000  0.5000110000000 1.0
C      1  0.4796310000000  0.4736900000000  0.5084250000000 1.0
C      1  0.5731590000000  0.4520130000000  0.4745760000000 1.0
C      1  0.4418570000000  0.5297520000000  0.4950700000000 1.0
C      1  0.4731150000000  0.4454290000000  0.5652180000000 1.0
C      1  0.4982920000000  0.4720960000000  0.4418380000000 1.0
C      1  0.5272780000000  0.5389950000000  0.4135610000000 1.0
C      1  0.4488050000000  0.4632710000000  0.5736940000000 1.0
C      1  0.5829770000000  0.5327860000000  0.5199990000000 1.0
C      1  0.4742900000000  0.4805920000000  0.5836300000000 1.0
C      1  0.4964000000000  0.4346370000000  0.4831710000000 1.0
C      1  0.4763510000000  0.4972620000000  0.4637880000000 1.0
C      1  0.5644550000000  0.4989970000000  0.4589650000000 1.0
C      1  0.5626080000000  0.5756240000000  0.5029440000000 1.0
C      1  0.5131100000000  0.4842380000000  0.4700150000000 1.0
C      1  0.5286620000000  0.4019670000000  0.4896750000000 1.0
C      1  0.4672690000000  0.4294600000000  0.5418360000000 1.0
C      1  0.4857030000000  0.4197100000000  0.5065910000000 1.0
C      1  0.4902010000000  0.5901470000000  0.5181780000000 1.0
C      1  0.4189540000000  0.5207520000000  0.5168660000000 1.0
C      1  0.4292800000000  0.5275920000000  0.4572240000000 1.0
C      1  0.4797450000000  0.4009480000000  0.4695520000000 1.0
C      1  0.5034900000000  0.5061420000000  0.5133600000000 1.0
C      1  0.5022780000000  0.5714470000000  0.5444230000000 1.0
C      1  0.5507360000000  0.5439530000000  0.5730900000000 1.0
C      1  0.4722310000000  0.5132610000000  0.5834750000000 1.0
C      1  0.4568510000000  0.4962520000000  0.5509480000000 1.0
C      1  0.5525040000000  0.5222830000000  0.4731110000000 1.0
C      1  0.5287010000000  0.5310930000000  0.5504960000000 1.0
C      1  0.5785690000000  0.5083810000000  0.5511080000000 1.0
C      1  0.4468160000000  0.5771770000000  0.4573340000000 1.0
C      1  0.4822990000000  0.4301110000000  0.4557560000000 1.0
C      1  0.5785900000000  0.4800980000000  0.4755030000000 1.0
C      1  0.4560860000000  0.4116640000000  0.5145640000000 1.0
C      1  0.5052520000000  0.5668030000000  0.4424080000000 1.0
C      1  0.5683410000000  0.5513410000000  0.4716920000000 1.0
C      1  0.5584920000000  0.4386970000000  0.5541860000000 1.0
C      1  0.4269370000000  0.4693910000000  0.5584170000000 1.0
C      1  0.4977840000000  0.5513110000000  0.5176580000000 1.0
C      1  0.4990350000000  0.5208040000000  0.5632320000000 1.0
C      1  0.5260280000000  0.5105950000000  0.4261110000000 1.0
C      1  0.4506410000000  0.4921350000000  0.5052600000000 1.0
C      1  0.5012180000000  0.5396350000000  0.4605380000000 1.0
C      1  0.5214800000000  0.4237830000000  0.4457680000000 1.0
C      1  0.4987480000000  0.4700020000000  0.5355320000000 1.0
C      1  0.4451720000000  0.5688900000000  0.5155110000000 1.0
C      1  0.4492230000000  0.5524630000000  0.5430370000000 1.0
C      1  0.4281120000000  0.4763970000000  0.5256440000000 1.0
C      1  0.5246600000000  0.5009940000000  0.5395030000000 1.0
C      1  0.4243220000000  0.5580990000000  0.4968100000000 1.0
C      1  0.5511420000000  0.5639610000000  0.5465830000000 1.0
C      1  0.5107470000000  0.5452680000000  0.4893620000000 1.0
C      1  0.4081360000000  0.4703890000000  0.4990500000000 1.0
C      1  0.4637760000000  0.5261330000000  0.4244300000000 1.0
C      1  0.4839440000000  0.5600840000000  0.4197770000000 1.0
C      1  0.5961250000000  0.5021680000000  0.5223820000000 1.0
C      1  0.5593920000000  0.5100740000000  0.5099630000000 1.0
C      1  0.5313410000000  0.5872430000000  0.5434320000000 1.0
C      1  0.5566470000000  0.4671230000000  0.5671100000000 1.0
C      1  0.5742360000000  0.4345050000000  0.5240230000000 1.0
C      1  0.4676670000000  0.5445050000000  0.5705190000000 1.0
C      1  0.5932490000000  0.4882750000000  0.4990550000000 1.0
C      1  0.4703380000000  0.4819610000000  0.4346140000000 1.0
C      1  0.4575770000000  0.4726680000000  0.4711240000000 1.0
C      1  0.5824100000000  0.4381150000000  0.4982410000000 1.0
C      1  0.4240140000000  0.5315690000000  0.5429210000000 1.0
C      1  0.5299120000000  0.4348730000000  0.4829800000000 1.0
C      1  0.5321150000000  0.4574150000000  0.5074670000000 1.0
C      1  0.4594300000000  0.4680010000000  0.5354470000000 1.0
C      1  0.5016080000000  0.4442570000000  0.4369800000000 1.0
C      1  0.4971790000000  0.5903340000000  0.4599210000000 1.0
C      1  0.5074320000000  0.4437910000000  0.5419250000000 1.0
C      1  0.5320950000000  0.5109460000000  0.5854070000000 1.0
C      1  0.4711260000000  0.5859390000000  0.4703800000000 1.0
C      1  0.5351980000000  0.5665250000000  0.4879420000000 1.0
C      1  0.4687020000000  0.5460350000000  0.4828340000000 1.0
C      1  0.5391220000000  0.4546900000000  0.4279570000000 1.0
C      1  0.5222530000000  0.5131420000000  0.4856960000000 1.0
C      1  0.5485710000000  0.4411310000000  0.4573570000000 1.0
C      1  0.4710490000000  0.5394250000000  0.5233470000000 1.0
C      1  0.5606220000000  0.4989790000000  0.5787230000000 1.0
C      1  0.4323920000000  0.5024380000000  0.4792670000000 1.0
C      1  0.4387190000000  0.5151300000000  0.4323960000000 1.0
C      1  0.5044210000000  0.4193690000000  0.5275050000000 1.0
C      1  0.5079660000000  0.4913300000000  0.4082480000000 1.0
C      1  0.5834870000000  0.5555190000000  0.4993270000000 1.0
C      1  0.4713880000000  0.5469850000000  0.4488030000000 1.0
C      1  0.4713890000000  0.5091830000000  0.5242150000000 1.0
C      1  0.5259990000000  0.4821230000000  0.5681190000000 1.0
C      1  0.4501950000000  0.4440630000000  0.5160630000000 1.0
C      1  0.4022600000000  0.5010530000000  0.5079550000000 1.0
C      1  0.4989430000000  0.5405560000000  0.4038770000000 1.0
C      1  0.4554170000000  0.4430510000000  0.4576070000000 1.0
C      1  0.4531950000000  0.4040050000000  0.4835600000000 1.0
C      1  0.5486330000000  0.4819360000000  0.5109370000000 1.0
C      1  0.4410470000000  0.4862580000000  0.4342110000000 1.0
C      1  0.4831620000000  0.5165610000000  0.4876550000000 1.0
C      1  0.5051180000000  0.5105950000000  0.4500030000000 1.0
C      1  0.5247110000000  0.5973420000000  0.4651330000000 1.0
C      1  0.4358080000000  0.4238380000000  0.4697600000000 1.0
C      1  0.5476060000000  0.5733110000000  0.4575760000000 1.0
C      1  0.4384790000000  0.4562460000000  0.4927690000000 1.0
C      1  0.4437310000000  0.5204360000000  0.5660540000000 1.0
C      1  0.4301170000000  0.5551320000000  0.4665700000000 1.0
C      1  0.5113740000000  0.4027830000000  0.4643700000000 1.0
C      1  0.5158120000000  0.6030830000000  0.5243170000000 1.0
C      1  0.4893880000000  0.4914070000000  0.5550890000000 1.0
END
