TITL C-2778435-5768-720 -0.00425914676949103 125000 -939.685181310932 0 0 161 (C1) n - 1
REM
REM in /home/nfs/bkarasulu/CARBON/AIRSS/Generating-Clusters/REBO/Only-C1/SD-CG/HFTN-CG
REM
REM
REM
REM
REM
REM ./C.cell (11c1c37f851c82e70ff6c80c92926a4b)
REM
REM compiler GCC version 9.2.1 20190827 (Red Hat 9.2.1-1)
REM options -cpp -mtune=generic -march=x86-64 -g -O0 -fpre-include=/usr/include/finclude/math-vector-fortran.h
REM seed -691472253 -2120548353 1724277994 -2033376086 -1445895692 -755693178 -1311854280 -1509367699 -1480095559 -596119202 694621574 1151566949 1785848112 33667384 -81519929 -295455836 461454905 2106296422 1660186096 -403726292 -1857648064 391811921 1304458958 409079730 1201133531 -280078464 522325058 -963544611 -665556809 -2136513432 -960687943 -1035555667 -1817235894
REM
CELL 1.54180   50.00000   50.00000   50.00000   90.00000   90.00000   90.00000
LATT -1
SFAC C  
C      1  0.5266010000000  0.4025100000000  0.5144760000000 1.0
C      1  0.5012740000000  0.5546010000000  0.4306200000000 1.0
C      1  0.4240200000000  0.5563270000000  0.5172510000000 1.0
C      1  0.5535970000000  0.5515010000000  0.4380120000000 1.0
C      1  0.5255920000000  0.4304650000000  0.4310030000000 1.0
C      1  0.5012630000000  0.4108830000000  0.5228210000000 1.0
C      1  0.5507660000000  0.5322290000000  0.5697520000000 1.0
C      1  0.4646570000000  0.5945300000000  0.4927350000000 1.0
C      1  0.5609640000000  0.4483280000000  0.5693280000000 1.0
C      1  0.6027440000000  0.5509820000000  0.5178320000000 1.0
C      1  0.4941550000000  0.6071240000000  0.5043590000000 1.0
C      1  0.4635380000000  0.5562270000000  0.4738590000000 1.0
C      1  0.4832010000000  0.4944260000000  0.5101610000000 1.0
C      1  0.5586320000000  0.4174090000000  0.4961110000000 1.0
C      1  0.4679150000000  0.5200340000000  0.5014670000000 1.0
C      1  0.5538360000000  0.5988040000000  0.4977880000000 1.0
C      1  0.5171720000000  0.4549030000000  0.4992290000000 1.0
C      1  0.4859340000000  0.5536890000000  0.4004280000000 1.0
C      1  0.4385090000000  0.4295030000000  0.4450300000000 1.0
C      1  0.5581810000000  0.4717160000000  0.3844870000000 1.0
C      1  0.5176810000000  0.4617260000000  0.6012140000000 1.0
C      1  0.5210020000000  0.5017910000000  0.5956900000000 1.0
C      1  0.5046000000000  0.5320700000000  0.5496360000000 1.0
C      1  0.5658630000000  0.5231530000000  0.5056930000000 1.0
C      1  0.4660230000000  0.4108900000000  0.4532100000000 1.0
C      1  0.5634520000000  0.5742090000000  0.4810580000000 1.0
C      1  0.4953950000000  0.4197910000000  0.4426450000000 1.0
C      1  0.4984390000000  0.5622320000000  0.5435460000000 1.0
C      1  0.5303940000000  0.5564630000000  0.5707060000000 1.0
C      1  0.5400900000000  0.4839280000000  0.5508580000000 1.0
C      1  0.4816440000000  0.4747280000000  0.4367030000000 1.0
C      1  0.4122800000000  0.4819540000000  0.5586890000000 1.0
C      1  0.4363390000000  0.4992460000000  0.4392420000000 1.0
C      1  0.4236900000000  0.5011750000000  0.5768660000000 1.0
C      1  0.5181320000000  0.5643380000000  0.4033510000000 1.0
C      1  0.4441330000000  0.4891530000000  0.5927230000000 1.0
C      1  0.4372720000000  0.4846420000000  0.5113040000000 1.0
C      1  0.4790740000000  0.4482360000000  0.4903810000000 1.0
C      1  0.4548370000000  0.4870480000000  0.3912150000000 1.0
C      1  0.5158230000000  0.5702920000000  0.4756330000000 1.0
C      1  0.5633090000000  0.4834410000000  0.4784600000000 1.0
C      1  0.4749350000000  0.4879180000000  0.6023830000000 1.0
C      1  0.5775950000000  0.4851440000000  0.5078230000000 1.0
C      1  0.5224710000000  0.5882780000000  0.4479680000000 1.0
C      1  0.4666920000000  0.4903700000000  0.5376890000000 1.0
C      1  0.5095320000000  0.5253370000000  0.5082440000000 1.0
C      1  0.3936200000000  0.4964390000000  0.4759290000000 1.0
C      1  0.3899770000000  0.4818790000000  0.5008940000000 1.0
C      1  0.5813510000000  0.4585080000000  0.5445640000000 1.0
C      1  0.5293490000000  0.5084500000000  0.4779190000000 1.0
C      1  0.4387760000000  0.5076990000000  0.5360160000000 1.0
C      1  0.4526290000000  0.4105090000000  0.5156920000000 1.0
C      1  0.4236970000000  0.5087210000000  0.4991420000000 1.0
C      1  0.5232250000000  0.4773080000000  0.4327740000000 1.0
C      1  0.5425500000000  0.4486260000000  0.5151590000000 1.0
C      1  0.5089240000000  0.4715850000000  0.5496860000000 1.0
C      1  0.4237980000000  0.4511030000000  0.4390970000000 1.0
C      1  0.4362830000000  0.4091560000000  0.4691010000000 1.0
C      1  0.5784650000000  0.6046590000000  0.5161030000000 1.0
C      1  0.4825810000000  0.5902890000000  0.5314610000000 1.0
C      1  0.5489610000000  0.5231400000000  0.4293850000000 1.0
C      1  0.4994080000000  0.4404500000000  0.5397710000000 1.0
C      1  0.5148750000000  0.5341140000000  0.4469430000000 1.0
C      1  0.4561250000000  0.4600240000000  0.5814900000000 1.0
C      1  0.5760360000000  0.4466380000000  0.5181900000000 1.0
C      1  0.5908860000000  0.5093630000000  0.5241280000000 1.0
C      1  0.5990820000000  0.4692700000000  0.4878100000000 1.0
C      1  0.4598420000000  0.4059020000000  0.5547580000000 1.0
C      1  0.5558360000000  0.5575650000000  0.5281240000000 1.0
C      1  0.4095150000000  0.5200340000000  0.5238250000000 1.0
C      1  0.4749980000000  0.5353790000000  0.4532210000000 1.0
C      1  0.4918040000000  0.5214640000000  0.4793930000000 1.0
C      1  0.4008070000000  0.4823110000000  0.5305000000000 1.0
C      1  0.4627830000000  0.4628630000000  0.5484680000000 1.0
C      1  0.5383160000000  0.5404860000000  0.5071370000000 1.0
C      1  0.5258620000000  0.5419330000000  0.4758430000000 1.0
C      1  0.5796020000000  0.5294670000000  0.4759030000000 1.0
C      1  0.4190250000000  0.5683150000000  0.4795800000000 1.0
C      1  0.4260350000000  0.5614970000000  0.4540490000000 1.0
C      1  0.4884530000000  0.4985050000000  0.4583160000000 1.0
C      1  0.5792430000000  0.5710370000000  0.5109310000000 1.0
C      1  0.5507920000000  0.4769540000000  0.5237420000000 1.0
C      1  0.4135770000000  0.4801380000000  0.4536980000000 1.0
C      1  0.4246170000000  0.4593400000000  0.4779110000000 1.0
C      1  0.4677370000000  0.5534420000000  0.5346290000000 1.0
C      1  0.4845960000000  0.5087600000000  0.5571360000000 1.0
C      1  0.4849220000000  0.5470410000000  0.5092550000000 1.0
C      1  0.5191760000000  0.5066260000000  0.4295080000000 1.0
C      1  0.5489400000000  0.4195320000000  0.5287020000000 1.0
C      1  0.5061220000000  0.6027150000000  0.4745540000000 1.0
C      1  0.4941660000000  0.4513290000000  0.4449230000000 1.0
C      1  0.5729770000000  0.4525430000000  0.4551680000000 1.0
C      1  0.5474130000000  0.5052500000000  0.5859400000000 1.0
C      1  0.5406100000000  0.4584110000000  0.5931480000000 1.0
C      1  0.4849000000000  0.4557090000000  0.5977830000000 1.0
C      1  0.5352530000000  0.3945740000000  0.4853950000000 1.0
C      1  0.5053110000000  0.5541310000000  0.5833120000000 1.0
C      1  0.4597610000000  0.5282710000000  0.5484280000000 1.0
C      1  0.5280150000000  0.6044930000000  0.5074570000000 1.0
C      1  0.5385010000000  0.4321540000000  0.4743450000000 1.0
C      1  0.4189840000000  0.5408350000000  0.5462870000000 1.0
C      1  0.5877370000000  0.4887880000000  0.5479170000000 1.0
C      1  0.5003930000000  0.4286290000000  0.5872830000000 1.0
C      1  0.4659600000000  0.5874550000000  0.4614790000000 1.0
C      1  0.5143740000000  0.4559660000000  0.3852340000000 1.0
C      1  0.5242260000000  0.4072190000000  0.4558110000000 1.0
C      1  0.5644780000000  0.4821350000000  0.5718140000000 1.0
C      1  0.4840330000000  0.5376230000000  0.5930030000000 1.0
C      1  0.4465300000000  0.4550820000000  0.5114830000000 1.0
C      1  0.4858530000000  0.5136850000000  0.4288350000000 1.0
C      1  0.4972870000000  0.4869880000000  0.5762760000000 1.0
C      1  0.4580640000000  0.4918170000000  0.4649900000000 1.0
C      1  0.5851990000000  0.4829170000000  0.4525650000000 1.0
C      1  0.5367710000000  0.5722770000000  0.5475510000000 1.0
C      1  0.5505370000000  0.4526260000000  0.4333480000000 1.0
C      1  0.5990000000000  0.5428960000000  0.5443560000000 1.0
C      1  0.5150100000000  0.4689490000000  0.4620520000000 1.0
C      1  0.4935470000000  0.5135300000000  0.6055260000000 1.0
C      1  0.4394790000000  0.5188730000000  0.4733890000000 1.0
C      1  0.5802770000000  0.4410760000000  0.4848090000000 1.0
C      1  0.5106050000000  0.4986530000000  0.5285130000000 1.0
C      1  0.4081270000000  0.4573810000000  0.5006460000000 1.0
C      1  0.4727810000000  0.4388900000000  0.5211400000000 1.0
C      1  0.4321910000000  0.4073410000000  0.4965840000000 1.0
C      1  0.4521830000000  0.5812920000000  0.5302830000000 1.0
C      1  0.5433790000000  0.4255170000000  0.5579950000000 1.0
C      1  0.4621760000000  0.5452360000000  0.4234030000000 1.0
C      1  0.4367380000000  0.5331000000000  0.4425110000000 1.0
C      1  0.5422330000000  0.4634290000000  0.4781090000000 1.0
C      1  0.5725090000000  0.5421860000000  0.5510440000000 1.0
C      1  0.4025600000000  0.5468810000000  0.4925740000000 1.0
C      1  0.4848150000000  0.4090020000000  0.4793420000000 1.0
C      1  0.4276900000000  0.5297920000000  0.5718230000000 1.0
C      1  0.5369640000000  0.5719160000000  0.4272300000000 1.0
C      1  0.4607470000000  0.4926710000000  0.4201510000000 1.0
C      1  0.4913560000000  0.6015480000000  0.4440030000000 1.0
C      1  0.3928790000000  0.5245070000000  0.4791720000000 1.0
C      1  0.4446770000000  0.5425500000000  0.4961060000000 1.0
C      1  0.4204670000000  0.4543010000000  0.5311660000000 1.0
C      1  0.5150800000000  0.4276390000000  0.5642420000000 1.0
C      1  0.5507760000000  0.5027890000000  0.4555970000000 1.0
C      1  0.5359660000000  0.4641270000000  0.3701790000000 1.0
C      1  0.6048790000000  0.5263790000000  0.4982500000000 1.0
C      1  0.4364880000000  0.5844960000000  0.5024850000000 1.0
C      1  0.4530400000000  0.4308110000000  0.5549110000000 1.0
C      1  0.5666120000000  0.5535770000000  0.4629820000000 1.0
C      1  0.4577570000000  0.5367890000000  0.5804940000000 1.0
C      1  0.5412990000000  0.5013050000000  0.5063240000000 1.0
C      1  0.4547900000000  0.4664660000000  0.4801640000000 1.0
C      1  0.5699250000000  0.4969040000000  0.4278270000000 1.0
C      1  0.5048130000000  0.4326840000000  0.4792960000000 1.0
C      1  0.5075010000000  0.4856000000000  0.4908480000000 1.0
C      1  0.5312560000000  0.5152880000000  0.5508930000000 1.0
C      1  0.4285920000000  0.4531760000000  0.5624650000000 1.0
C      1  0.5989360000000  0.5013050000000  0.4759250000000 1.0
C      1  0.5168390000000  0.4549590000000  0.4121780000000 1.0
C      1  0.5159550000000  0.5895610000000  0.5327940000000 1.0
C      1  0.5601490000000  0.4730900000000  0.4114550000000 1.0
C      1  0.4797400000000  0.4024700000000  0.5064010000000 1.0
C      1  0.4882910000000  0.5704390000000  0.4899040000000 1.0
C      1  0.4751430000000  0.5747450000000  0.4325640000000 1.0
END
