TITL C-2778432-5617-1193 0.263500193031307 125000 -857.279776173564 0 0 146 (C1) n - 1
REM
REM in /home/nfs/bkarasulu/CARBON/AIRSS/Generating-Clusters/REBO/Only-C1/SD-CG/HFTN-CG
REM
REM
REM
REM
REM
REM ./C.cell (11c1c37f851c82e70ff6c80c92926a4b)
REM
REM compiler GCC version 9.2.1 20190827 (Red Hat 9.2.1-1)
REM options -cpp -mtune=generic -march=x86-64 -g -O0 -fpre-include=/usr/include/finclude/math-vector-fortran.h
REM seed 628195118 -2098179083 -2124232289 1575579941 368480146 -745339927 -1994177272 -771795510 -370870199 101696982 -1733360989 -204908810 713722296 2078669386 -330348012 2043804889 -1433626888 970334303 -922907179 -1695047460 -997649255 -1600798132 -2111226671 409947848 -2118596846 -1643902094 -1227121333 -356347647 4945660 -1261888814 -187350872 -477255550 1578871966
REM
CELL 1.54180   50.00000   50.00000   50.00000   90.00000   90.00000   90.00000
LATT -1
SFAC C  
C      1  0.5150030000000  0.5500000000000  0.5234370000000 1.0
C      1  0.4979490000000  0.4604160000000  0.4022810000000 1.0
C      1  0.5799360000000  0.5546350000000  0.5290310000000 1.0
C      1  0.5683520000000  0.5113340000000  0.4206140000000 1.0
C      1  0.4618310000000  0.4987900000000  0.5479570000000 1.0
C      1  0.4496130000000  0.4850110000000  0.6167840000000 1.0
C      1  0.5172700000000  0.4226370000000  0.4393250000000 1.0
C      1  0.5034850000000  0.5249650000000  0.5067310000000 1.0
C      1  0.5672970000000  0.4722260000000  0.4288650000000 1.0
C      1  0.6032760000000  0.4734170000000  0.4792850000000 1.0
C      1  0.5180470000000  0.5787760000000  0.4276600000000 1.0
C      1  0.5055350000000  0.5858130000000  0.4578920000000 1.0
C      1  0.5294770000000  0.5742020000000  0.5074420000000 1.0
C      1  0.4738610000000  0.5475280000000  0.5299740000000 1.0
C      1  0.5052600000000  0.5152220000000  0.3881880000000 1.0
C      1  0.4900470000000  0.5995480000000  0.4837710000000 1.0
C      1  0.4550090000000  0.5384250000000  0.4819370000000 1.0
C      1  0.5288020000000  0.4693600000000  0.4385910000000 1.0
C      1  0.5627920000000  0.5144290000000  0.5705120000000 1.0
C      1  0.4156130000000  0.5635100000000  0.5156520000000 1.0
C      1  0.4595590000000  0.6004520000000  0.4946200000000 1.0
C      1  0.4998510000000  0.5553070000000  0.5793600000000 1.0
C      1  0.6008310000000  0.4921570000000  0.4573340000000 1.0
C      1  0.3785960000000  0.5271240000000  0.4717160000000 1.0
C      1  0.5798950000000  0.4929620000000  0.5673630000000 1.0
C      1  0.4342860000000  0.4777640000000  0.5901070000000 1.0
C      1  0.5887540000000  0.5294020000000  0.4884810000000 1.0
C      1  0.4367370000000  0.5779770000000  0.4991700000000 1.0
C      1  0.4037980000000  0.4820260000000  0.4982410000000 1.0
C      1  0.4637370000000  0.5825200000000  0.5529100000000 1.0
C      1  0.5662200000000  0.4628380000000  0.5079990000000 1.0
C      1  0.4565420000000  0.4590910000000  0.4782570000000 1.0
C      1  0.5439140000000  0.5394970000000  0.4496210000000 1.0
C      1  0.4674950000000  0.4025930000000  0.5493680000000 1.0
C      1  0.4575000000000  0.4976000000000  0.3903070000000 1.0
C      1  0.4474120000000  0.4514380000000  0.5793720000000 1.0
C      1  0.5620520000000  0.4752270000000  0.4783720000000 1.0
C      1  0.4939180000000  0.4277080000000  0.4994650000000 1.0
C      1  0.4649770000000  0.5612240000000  0.5002040000000 1.0
C      1  0.4151970000000  0.4208520000000  0.4235260000000 1.0
C      1  0.5492500000000  0.5303860000000  0.5184190000000 1.0
C      1  0.6001690000000  0.4838840000000  0.5059020000000 1.0
C      1  0.5925340000000  0.4447840000000  0.5069870000000 1.0
C      1  0.5707990000000  0.5271850000000  0.4431020000000 1.0
C      1  0.5425980000000  0.4925140000000  0.4201230000000 1.0
C      1  0.4560270000000  0.5107420000000  0.4981430000000 1.0
C      1  0.5173980000000  0.5275930000000  0.4096760000000 1.0
C      1  0.4400940000000  0.4423860000000  0.5534410000000 1.0
C      1  0.4889170000000  0.4807320000000  0.5556550000000 1.0
C      1  0.4534420000000  0.5136830000000  0.6165920000000 1.0
C      1  0.4260500000000  0.4636810000000  0.5370810000000 1.0
C      1  0.4418200000000  0.5505610000000  0.4419410000000 1.0
C      1  0.5544980000000  0.4626770000000  0.5384990000000 1.0
C      1  0.4192230000000  0.4850740000000  0.4714850000000 1.0
C      1  0.4523710000000  0.5240760000000  0.5897610000000 1.0
C      1  0.4020460000000  0.5046670000000  0.5181800000000 1.0
C      1  0.5470240000000  0.5618940000000  0.4825000000000 1.0
C      1  0.5152580000000  0.4409310000000  0.4767650000000 1.0
C      1  0.4867070000000  0.4902540000000  0.3957250000000 1.0
C      1  0.4695630000000  0.4650200000000  0.6008580000000 1.0
C      1  0.5430810000000  0.4008030000000  0.5102290000000 1.0
C      1  0.4505910000000  0.4207590000000  0.5380860000000 1.0
C      1  0.4641530000000  0.5939080000000  0.5231880000000 1.0
C      1  0.4196360000000  0.4335750000000  0.4994590000000 1.0
C      1  0.4385790000000  0.5023310000000  0.5707240000000 1.0
C      1  0.4461380000000  0.5152230000000  0.4091820000000 1.0
C      1  0.5359160000000  0.5712300000000  0.4557760000000 1.0
C      1  0.5205920000000  0.4588040000000  0.5834360000000 1.0
C      1  0.5788030000000  0.5052040000000  0.5096930000000 1.0
C      1  0.5218800000000  0.4091810000000  0.4782620000000 1.0
C      1  0.5206110000000  0.5326110000000  0.5915590000000 1.0
C      1  0.4973200000000  0.5825980000000  0.5593750000000 1.0
C      1  0.5861100000000  0.5276770000000  0.5333390000000 1.0
C      1  0.4782020000000  0.4766010000000  0.5110460000000 1.0
C      1  0.4395280000000  0.5317090000000  0.5181800000000 1.0
C      1  0.5475130000000  0.4911870000000  0.5116540000000 1.0
C      1  0.5483300000000  0.5370010000000  0.5856260000000 1.0
C      1  0.4044980000000  0.4148320000000  0.4003720000000 1.0
C      1  0.5213100000000  0.5191030000000  0.4626000000000 1.0
C      1  0.5821670000000  0.4708920000000  0.5500170000000 1.0
C      1  0.4438990000000  0.5614620000000  0.5347090000000 1.0
C      1  0.4237080000000  0.5322420000000  0.4887560000000 1.0
C      1  0.5519570000000  0.5604880000000  0.5681600000000 1.0
C      1  0.4831600000000  0.4589120000000  0.4618230000000 1.0
C      1  0.4198940000000  0.5248360000000  0.5437210000000 1.0
C      1  0.5344070000000  0.4882710000000  0.5426980000000 1.0
C      1  0.4003930000000  0.5386830000000  0.5203800000000 1.0
C      1  0.4965990000000  0.4515400000000  0.5456430000000 1.0
C      1  0.4250730000000  0.5089030000000  0.4287330000000 1.0
C      1  0.4325670000000  0.4876310000000  0.4464190000000 1.0
C      1  0.5215690000000  0.5979190000000  0.5406170000000 1.0
C      1  0.5295990000000  0.4865150000000  0.5748570000000 1.0
C      1  0.4976190000000  0.4978850000000  0.5267980000000 1.0
C      1  0.5913230000000  0.5196320000000  0.4617210000000 1.0
C      1  0.4624550000000  0.4802920000000  0.4450570000000 1.0
C      1  0.5491520000000  0.5315680000000  0.4913520000000 1.0
C      1  0.5125570000000  0.5135380000000  0.5508590000000 1.0
C      1  0.4807850000000  0.5257180000000  0.5496710000000 1.0
C      1  0.4899820000000  0.4902750000000  0.4276700000000 1.0
C      1  0.4177170000000  0.5338060000000  0.4429850000000 1.0
C      1  0.4868830000000  0.4985080000000  0.4605220000000 1.0
C      1  0.5514760000000  0.4134720000000  0.5337450000000 1.0
C      1  0.6016020000000  0.4651930000000  0.5296170000000 1.0
C      1  0.4622050000000  0.5363140000000  0.4219110000000 1.0
C      1  0.5124630000000  0.5063630000000  0.5903180000000 1.0
C      1  0.4930250000000  0.4784100000000  0.5879060000000 1.0
C      1  0.4432790000000  0.4826000000000  0.4926860000000 1.0
C      1  0.4883030000000  0.4491340000000  0.5191210000000 1.0
C      1  0.5669450000000  0.5722920000000  0.5478090000000 1.0
C      1  0.5116130000000  0.4000050000000  0.5070670000000 1.0
C      1  0.5182390000000  0.4408720000000  0.5611430000000 1.0
C      1  0.5270180000000  0.4933760000000  0.4842670000000 1.0
C      1  0.4985740000000  0.5362290000000  0.4748640000000 1.0
C      1  0.5930010000000  0.4808590000000  0.4322020000000 1.0
C      1  0.5548850000000  0.4576960000000  0.4545100000000 1.0
C      1  0.5426790000000  0.4364870000000  0.5469990000000 1.0
C      1  0.4382140000000  0.4338020000000  0.4733340000000 1.0
C      1  0.5280060000000  0.5503370000000  0.4227990000000 1.0
C      1  0.5504860000000  0.5957030000000  0.5374850000000 1.0
C      1  0.5781020000000  0.4262570000000  0.4647800000000 1.0
C      1  0.5224440000000  0.5517800000000  0.5565720000000 1.0
C      1  0.5088980000000  0.5991030000000  0.5089120000000 1.0
C      1  0.4852780000000  0.5017050000000  0.4895100000000 1.0
C      1  0.4102780000000  0.4568310000000  0.5116790000000 1.0
C      1  0.5462050000000  0.4267010000000  0.4526100000000 1.0
C      1  0.4450530000000  0.4199840000000  0.5099380000000 1.0
C      1  0.4902950000000  0.4257020000000  0.4598240000000 1.0
C      1  0.5780090000000  0.5585970000000  0.4966770000000 1.0
C      1  0.4924570000000  0.5748400000000  0.5263970000000 1.0
C      1  0.4488320000000  0.4820320000000  0.5248570000000 1.0
C      1  0.5421870000000  0.5269980000000  0.5475190000000 1.0
C      1  0.5967190000000  0.4428790000000  0.4771840000000 1.0
C      1  0.4669500000000  0.4194810000000  0.4838620000000 1.0
C      1  0.4170990000000  0.4927730000000  0.5466470000000 1.0
C      1  0.4713060000000  0.5388740000000  0.4546690000000 1.0
C      1  0.5157230000000  0.3967790000000  0.4230400000000 1.0
C      1  0.5163180000000  0.5068740000000  0.4334970000000 1.0
C      1  0.5565290000000  0.5068430000000  0.4764020000000 1.0
C      1  0.4259720000000  0.4269140000000  0.4468420000000 1.0
C      1  0.4051910000000  0.5314300000000  0.4687040000000 1.0
C      1  0.5616540000000  0.5848870000000  0.5103350000000 1.0
C      1  0.4737780000000  0.5378060000000  0.5777150000000 1.0
C      1  0.5133700000000  0.4491200000000  0.4220680000000 1.0
C      1  0.5147450000000  0.4706570000000  0.4673390000000 1.0
C      1  0.5547800000000  0.4061870000000  0.4787280000000 1.0
C      1  0.4880460000000  0.5662430000000  0.4783970000000 1.0
END
