TITL C-2778433-5640-1330 0.00333951146433741 125000 -723.4816527502 0 0 125 (C1) n - 1
REM
REM in /home/nfs/bkarasulu/CARBON/AIRSS/Generating-Clusters/REBO/Only-C1/SD-CG/HFTN-CG
REM
REM
REM
REM
REM
REM ./C.cell (11c1c37f851c82e70ff6c80c92926a4b)
REM
REM compiler GCC version 9.2.1 20190827 (Red Hat 9.2.1-1)
REM options -cpp -mtune=generic -march=x86-64 -g -O0 -fpre-include=/usr/include/finclude/math-vector-fortran.h
REM seed 46877063 2104333852 -8304165 -2123557779 -289124408 -2110840060 -1668983682 86225002 578628745 744052141 680269769 168158167 1910439215 -876009933 8734718 487828243 -1432767550 2497806 -482405160 710948748 489557467 -1633331598 -803043162 1798770084 -1971526772 302645295 557832661 107255172 -1197103189 1637643774 -1488571610 6070096 934578971
REM
CELL 1.54180   50.00000   50.00000   50.00000   90.00000   90.00000   90.00000
LATT -1
SFAC C  
C      1  0.5542300000000  0.5620020000000  0.5378260000000 1.0
C      1  0.5413520000000  0.4615470000000  0.4999380000000 1.0
C      1  0.4976690000000  0.4451830000000  0.5705930000000 1.0
C      1  0.5398160000000  0.5195570000000  0.5190100000000 1.0
C      1  0.5251960000000  0.5841560000000  0.5075980000000 1.0
C      1  0.4428680000000  0.5533220000000  0.5334720000000 1.0
C      1  0.5934740000000  0.4681070000000  0.4899050000000 1.0
C      1  0.4878470000000  0.5273050000000  0.4362360000000 1.0
C      1  0.5027440000000  0.5167770000000  0.5594590000000 1.0
C      1  0.4570020000000  0.4997690000000  0.4545050000000 1.0
C      1  0.5793100000000  0.5492720000000  0.5569030000000 1.0
C      1  0.4585380000000  0.4902080000000  0.5152450000000 1.0
C      1  0.5172450000000  0.5249050000000  0.4764070000000 1.0
C      1  0.5578850000000  0.5464850000000  0.5087910000000 1.0
C      1  0.4315190000000  0.4932390000000  0.4319710000000 1.0
C      1  0.4293650000000  0.4516620000000  0.4729870000000 1.0
C      1  0.4840630000000  0.5624440000000  0.4711320000000 1.0
C      1  0.5284100000000  0.4316680000000  0.5652150000000 1.0
C      1  0.4522810000000  0.5295250000000  0.5796370000000 1.0
C      1  0.5598640000000  0.4818860000000  0.5200370000000 1.0
C      1  0.4998430000000  0.4552720000000  0.4336980000000 1.0
C      1  0.4382130000000  0.5118900000000  0.5079210000000 1.0
C      1  0.4844450000000  0.4602340000000  0.4906510000000 1.0
C      1  0.5486860000000  0.5094040000000  0.5459460000000 1.0
C      1  0.4860800000000  0.5288890000000  0.5111120000000 1.0
C      1  0.5005000000000  0.4192530000000  0.4680970000000 1.0
C      1  0.5209730000000  0.5414710000000  0.5460980000000 1.0
C      1  0.5427960000000  0.5676460000000  0.4910870000000 1.0
C      1  0.4142000000000  0.4811740000000  0.5166890000000 1.0
C      1  0.4156520000000  0.4363950000000  0.5073000000000 1.0
C      1  0.4444110000000  0.4658460000000  0.5718600000000 1.0
C      1  0.5829730000000  0.4515290000000  0.5320360000000 1.0
C      1  0.5075930000000  0.5619900000000  0.4474180000000 1.0
C      1  0.5498400000000  0.4664920000000  0.4200590000000 1.0
C      1  0.4876120000000  0.4981140000000  0.6011920000000 1.0
C      1  0.5027880000000  0.4824690000000  0.5292040000000 1.0
C      1  0.4990600000000  0.4900240000000  0.4825580000000 1.0
C      1  0.4474300000000  0.5453260000000  0.4280520000000 1.0
C      1  0.5334260000000  0.4732070000000  0.5372780000000 1.0
C      1  0.5370480000000  0.4852710000000  0.4454900000000 1.0
C      1  0.5618670000000  0.5052990000000  0.4215060000000 1.0
C      1  0.4961330000000  0.5743610000000  0.4985910000000 1.0
C      1  0.4841250000000  0.4993540000000  0.5183570000000 1.0
C      1  0.4482980000000  0.5602010000000  0.5074140000000 1.0
C      1  0.4780580000000  0.5842820000000  0.5426530000000 1.0
C      1  0.5284780000000  0.5796730000000  0.5366340000000 1.0
C      1  0.4593280000000  0.4906550000000  0.5835800000000 1.0
C      1  0.5553220000000  0.4978220000000  0.4684750000000 1.0
C      1  0.4655240000000  0.4422330000000  0.5674260000000 1.0
C      1  0.4762300000000  0.4772840000000  0.4102790000000 1.0
C      1  0.5152550000000  0.4535650000000  0.4823950000000 1.0
C      1  0.5558010000000  0.4842990000000  0.5683950000000 1.0
C      1  0.4110850000000  0.5309900000000  0.5002790000000 1.0
C      1  0.4785430000000  0.5591400000000  0.4320470000000 1.0
C      1  0.5820470000000  0.4709830000000  0.5512780000000 1.0
C      1  0.4571590000000  0.4537810000000  0.5365930000000 1.0
C      1  0.5884230000000  0.4838480000000  0.5091280000000 1.0
C      1  0.4668470000000  0.5418720000000  0.4911350000000 1.0
C      1  0.4289550000000  0.5253960000000  0.5365150000000 1.0
C      1  0.5356510000000  0.4173470000000  0.5420120000000 1.0
C      1  0.4245440000000  0.5263150000000  0.4341440000000 1.0
C      1  0.4789770000000  0.5290490000000  0.5890810000000 1.0
C      1  0.5801300000000  0.5024880000000  0.5428320000000 1.0
C      1  0.5047070000000  0.5764560000000  0.5555610000000 1.0
C      1  0.4680330000000  0.4535250000000  0.4294170000000 1.0
C      1  0.4320790000000  0.4759110000000  0.5415930000000 1.0
C      1  0.5201400000000  0.5092660000000  0.5016650000000 1.0
C      1  0.4162870000000  0.4719070000000  0.4889020000000 1.0
C      1  0.5350220000000  0.5643380000000  0.4652040000000 1.0
C      1  0.4739280000000  0.4384720000000  0.4588270000000 1.0
C      1  0.5850880000000  0.5011540000000  0.4646650000000 1.0
C      1  0.4698710000000  0.4371730000000  0.5027230000000 1.0
C      1  0.4987480000000  0.5116770000000  0.4095920000000 1.0
C      1  0.5412390000000  0.5228650000000  0.4616490000000 1.0
C      1  0.5941890000000  0.5247740000000  0.4764750000000 1.0
C      1  0.4474550000000  0.5900030000000  0.4979200000000 1.0
C      1  0.6059310000000  0.5370520000000  0.5206620000000 1.0
C      1  0.5182580000000  0.5289240000000  0.5857540000000 1.0
C      1  0.5492780000000  0.4218110000000  0.5139880000000 1.0
C      1  0.5315880000000  0.5527150000000  0.4271010000000 1.0
C      1  0.4270580000000  0.5400190000000  0.5674060000000 1.0
C      1  0.5120590000000  0.4722420000000  0.4565650000000 1.0
C      1  0.4405230000000  0.4647010000000  0.4451690000000 1.0
C      1  0.3996960000000  0.5068650000000  0.5165900000000 1.0
C      1  0.5479960000000  0.5443360000000  0.5648680000000 1.0
C      1  0.4404090000000  0.4416940000000  0.5123610000000 1.0
C      1  0.5110290000000  0.4140510000000  0.5201590000000 1.0
C      1  0.4922800000000  0.5167640000000  0.4625060000000 1.0
C      1  0.5651790000000  0.4570570000000  0.4490060000000 1.0
C      1  0.5947510000000  0.5285040000000  0.5450880000000 1.0
C      1  0.4902620000000  0.4540590000000  0.5387620000000 1.0
C      1  0.5327870000000  0.4638540000000  0.5699320000000 1.0
C      1  0.5111000000000  0.5482300000000  0.5149390000000 1.0
C      1  0.4401520000000  0.5034920000000  0.5597830000000 1.0
C      1  0.4490170000000  0.5204140000000  0.4779120000000 1.0
C      1  0.5719160000000  0.4379960000000  0.5092620000000 1.0
C      1  0.5064870000000  0.4791910000000  0.4024120000000 1.0
C      1  0.4682110000000  0.4717220000000  0.4649250000000 1.0
C      1  0.4617920000000  0.5012150000000  0.4207420000000 1.0
C      1  0.4823340000000  0.4093730000000  0.5161490000000 1.0
C      1  0.4887710000000  0.4936140000000  0.5682680000000 1.0
C      1  0.5146750000000  0.4279420000000  0.4413910000000 1.0
C      1  0.4654090000000  0.5583030000000  0.5492390000000 1.0
C      1  0.4075600000000  0.4939000000000  0.4716300000000 1.0
C      1  0.4217070000000  0.5167300000000  0.4626320000000 1.0
C      1  0.5444930000000  0.4356240000000  0.4320520000000 1.0
C      1  0.5226120000000  0.4513540000000  0.4099810000000 1.0
C      1  0.5291770000000  0.5001220000000  0.4158290000000 1.0
C      1  0.5674330000000  0.4533930000000  0.4790790000000 1.0
C      1  0.5873120000000  0.5394390000000  0.4994020000000 1.0
C      1  0.5064110000000  0.4732190000000  0.5866480000000 1.0
C      1  0.5783650000000  0.4867900000000  0.4381150000000 1.0
C      1  0.4152780000000  0.5538300000000  0.4841100000000 1.0
C      1  0.4463750000000  0.4268330000000  0.4724630000000 1.0
C      1  0.5462620000000  0.5149900000000  0.5795260000000 1.0
C      1  0.4543750000000  0.5657450000000  0.4545150000000 1.0
C      1  0.4725630000000  0.4084270000000  0.4844110000000 1.0
C      1  0.5472950000000  0.5303330000000  0.4346350000000 1.0
C      1  0.4694110000000  0.5292980000000  0.4074850000000 1.0
C      1  0.4861630000000  0.5378740000000  0.5433530000000 1.0
C      1  0.4745520000000  0.5896190000000  0.5140300000000 1.0
C      1  0.5243380000000  0.4223780000000  0.4907740000000 1.0
C      1  0.4996250000000  0.5535650000000  0.5775570000000 1.0
C      1  0.4330960000000  0.5745870000000  0.4738050000000 1.0
C      1  0.5188400000000  0.4471400000000  0.5214760000000 1.0
END
