TITL C-2778429-3646-902 0.00630492007963833 125000 -527.817069247241 0 0 92 (C1) n - 1
REM
REM in /home/nfs/bkarasulu/CARBON/AIRSS/Generating-Clusters/REBO/Only-C1/SD-CG/HFTN-CG
REM
REM
REM
REM
REM
REM ./C.cell (11c1c37f851c82e70ff6c80c92926a4b)
REM
REM compiler GCC version 9.2.1 20190827 (Red Hat 9.2.1-1)
REM options -cpp -mtune=generic -march=x86-64 -g -O0 -fpre-include=/usr/include/finclude/math-vector-fortran.h
REM seed 783322853 1221607369 1172999298 -603586847 889527264 -2136053444 1484529846 -1568774005 -1110439394 342720276 375500091 1911346974 -85568788 1133465631 -832639231 1843002914 -490573097 -591351499 -418487520 948837957 -1757253624 856778433 -466795768 -451303912 -1569203652 1371914233 -1567636204 285308096 199924871 -2008799250 -2116474002 400719190 209656447
REM
CELL 1.54180   50.00000   50.00000   50.00000   90.00000   90.00000   90.00000
LATT -1
SFAC C  
C      1  0.5734090000000  0.5082450000000  0.4300830000000 1.0
C      1  0.4664690000000  0.4350610000000  0.4638060000000 1.0
C      1  0.4296460000000  0.5336310000000  0.4762630000000 1.0
C      1  0.4296450000000  0.5243610000000  0.5274110000000 1.0
C      1  0.4847340000000  0.5830420000000  0.5506750000000 1.0
C      1  0.5161600000000  0.5373830000000  0.4907470000000 1.0
C      1  0.4905490000000  0.5607550000000  0.5716270000000 1.0
C      1  0.4677070000000  0.5142560000000  0.5317250000000 1.0
C      1  0.4794600000000  0.4669990000000  0.5742370000000 1.0
C      1  0.5182580000000  0.4864210000000  0.4154250000000 1.0
C      1  0.4496010000000  0.5334530000000  0.5891570000000 1.0
C      1  0.5244580000000  0.4980000000000  0.4527910000000 1.0
C      1  0.4943060000000  0.5603390000000  0.4898520000000 1.0
C      1  0.5331610000000  0.4748680000000  0.5172370000000 1.0
C      1  0.5040610000000  0.4357080000000  0.5423580000000 1.0
C      1  0.5616920000000  0.5394970000000  0.4880310000000 1.0
C      1  0.4525130000000  0.4374500000000  0.4881700000000 1.0
C      1  0.5643680000000  0.4696230000000  0.4538660000000 1.0
C      1  0.4771630000000  0.4833370000000  0.5255690000000 1.0
C      1  0.4418420000000  0.5074220000000  0.5518430000000 1.0
C      1  0.4592560000000  0.5084670000000  0.4845910000000 1.0
C      1  0.5136160000000  0.5200420000000  0.4213850000000 1.0
C      1  0.4939830000000  0.5089240000000  0.5936640000000 1.0
C      1  0.4797340000000  0.4977060000000  0.4974200000000 1.0
C      1  0.5066680000000  0.4569320000000  0.5672290000000 1.0
C      1  0.4564530000000  0.5479660000000  0.4898050000000 1.0
C      1  0.5567830000000  0.5423270000000  0.5216220000000 1.0
C      1  0.5034170000000  0.4670000000000  0.5288620000000 1.0
C      1  0.5112890000000  0.4981520000000  0.4935310000000 1.0
C      1  0.4536300000000  0.5444780000000  0.5407290000000 1.0
C      1  0.5902630000000  0.4906270000000  0.5067880000000 1.0
C      1  0.4143030000000  0.4719060000000  0.4716080000000 1.0
C      1  0.5171060000000  0.5472330000000  0.5224010000000 1.0
C      1  0.5514370000000  0.4610850000000  0.5531920000000 1.0
C      1  0.5427240000000  0.5524420000000  0.4651230000000 1.0
C      1  0.4638520000000  0.5745060000000  0.4689380000000 1.0
C      1  0.5031510000000  0.5322620000000  0.5846680000000 1.0
C      1  0.4604120000000  0.5508960000000  0.5709780000000 1.0
C      1  0.5201440000000  0.4154460000000  0.5279920000000 1.0
C      1  0.5398850000000  0.5700950000000  0.5266050000000 1.0
C      1  0.5377170000000  0.4821380000000  0.4780070000000 1.0
C      1  0.5062060000000  0.6002110000000  0.5444930000000 1.0
C      1  0.4725400000000  0.5113620000000  0.4302730000000 1.0
C      1  0.5156990000000  0.5444140000000  0.5564380000000 1.0
C      1  0.4912910000000  0.4921550000000  0.4595990000000 1.0
C      1  0.5271170000000  0.5315240000000  0.4508460000000 1.0
C      1  0.5893710000000  0.4659650000000  0.5066790000000 1.0
C      1  0.5243480000000  0.4233910000000  0.4752430000000 1.0
C      1  0.4558220000000  0.5252240000000  0.4553200000000 1.0
C      1  0.4652830000000  0.5731040000000  0.5323040000000 1.0
C      1  0.5721060000000  0.4405760000000  0.4970730000000 1.0
C      1  0.5055620000000  0.4643590000000  0.4623800000000 1.0
C      1  0.4265640000000  0.4493080000000  0.4905740000000 1.0
C      1  0.4905560000000  0.5395500000000  0.4371460000000 1.0
C      1  0.4722480000000  0.4577580000000  0.4412480000000 1.0
C      1  0.5060510000000  0.5150430000000  0.5220020000000 1.0
C      1  0.4929740000000  0.5663320000000  0.4563800000000 1.0
C      1  0.4675980000000  0.5764960000000  0.5030120000000 1.0
C      1  0.4984810000000  0.4321140000000  0.4569440000000 1.0
C      1  0.5542990000000  0.4518290000000  0.5229810000000 1.0
C      1  0.5420050000000  0.4390230000000  0.4541660000000 1.0
C      1  0.5222340000000  0.4989260000000  0.5472370000000 1.0
C      1  0.5284680000000  0.4738020000000  0.5619390000000 1.0
C      1  0.4240160000000  0.4645420000000  0.5178080000000 1.0
C      1  0.5409290000000  0.5273590000000  0.5472270000000 1.0
C      1  0.4508030000000  0.4641620000000  0.5296830000000 1.0
C      1  0.4139890000000  0.4860860000000  0.4989250000000 1.0
C      1  0.4711200000000  0.4418220000000  0.5138700000000 1.0
C      1  0.5032430000000  0.4522890000000  0.4297790000000 1.0
C      1  0.4420690000000  0.5561040000000  0.4538270000000 1.0
C      1  0.4971740000000  0.5235420000000  0.4661110000000 1.0
C      1  0.4729890000000  0.4485260000000  0.5476860000000 1.0
C      1  0.5080790000000  0.4066470000000  0.4994870000000 1.0
C      1  0.5716310000000  0.5142050000000  0.5086540000000 1.0
C      1  0.4594340000000  0.4861190000000  0.4492100000000 1.0
C      1  0.4870480000000  0.4818690000000  0.4212290000000 1.0
C      1  0.5394990000000  0.5154180000000  0.4851860000000 1.0
C      1  0.5441740000000  0.5059230000000  0.4256770000000 1.0
C      1  0.5453810000000  0.5040470000000  0.5229560000000 1.0
C      1  0.4293820000000  0.4841400000000  0.4513800000000 1.0
C      1  0.5384240000000  0.4659430000000  0.4336960000000 1.0
C      1  0.4289990000000  0.5118090000000  0.4999240000000 1.0
C      1  0.5243100000000  0.5742410000000  0.4651660000000 1.0
C      1  0.5311950000000  0.5939660000000  0.5349740000000 1.0
C      1  0.5831900000000  0.4906900000000  0.4458190000000 1.0
C      1  0.5167230000000  0.4588370000000  0.4920890000000 1.0
C      1  0.4811340000000  0.5356270000000  0.5098690000000 1.0
C      1  0.4726700000000  0.4913760000000  0.5859130000000 1.0
C      1  0.4487030000000  0.5064860000000  0.5793740000000 1.0
C      1  0.5419840000000  0.4264500000000  0.5043720000000 1.0
C      1  0.5711040000000  0.4417600000000  0.4670760000000 1.0
C      1  0.4987550000000  0.4370670000000  0.5027500000000 1.0
END
