TITL C-2778433-5640-686 -0.00215923470318206 125000 -479.254373183968 0 0 84 (C1) n - 1
REM
REM in /home/nfs/bkarasulu/CARBON/AIRSS/Generating-Clusters/REBO/Only-C1/SD-CG/HFTN-CG
REM
REM
REM
REM
REM
REM ./C.cell (11c1c37f851c82e70ff6c80c92926a4b)
REM
REM compiler GCC version 9.2.1 20190827 (Red Hat 9.2.1-1)
REM options -cpp -mtune=generic -march=x86-64 -g -O0 -fpre-include=/usr/include/finclude/math-vector-fortran.h
REM seed 309662019 1318617701 -881417017 2128149303 -352163231 -162861340 -63428830 -847499112 -1381211602 2024468425 -1576566858 -543518133 1412382590 403198732 913506883 551625059 1962012010 -898781560 -1101185426 -1836394841 -1187996513 -646568720 1466802463 966775575 -295493270 91625993 76392617 -1060742434 813490484 1914967132 -2068651970 -911454142 -1373385393
REM
CELL 1.54180   50.00000   50.00000   50.00000   90.00000   90.00000   90.00000
LATT -1
SFAC C  
C      1  0.4213070000000  0.5191700000000  0.4788930000000 1.0
C      1  0.4520180000000  0.5623360000000  0.5504810000000 1.0
C      1  0.5283660000000  0.5682640000000  0.5349030000000 1.0
C      1  0.4308670000000  0.5212050000000  0.5327840000000 1.0
C      1  0.4276210000000  0.5378790000000  0.4560610000000 1.0
C      1  0.5169820000000  0.5473260000000  0.5493830000000 1.0
C      1  0.5275850000000  0.5263350000000  0.4162600000000 1.0
C      1  0.5028950000000  0.4646220000000  0.5487970000000 1.0
C      1  0.4702890000000  0.5172670000000  0.5553590000000 1.0
C      1  0.5306110000000  0.5181690000000  0.5068360000000 1.0
C      1  0.4387160000000  0.5665620000000  0.5088120000000 1.0
C      1  0.4954210000000  0.5670440000000  0.4821400000000 1.0
C      1  0.5338880000000  0.5568510000000  0.4825700000000 1.0
C      1  0.4955050000000  0.5232710000000  0.4100510000000 1.0
C      1  0.5019490000000  0.5023010000000  0.4516120000000 1.0
C      1  0.4782730000000  0.5081050000000  0.4832950000000 1.0
C      1  0.5283330000000  0.5232430000000  0.4744450000000 1.0
C      1  0.4497260000000  0.4842350000000  0.4542860000000 1.0
C      1  0.5183710000000  0.4539710000000  0.4684210000000 1.0
C      1  0.5775770000000  0.4725080000000  0.4984190000000 1.0
C      1  0.5494620000000  0.4984420000000  0.4641200000000 1.0
C      1  0.4306970000000  0.4938510000000  0.5417880000000 1.0
C      1  0.4644200000000  0.4384440000000  0.4668680000000 1.0
C      1  0.4808670000000  0.4983240000000  0.4177420000000 1.0
C      1  0.5226460000000  0.4231360000000  0.5279520000000 1.0
C      1  0.5473270000000  0.5856380000000  0.5449760000000 1.0
C      1  0.4950910000000  0.4726350000000  0.4259700000000 1.0
C      1  0.5179960000000  0.5718040000000  0.5072260000000 1.0
C      1  0.5058340000000  0.5066330000000  0.5881770000000 1.0
C      1  0.5312300000000  0.4692290000000  0.5598240000000 1.0
C      1  0.4293150000000  0.4925700000000  0.4741990000000 1.0
C      1  0.4413300000000  0.5536140000000  0.4799630000000 1.0
C      1  0.5318380000000  0.4868720000000  0.5838110000000 1.0
C      1  0.5519500000000  0.5310200000000  0.5597830000000 1.0
C      1  0.5368030000000  0.5181640000000  0.5788610000000 1.0
C      1  0.4942160000000  0.4568990000000  0.4907830000000 1.0
C      1  0.5773100000000  0.4934560000000  0.5174340000000 1.0
C      1  0.5108300000000  0.5482790000000  0.4594420000000 1.0
C      1  0.4178870000000  0.4453390000000  0.5136510000000 1.0
C      1  0.4256630000000  0.5351740000000  0.5067920000000 1.0
C      1  0.5215320000000  0.5166420000000  0.5381610000000 1.0
C      1  0.5515930000000  0.4596140000000  0.4345210000000 1.0
C      1  0.5705930000000  0.4786320000000  0.5653300000000 1.0
C      1  0.4561300000000  0.5011110000000  0.4323050000000 1.0
C      1  0.5452640000000  0.5413600000000  0.4330020000000 1.0
C      1  0.4211500000000  0.4737990000000  0.5246580000000 1.0
C      1  0.5311580000000  0.4867180000000  0.5315040000000 1.0
C      1  0.4720100000000  0.4232770000000  0.4378260000000 1.0
C      1  0.5680280000000  0.5234240000000  0.4742840000000 1.0
C      1  0.5199570000000  0.4961400000000  0.4257430000000 1.0
C      1  0.5603170000000  0.5353090000000  0.5344930000000 1.0
C      1  0.4669700000000  0.4841620000000  0.5053730000000 1.0
C      1  0.4577070000000  0.4862130000000  0.5586070000000 1.0
C      1  0.4599890000000  0.5816610000000  0.5164190000000 1.0
C      1  0.5647450000000  0.4246340000000  0.5614430000000 1.0
C      1  0.4723230000000  0.4363230000000  0.4999600000000 1.0
C      1  0.4760710000000  0.4932160000000  0.5864110000000 1.0
C      1  0.5645670000000  0.5200610000000  0.5059800000000 1.0
C      1  0.5490110000000  0.4750360000000  0.4829390000000 1.0
C      1  0.4700050000000  0.4598810000000  0.5475280000000 1.0
C      1  0.5465710000000  0.4864830000000  0.4364720000000 1.0
C      1  0.4999030000000  0.4345470000000  0.5397330000000 1.0
C      1  0.4777100000000  0.5264420000000  0.4546640000000 1.0
C      1  0.5122680000000  0.4868080000000  0.4726980000000 1.0
C      1  0.4719640000000  0.4341650000000  0.5290120000000 1.0
C      1  0.4997440000000  0.5065830000000  0.5066720000000 1.0
C      1  0.4474530000000  0.5285550000000  0.4382440000000 1.0
C      1  0.4916340000000  0.4852330000000  0.5261640000000 1.0
C      1  0.5564530000000  0.5469470000000  0.4593300000000 1.0
C      1  0.4858910000000  0.5829970000000  0.5090610000000 1.0
C      1  0.5619890000000  0.4856080000000  0.5402000000000 1.0
C      1  0.4509460000000  0.5355170000000  0.5473020000000 1.0
C      1  0.4704540000000  0.5522970000000  0.4726860000000 1.0
C      1  0.4825750000000  0.4529740000000  0.4414420000000 1.0
C      1  0.5218080000000  0.4735720000000  0.5028870000000 1.0
C      1  0.5367290000000  0.4429700000000  0.4507960000000 1.0
C      1  0.4386770000000  0.4436410000000  0.4876760000000 1.0
C      1  0.4987860000000  0.5217930000000  0.5614450000000 1.0
C      1  0.5592160000000  0.4462350000000  0.4980060000000 1.0
C      1  0.4736590000000  0.4766860000000  0.4729730000000 1.0
C      1  0.4380700000000  0.4752530000000  0.4974640000000 1.0
C      1  0.5441550000000  0.4282120000000  0.5122600000000 1.0
C      1  0.4957940000000  0.5440510000000  0.4324500000000 1.0
C      1  0.5494200000000  0.4450260000000  0.5607030000000 1.0
END
