TITL C-2778432-5617-1099 -0.00443607922422354 125000 -782.362013094456 0 0 137 (C1) n - 1
REM
REM in /home/nfs/bkarasulu/CARBON/AIRSS/Generating-Clusters/REBO/Only-C1/SD-CG/HFTN-CG
REM
REM
REM
REM
REM
REM ./C.cell (11c1c37f851c82e70ff6c80c92926a4b)
REM
REM compiler GCC version 9.2.1 20190827 (Red Hat 9.2.1-1)
REM options -cpp -mtune=generic -march=x86-64 -g -O0 -fpre-include=/usr/include/finclude/math-vector-fortran.h
REM seed -617643622 1128401637 -1587106673 -1954544819 -838177663 -512794267 -1674523391 2060189067 1227095782 -935377150 -548991290 -354830182 455163976 -864862963 -1281498171 1566387459 1622145941 90953901 1734607671 1613388559 -774187548 120520476 -137305401 -1797733981 560734713 -1483824461 299116381 1446304581 -2136992496 1357692231 -296388308 1689448778 -709116742
REM
CELL 1.54180   50.00000   50.00000   50.00000   90.00000   90.00000   90.00000
LATT -1
SFAC C  
C      1  0.4519880000000  0.5608380000000  0.4435890000000 1.0
C      1  0.4296470000000  0.4422210000000  0.5097500000000 1.0
C      1  0.5061820000000  0.5995230000000  0.5143290000000 1.0
C      1  0.4737720000000  0.5788260000000  0.4619510000000 1.0
C      1  0.5664050000000  0.4836290000000  0.5571530000000 1.0
C      1  0.5668620000000  0.5376940000000  0.5426060000000 1.0
C      1  0.5588170000000  0.5251870000000  0.5119650000000 1.0
C      1  0.4381650000000  0.5030620000000  0.5388890000000 1.0
C      1  0.4979340000000  0.5862590000000  0.4422880000000 1.0
C      1  0.5947610000000  0.4734350000000  0.5042440000000 1.0
C      1  0.5331990000000  0.4794550000000  0.3814930000000 1.0
C      1  0.4454810000000  0.5488190000000  0.4750210000000 1.0
C      1  0.4718420000000  0.4420880000000  0.5609540000000 1.0
C      1  0.4424170000000  0.5265860000000  0.5887480000000 1.0
C      1  0.5166560000000  0.4492100000000  0.4994500000000 1.0
C      1  0.5252930000000  0.4449300000000  0.5323450000000 1.0
C      1  0.5918660000000  0.5345580000000  0.4639010000000 1.0
C      1  0.5379810000000  0.4365070000000  0.4412860000000 1.0
C      1  0.4517010000000  0.4547300000000  0.5204630000000 1.0
C      1  0.5284020000000  0.5686020000000  0.5584280000000 1.0
C      1  0.6036140000000  0.4865850000000  0.4741170000000 1.0
C      1  0.5228850000000  0.5499260000000  0.5236670000000 1.0
C      1  0.4717050000000  0.5757230000000  0.5248650000000 1.0
C      1  0.5595280000000  0.4826890000000  0.4496220000000 1.0
C      1  0.5419810000000  0.5653210000000  0.4833600000000 1.0
C      1  0.5165890000000  0.5221880000000  0.5625730000000 1.0
C      1  0.4164620000000  0.5100970000000  0.4574030000000 1.0
C      1  0.4763540000000  0.4519450000000  0.4272650000000 1.0
C      1  0.5923270000000  0.5176360000000  0.5318680000000 1.0
C      1  0.4799050000000  0.4958540000000  0.5931460000000 1.0
C      1  0.4979740000000  0.4417050000000  0.5812530000000 1.0
C      1  0.5239940000000  0.4334430000000  0.5645150000000 1.0
C      1  0.5078450000000  0.4954960000000  0.5437920000000 1.0
C      1  0.4329600000000  0.5631260000000  0.5180950000000 1.0
C      1  0.4537470000000  0.5555260000000  0.5727090000000 1.0
C      1  0.4260020000000  0.4592550000000  0.4645700000000 1.0
C      1  0.4769390000000  0.4510420000000  0.5021070000000 1.0
C      1  0.5752570000000  0.4266740000000  0.4778010000000 1.0
C      1  0.5484150000000  0.5335770000000  0.4346280000000 1.0
C      1  0.5001710000000  0.5550850000000  0.5475650000000 1.0
C      1  0.4283410000000  0.5370340000000  0.5612650000000 1.0
C      1  0.4734320000000  0.4770320000000  0.4719110000000 1.0
C      1  0.4775840000000  0.4645980000000  0.5934860000000 1.0
C      1  0.5635100000000  0.4208440000000  0.5029450000000 1.0
C      1  0.4588400000000  0.5038380000000  0.4974170000000 1.0
C      1  0.5025760000000  0.5883240000000  0.5464590000000 1.0
C      1  0.4684110000000  0.5451950000000  0.5142000000000 1.0
C      1  0.5159530000000  0.4703410000000  0.5771890000000 1.0
C      1  0.5396950000000  0.4080170000000  0.5109460000000 1.0
C      1  0.5615080000000  0.5569350000000  0.5076100000000 1.0
C      1  0.4817420000000  0.5060270000000  0.4104290000000 1.0
C      1  0.5515760000000  0.5068720000000  0.5736430000000 1.0
C      1  0.4989720000000  0.5147530000000  0.4700710000000 1.0
C      1  0.5057390000000  0.4663750000000  0.4736330000000 1.0
C      1  0.5678600000000  0.4405740000000  0.4516830000000 1.0
C      1  0.4113540000000  0.4816650000000  0.4711640000000 1.0
C      1  0.5286900000000  0.4958200000000  0.5894720000000 1.0
C      1  0.4826490000000  0.5578970000000  0.4290860000000 1.0
C      1  0.5010140000000  0.5675740000000  0.5096810000000 1.0
C      1  0.4511270000000  0.4287930000000  0.5534710000000 1.0
C      1  0.4979300000000  0.5952690000000  0.4810860000000 1.0
C      1  0.6106900000000  0.5146280000000  0.4704480000000 1.0
C      1  0.5764220000000  0.4965450000000  0.5135590000000 1.0
C      1  0.5242220000000  0.4759580000000  0.4062260000000 1.0
C      1  0.5308850000000  0.4099270000000  0.5412090000000 1.0
C      1  0.5435810000000  0.4595450000000  0.5646210000000 1.0
C      1  0.4124520000000  0.4986210000000  0.4954760000000 1.0
C      1  0.4108120000000  0.5397490000000  0.5135870000000 1.0
C      1  0.4991420000000  0.4150790000000  0.5394910000000 1.0
C      1  0.5420630000000  0.4829090000000  0.3570730000000 1.0
C      1  0.5469810000000  0.4701390000000  0.5335680000000 1.0
C      1  0.4685350000000  0.5940500000000  0.4979770000000 1.0
C      1  0.5319220000000  0.5360210000000  0.4773410000000 1.0
C      1  0.4936090000000  0.4789710000000  0.4157920000000 1.0
C      1  0.4740960000000  0.5296920000000  0.5954120000000 1.0
C      1  0.5148280000000  0.4099840000000  0.4921130000000 1.0
C      1  0.4457870000000  0.5347870000000  0.5322510000000 1.0
C      1  0.5729690000000  0.4429850000000  0.5212010000000 1.0
C      1  0.5910050000000  0.5483830000000  0.5200200000000 1.0
C      1  0.4647730000000  0.4315850000000  0.4521010000000 1.0
C      1  0.5479460000000  0.5714830000000  0.5330540000000 1.0
C      1  0.4252000000000  0.5398210000000  0.4420990000000 1.0
C      1  0.4520680000000  0.5210940000000  0.4443240000000 1.0
C      1  0.4841320000000  0.5097610000000  0.5625930000000 1.0
C      1  0.4745500000000  0.5348000000000  0.4636360000000 1.0
C      1  0.4853120000000  0.5220760000000  0.4999270000000 1.0
C      1  0.4706140000000  0.5800960000000  0.5562940000000 1.0
C      1  0.5865470000000  0.4657020000000  0.5364170000000 1.0
C      1  0.5470230000000  0.5662580000000  0.4440710000000 1.0
C      1  0.4853230000000  0.4310870000000  0.4757050000000 1.0
C      1  0.5106230000000  0.4654400000000  0.4420890000000 1.0
C      1  0.5175780000000  0.5275640000000  0.5030020000000 1.0
C      1  0.5481690000000  0.4577600000000  0.5026830000000 1.0
C      1  0.4516140000000  0.4721290000000  0.5778530000000 1.0
C      1  0.4325610000000  0.5248810000000  0.4921130000000 1.0
C      1  0.5872490000000  0.4687160000000  0.4510100000000 1.0
C      1  0.4348460000000  0.4977120000000  0.5927980000000 1.0
C      1  0.4890450000000  0.4709880000000  0.5558360000000 1.0
C      1  0.5499590000000  0.4789810000000  0.4798040000000 1.0
C      1  0.5941730000000  0.4515180000000  0.4794400000000 1.0
C      1  0.5165420000000  0.4255770000000  0.4643170000000 1.0
C      1  0.4539450000000  0.4620660000000  0.4509300000000 1.0
C      1  0.5166780000000  0.5622780000000  0.4314790000000 1.0
C      1  0.6368480000000  0.5218230000000  0.4740580000000 1.0
C      1  0.5250580000000  0.5849970000000  0.4629720000000 1.0
C      1  0.4951820000000  0.4267740000000  0.5138650000000 1.0
C      1  0.4826110000000  0.3998300000000  0.4877760000000 1.0
C      1  0.4263770000000  0.4359050000000  0.4816980000000 1.0
C      1  0.4031490000000  0.4952500000000  0.5215310000000 1.0
C      1  0.5060180000000  0.5177930000000  0.5948050000000 1.0
C      1  0.5044730000000  0.4336140000000  0.4335570000000 1.0
C      1  0.4473580000000  0.4982250000000  0.4664610000000 1.0
C      1  0.5432720000000  0.4973560000000  0.5052690000000 1.0
C      1  0.3915730000000  0.5445710000000  0.4889270000000 1.0
C      1  0.4434570000000  0.4154220000000  0.4699280000000 1.0
C      1  0.4184970000000  0.4760050000000  0.5752820000000 1.0
C      1  0.4460610000000  0.5728580000000  0.4944520000000 1.0
C      1  0.5246810000000  0.5259110000000  0.4180420000000 1.0
C      1  0.4958800000000  0.5301080000000  0.4143290000000 1.0
C      1  0.4428600000000  0.3706650000000  0.4917510000000 1.0
C      1  0.4115910000000  0.4847370000000  0.5499210000000 1.0
C      1  0.3998140000000  0.5379060000000  0.4637710000000 1.0
C      1  0.5117230000000  0.4959420000000  0.5143190000000 1.0
C      1  0.4086120000000  0.5228450000000  0.5394470000000 1.0
C      1  0.5121290000000  0.5360800000000  0.4502240000000 1.0
C      1  0.5483340000000  0.5127010000000  0.4586560000000 1.0
C      1  0.4558810000000  0.5084570000000  0.4171910000000 1.0
C      1  0.4819280000000  0.5419300000000  0.5642860000000 1.0
C      1  0.5415720000000  0.4680940000000  0.4316550000000 1.0
C      1  0.4824230000000  0.5588320000000  0.4856040000000 1.0
C      1  0.4556540000000  0.3929990000000  0.4835040000000 1.0
C      1  0.5356990000000  0.5872710000000  0.5074520000000 1.0
C      1  0.5744210000000  0.5537020000000  0.4569430000000 1.0
C      1  0.5442610000000  0.5384210000000  0.5621360000000 1.0
C      1  0.4850520000000  0.4826060000000  0.5033940000000 1.0
C      1  0.5215360000000  0.4948910000000  0.4708060000000 1.0
C      1  0.4570190000000  0.4753010000000  0.5444250000000 1.0
END
