TITL C-2778425-5191-821 -0.00289220515720697 125000 -1151.52686725168 0 0 199 (C1) n - 1
REM
REM in /home/nfs/bkarasulu/CARBON/AIRSS/Generating-Clusters/REBO/Only-C1/SD-CG/HFTN-CG
REM
REM
REM
REM
REM
REM ./C.cell (11c1c37f851c82e70ff6c80c92926a4b)
REM
REM compiler GCC version 9.2.1 20190827 (Red Hat 9.2.1-1)
REM options -cpp -mtune=generic -march=x86-64 -g -O0 -fpre-include=/usr/include/finclude/math-vector-fortran.h
REM seed 1467178626 -1163425886 -82352899 1929726276 1897981205 -181010873 -1632937846 56941060 -1060476028 1529980461 -639294016 -660546799 655091535 -1467689706 -457943661 2007408984 127355549 -289397653 -1218456380 779102462 -500838807 -660389321 -892534533 -989627470 943504487 1544507541 -352220874 -1364578655 -641774692 -129044116 -1323013629 -112049608 -1591993079
REM
CELL 1.54180   50.00000   50.00000   50.00000   90.00000   90.00000   90.00000
LATT -1
SFAC C  
C      1  0.5382790000000  0.4296640000000  0.5797110000000 1.0
C      1  0.4713580000000  0.4125140000000  0.5409980000000 1.0
C      1  0.5305480000000  0.5274420000000  0.4401190000000 1.0
C      1  0.5555480000000  0.4011350000000  0.4738590000000 1.0
C      1  0.4593010000000  0.5835430000000  0.4338110000000 1.0
C      1  0.5811510000000  0.5521570000000  0.5925080000000 1.0
C      1  0.4468760000000  0.4633600000000  0.5863520000000 1.0
C      1  0.5257670000000  0.5573980000000  0.4520920000000 1.0
C      1  0.5100930000000  0.3954050000000  0.5052210000000 1.0
C      1  0.4689270000000  0.5156280000000  0.6047120000000 1.0
C      1  0.4491520000000  0.5470000000000  0.5877640000000 1.0
C      1  0.4457980000000  0.5902080000000  0.4773670000000 1.0
C      1  0.5297920000000  0.5658680000000  0.5116490000000 1.0
C      1  0.4399230000000  0.4753580000000  0.5354670000000 1.0
C      1  0.5723360000000  0.4603630000000  0.4871930000000 1.0
C      1  0.4248480000000  0.5466430000000  0.4315560000000 1.0
C      1  0.5738230000000  0.4867100000000  0.4650920000000 1.0
C      1  0.5432720000000  0.5243210000000  0.5743640000000 1.0
C      1  0.4110470000000  0.3994410000000  0.5029040000000 1.0
C      1  0.3840000000000  0.4572700000000  0.4822850000000 1.0
C      1  0.6028170000000  0.5756040000000  0.4871490000000 1.0
C      1  0.4288530000000  0.4874990000000  0.4920550000000 1.0
C      1  0.5038300000000  0.4293710000000  0.4164810000000 1.0
C      1  0.4822770000000  0.5891130000000  0.4548140000000 1.0
C      1  0.4950360000000  0.5157110000000  0.4602330000000 1.0
C      1  0.4698740000000  0.5454350000000  0.4380420000000 1.0
C      1  0.5550070000000  0.4901730000000  0.5073370000000 1.0
C      1  0.4872740000000  0.4332790000000  0.5890280000000 1.0
C      1  0.4455430000000  0.5032060000000  0.5835560000000 1.0
C      1  0.5674820000000  0.5379140000000  0.4291220000000 1.0
C      1  0.4987780000000  0.5842990000000  0.4275920000000 1.0
C      1  0.3857280000000  0.5051710000000  0.5280760000000 1.0
C      1  0.5109440000000  0.5995370000000  0.4805610000000 1.0
C      1  0.5605850000000  0.5117470000000  0.4172560000000 1.0
C      1  0.5226430000000  0.4810850000000  0.5661130000000 1.0
C      1  0.5147160000000  0.5516470000000  0.5701350000000 1.0
C      1  0.4735130000000  0.4221250000000  0.5720180000000 1.0
C      1  0.4392680000000  0.4598950000000  0.4905850000000 1.0
C      1  0.4696920000000  0.4260520000000  0.5115580000000 1.0
C      1  0.5923440000000  0.4751850000000  0.4213310000000 1.0
C      1  0.3916620000000  0.4576270000000  0.5151420000000 1.0
C      1  0.4700280000000  0.4833910000000  0.5948240000000 1.0
C      1  0.4302570000000  0.4028470000000  0.4803130000000 1.0
C      1  0.4217150000000  0.5023940000000  0.5438440000000 1.0
C      1  0.4887860000000  0.5652220000000  0.4778140000000 1.0
C      1  0.4864850000000  0.4962770000000  0.5049150000000 1.0
C      1  0.4921570000000  0.4840750000000  0.5725540000000 1.0
C      1  0.5796820000000  0.4245350000000  0.5032410000000 1.0
C      1  0.5429810000000  0.4818010000000  0.4180770000000 1.0
C      1  0.5856420000000  0.4966860000000  0.5848570000000 1.0
C      1  0.5280220000000  0.4975940000000  0.4491500000000 1.0
C      1  0.4648720000000  0.5471860000000  0.5567750000000 1.0
C      1  0.5486180000000  0.5602230000000  0.4270740000000 1.0
C      1  0.4408220000000  0.4271360000000  0.4342350000000 1.0
C      1  0.4019190000000  0.5326200000000  0.4456360000000 1.0
C      1  0.4701510000000  0.4655890000000  0.4580170000000 1.0
C      1  0.4528370000000  0.5853110000000  0.5548770000000 1.0
C      1  0.5347020000000  0.4155910000000  0.5294140000000 1.0
C      1  0.5262510000000  0.4898060000000  0.5348150000000 1.0
C      1  0.5648740000000  0.4498990000000  0.5730020000000 1.0
C      1  0.4523100000000  0.4984680000000  0.4443720000000 1.0
C      1  0.5139220000000  0.4456950000000  0.5966070000000 1.0
C      1  0.4170610000000  0.4632760000000  0.5740950000000 1.0
C      1  0.4478310000000  0.4992130000000  0.4125280000000 1.0
C      1  0.6034120000000  0.5164780000000  0.4627370000000 1.0
C      1  0.5548710000000  0.5117100000000  0.4586070000000 1.0
C      1  0.3961630000000  0.5042030000000  0.5959870000000 1.0
C      1  0.4002360000000  0.4878820000000  0.5021060000000 1.0
C      1  0.5621260000000  0.5179410000000  0.4897870000000 1.0
C      1  0.5678240000000  0.4631380000000  0.4190400000000 1.0
C      1  0.5717790000000  0.5228250000000  0.5923760000000 1.0
C      1  0.5865350000000  0.5439730000000  0.4515480000000 1.0
C      1  0.4194210000000  0.5666890000000  0.5165210000000 1.0
C      1  0.4396810000000  0.4702580000000  0.4522870000000 1.0
C      1  0.4180410000000  0.4910240000000  0.5856530000000 1.0
C      1  0.4426200000000  0.4268840000000  0.5482360000000 1.0
C      1  0.5041250000000  0.4633460000000  0.3961670000000 1.0
C      1  0.4111690000000  0.5281700000000  0.5259120000000 1.0
C      1  0.4481550000000  0.5316540000000  0.4227560000000 1.0
C      1  0.5184070000000  0.6009180000000  0.5424990000000 1.0
C      1  0.5101940000000  0.4897160000000  0.4161980000000 1.0
C      1  0.5422300000000  0.5899350000000  0.5214870000000 1.0
C      1  0.5668500000000  0.5707280000000  0.5836960000000 1.0
C      1  0.5822850000000  0.4325340000000  0.5511600000000 1.0
C      1  0.4740660000000  0.4540970000000  0.4066800000000 1.0
C      1  0.5999240000000  0.5035310000000  0.5241300000000 1.0
C      1  0.5742880000000  0.4803640000000  0.5641550000000 1.0
C      1  0.5921650000000  0.5010530000000  0.4974960000000 1.0
C      1  0.4145500000000  0.4461970000000  0.5458780000000 1.0
C      1  0.5935960000000  0.5293900000000  0.5324630000000 1.0
C      1  0.5040750000000  0.5962010000000  0.5117620000000 1.0
C      1  0.4995370000000  0.5640660000000  0.5225740000000 1.0
C      1  0.5007540000000  0.4460290000000  0.5390540000000 1.0
C      1  0.4331180000000  0.5366290000000  0.5607950000000 1.0
C      1  0.6026540000000  0.4414700000000  0.5070200000000 1.0
C      1  0.5432060000000  0.4639150000000  0.5956490000000 1.0
C      1  0.5976000000000  0.5549240000000  0.5118910000000 1.0
C      1  0.5212620000000  0.3978590000000  0.4540130000000 1.0
C      1  0.5358010000000  0.5648410000000  0.4010840000000 1.0
C      1  0.4049340000000  0.5033620000000  0.4520150000000 1.0
C      1  0.5610210000000  0.4386690000000  0.4365320000000 1.0
C      1  0.4917170000000  0.5772240000000  0.5902500000000 1.0
C      1  0.5502190000000  0.3966720000000  0.5071820000000 1.0
C      1  0.5203860000000  0.4622480000000  0.5194220000000 1.0
C      1  0.5284130000000  0.4510410000000  0.5568140000000 1.0
C      1  0.4800770000000  0.4663000000000  0.5486140000000 1.0
C      1  0.5439960000000  0.4945570000000  0.5872220000000 1.0
C      1  0.5547600000000  0.4609060000000  0.4585050000000 1.0
C      1  0.4830150000000  0.5176430000000  0.4080610000000 1.0
C      1  0.5308190000000  0.5295110000000  0.4964950000000 1.0
C      1  0.4990030000000  0.5515710000000  0.4316090000000 1.0
C      1  0.4902930000000  0.4165390000000  0.4908130000000 1.0
C      1  0.4003430000000  0.4768690000000  0.5405010000000 1.0
C      1  0.4737420000000  0.5715300000000  0.4080780000000 1.0
C      1  0.4324780000000  0.5064020000000  0.4676970000000 1.0
C      1  0.4106320000000  0.5536570000000  0.4676000000000 1.0
C      1  0.5474270000000  0.4470670000000  0.5299120000000 1.0
C      1  0.6140160000000  0.4600480000000  0.4879410000000 1.0
C      1  0.4304320000000  0.4411330000000  0.4633520000000 1.0
C      1  0.4947520000000  0.4075450000000  0.4394780000000 1.0
C      1  0.4270000000000  0.4538910000000  0.4184260000000 1.0
C      1  0.5594260000000  0.5903460000000  0.4745670000000 1.0
C      1  0.5141040000000  0.4587260000000  0.4895690000000 1.0
C      1  0.5015890000000  0.5058840000000  0.6046240000000 1.0
C      1  0.4909520000000  0.5632650000000  0.5529700000000 1.0
C      1  0.4336090000000  0.5730020000000  0.4513060000000 1.0
C      1  0.5076910000000  0.4781620000000  0.4555930000000 1.0
C      1  0.5597940000000  0.5563580000000  0.5470560000000 1.0
C      1  0.4645270000000  0.5517040000000  0.4649240000000 1.0
C      1  0.4414680000000  0.5307140000000  0.5127100000000 1.0
C      1  0.4616780000000  0.5768550000000  0.5833400000000 1.0
C      1  0.4748620000000  0.4942020000000  0.5335950000000 1.0
C      1  0.4596800000000  0.5760210000000  0.5240220000000 1.0
C      1  0.4392510000000  0.4273080000000  0.4997090000000 1.0
C      1  0.5216430000000  0.4220000000000  0.4777430000000 1.0
C      1  0.5290540000000  0.3832600000000  0.4839440000000 1.0
C      1  0.3862590000000  0.5185000000000  0.4968490000000 1.0
C      1  0.5140460000000  0.5034780000000  0.4858850000000 1.0
C      1  0.5923010000000  0.4781900000000  0.5383960000000 1.0
C      1  0.4080090000000  0.4355580000000  0.4864620000000 1.0
C      1  0.4472940000000  0.4705550000000  0.4043250000000 1.0
C      1  0.4773480000000  0.5445570000000  0.3987910000000 1.0
C      1  0.4601610000000  0.4569890000000  0.5152260000000 1.0
C      1  0.4478110000000  0.4055860000000  0.4583360000000 1.0
C      1  0.4523050000000  0.5095260000000  0.5522920000000 1.0
C      1  0.4476890000000  0.5001890000000  0.5137060000000 1.0
C      1  0.3864230000000  0.4764930000000  0.4609490000000 1.0
C      1  0.5670940000000  0.5291960000000  0.5432170000000 1.0
C      1  0.4473570000000  0.5298220000000  0.4813040000000 1.0
C      1  0.5184910000000  0.5377710000000  0.4100190000000 1.0
C      1  0.5025420000000  0.4144640000000  0.5311460000000 1.0
C      1  0.4934380000000  0.5179730000000  0.5733070000000 1.0
C      1  0.4847760000000  0.5962230000000  0.5465990000000 1.0
C      1  0.4757920000000  0.4069040000000  0.4643920000000 1.0
C      1  0.6108420000000  0.4871260000000  0.4797990000000 1.0
C      1  0.4639970000000  0.5458790000000  0.5247510000000 1.0
C      1  0.5511050000000  0.4071730000000  0.4431970000000 1.0
C      1  0.4809400000000  0.5074920000000  0.4365050000000 1.0
C      1  0.5180900000000  0.4472480000000  0.4566450000000 1.0
C      1  0.5970950000000  0.4899970000000  0.4433690000000 1.0
C      1  0.4768520000000  0.6028200000000  0.4833290000000 1.0
C      1  0.5128050000000  0.5909050000000  0.5745750000000 1.0
C      1  0.5266710000000  0.5955100000000  0.4352300000000 1.0
C      1  0.4873670000000  0.4738340000000  0.4830840000000 1.0
C      1  0.4785770000000  0.5216940000000  0.4868070000000 1.0
C      1  0.6022180000000  0.4485670000000  0.5356060000000 1.0
C      1  0.5576950000000  0.4983380000000  0.5405320000000 1.0
C      1  0.4975640000000  0.4956740000000  0.3863730000000 1.0
C      1  0.5192410000000  0.5567250000000  0.4819010000000 1.0
C      1  0.5135660000000  0.4780000000000  0.6066060000000 1.0
C      1  0.5482030000000  0.5091290000000  0.3894930000000 1.0
C      1  0.5827440000000  0.5739120000000  0.4673590000000 1.0
C      1  0.5182810000000  0.5241640000000  0.5534810000000 1.0
C      1  0.5534800000000  0.4317930000000  0.4855750000000 1.0
C      1  0.5695990000000  0.4642710000000  0.5189910000000 1.0
C      1  0.5773880000000  0.5715930000000  0.5319050000000 1.0
C      1  0.4877890000000  0.4687430000000  0.4317680000000 1.0
C      1  0.4301250000000  0.5876070000000  0.4999790000000 1.0
C      1  0.5887490000000  0.5384450000000  0.4846470000000 1.0
C      1  0.4825730000000  0.5442670000000  0.5923610000000 1.0
C      1  0.4280890000000  0.5643100000000  0.5441130000000 1.0
C      1  0.5395410000000  0.5712530000000  0.5668600000000 1.0
C      1  0.5217890000000  0.5167590000000  0.3891160000000 1.0
C      1  0.4705560000000  0.4251200000000  0.4221440000000 1.0
C      1  0.4519880000000  0.4554680000000  0.5564310000000 1.0
C      1  0.4054260000000  0.5452360000000  0.4967090000000 1.0
C      1  0.5148020000000  0.5177850000000  0.5235700000000 1.0
C      1  0.5237760000000  0.4534340000000  0.4233850000000 1.0
C      1  0.4095250000000  0.4724760000000  0.4379820000000 1.0
C      1  0.5683330000000  0.4130610000000  0.5311650000000 1.0
C      1  0.4046350000000  0.4273480000000  0.5196240000000 1.0
C      1  0.5329830000000  0.5958790000000  0.4631910000000 1.0
C      1  0.5375260000000  0.4789760000000  0.4821920000000 1.0
C      1  0.5203210000000  0.5332210000000  0.5983020000000 1.0
C      1  0.5460920000000  0.5168900000000  0.6130280000000 1.0
C      1  0.4910740000000  0.5353720000000  0.5119260000000 1.0
C      1  0.5605200000000  0.6000160000000  0.5023340000000 1.0
C      1  0.4728540000000  0.6030070000000  0.5150770000000 1.0
C      1  0.5743290000000  0.4108090000000  0.4219390000000 1.0
END
