TITL C-2778433-5640-1004 -0.000105489765951331 125000 -745.635585035589 0 0 127 (C1) n - 1
REM
REM in /home/nfs/bkarasulu/CARBON/AIRSS/Generating-Clusters/REBO/Only-C1/SD-CG/HFTN-CG
REM
REM
REM
REM
REM
REM ./C.cell (11c1c37f851c82e70ff6c80c92926a4b)
REM
REM compiler GCC version 9.2.1 20190827 (Red Hat 9.2.1-1)
REM options -cpp -mtune=generic -march=x86-64 -g -O0 -fpre-include=/usr/include/finclude/math-vector-fortran.h
REM seed -24665041 1958902423 1698069866 922910795 -172213652 -635300177 770266388 -1986350876 1961405924 1919327587 -1891916575 455447769 -1435174503 -1153299895 -1116698740 -1038917731 1421712787 -608468418 -1743960209 732033653 -2130229984 2091826053 276740653 1432685053 12887740 -502854304 1182653528 55310217 -748443308 -902147233 853487711 -27428729 -1680952003
REM
CELL 1.54180   50.00000   50.00000   50.00000   90.00000   90.00000   90.00000
LATT -1
SFAC C  
C      1  0.5110900000000  0.5256090000000  0.5866920000000 1.0
C      1  0.5738890000000  0.4777580000000  0.4370080000000 1.0
C      1  0.4075510000000  0.4345850000000  0.4997670000000 1.0
C      1  0.4592010000000  0.5697900000000  0.5353110000000 1.0
C      1  0.4523350000000  0.4790550000000  0.5707800000000 1.0
C      1  0.4652370000000  0.4928820000000  0.4584730000000 1.0
C      1  0.5953790000000  0.4965880000000  0.5404750000000 1.0
C      1  0.5605800000000  0.4828060000000  0.4741980000000 1.0
C      1  0.5873040000000  0.5858420000000  0.4848610000000 1.0
C      1  0.5318090000000  0.4754450000000  0.4160230000000 1.0
C      1  0.4297650000000  0.4939430000000  0.5562810000000 1.0
C      1  0.5111780000000  0.4557060000000  0.4633760000000 1.0
C      1  0.5878350000000  0.5247530000000  0.5398060000000 1.0
C      1  0.4587930000000  0.5341510000000  0.5808800000000 1.0
C      1  0.4018490000000  0.4804190000000  0.4727020000000 1.0
C      1  0.5454030000000  0.5223850000000  0.4311000000000 1.0
C      1  0.4526430000000  0.5909560000000  0.4666140000000 1.0
C      1  0.5453760000000  0.5103410000000  0.5133930000000 1.0
C      1  0.5234320000000  0.5178720000000  0.4927060000000 1.0
C      1  0.5495140000000  0.4815450000000  0.5681550000000 1.0
C      1  0.4131210000000  0.4892350000000  0.4987540000000 1.0
C      1  0.6022840000000  0.4644250000000  0.5512280000000 1.0
C      1  0.4948480000000  0.5216400000000  0.4115980000000 1.0
C      1  0.5281310000000  0.5908030000000  0.5368640000000 1.0
C      1  0.4454910000000  0.5377710000000  0.4467650000000 1.0
C      1  0.4760630000000  0.5251790000000  0.4377590000000 1.0
C      1  0.4417360000000  0.4785400000000  0.5043870000000 1.0
C      1  0.5639040000000  0.4862180000000  0.5039930000000 1.0
C      1  0.4102900000000  0.4827820000000  0.5308500000000 1.0
C      1  0.5371180000000  0.4512610000000  0.5298770000000 1.0
C      1  0.5555060000000  0.5577440000000  0.5123590000000 1.0
C      1  0.5686220000000  0.4513510000000  0.4503610000000 1.0
C      1  0.4251840000000  0.5708500000000  0.4934160000000 1.0
C      1  0.3783080000000  0.4874790000000  0.4631210000000 1.0
C      1  0.6055170000000  0.4710760000000  0.5198890000000 1.0
C      1  0.5500740000000  0.5852800000000  0.5263370000000 1.0
C      1  0.4284160000000  0.5642890000000  0.5218030000000 1.0
C      1  0.4458900000000  0.5445230000000  0.5526140000000 1.0
C      1  0.4541460000000  0.5708380000000  0.4485580000000 1.0
C      1  0.4731750000000  0.5438720000000  0.5040050000000 1.0
C      1  0.4260230000000  0.4436800000000  0.4810530000000 1.0
C      1  0.4875150000000  0.5393330000000  0.4732610000000 1.0
C      1  0.4773230000000  0.5202300000000  0.5483170000000 1.0
C      1  0.5040730000000  0.5022920000000  0.5418390000000 1.0
C      1  0.4053280000000  0.5140870000000  0.5433560000000 1.0
C      1  0.5331410000000  0.5036520000000  0.5508070000000 1.0
C      1  0.5930640000000  0.5446140000000  0.5155100000000 1.0
C      1  0.4470040000000  0.4575820000000  0.4348640000000 1.0
C      1  0.4228770000000  0.4303020000000  0.5239550000000 1.0
C      1  0.4946040000000  0.4756460000000  0.4970430000000 1.0
C      1  0.4775960000000  0.4945710000000  0.4120770000000 1.0
C      1  0.4865490000000  0.4181490000000  0.5175240000000 1.0
C      1  0.4685840000000  0.5961080000000  0.4877500000000 1.0
C      1  0.4720800000000  0.5122300000000  0.4798560000000 1.0
C      1  0.4448480000000  0.5161500000000  0.5389790000000 1.0
C      1  0.4301070000000  0.4574670000000  0.5399090000000 1.0
C      1  0.4755820000000  0.5574120000000  0.5628460000000 1.0
C      1  0.5855120000000  0.4935290000000  0.4600270000000 1.0
C      1  0.5756350000000  0.4787440000000  0.5616340000000 1.0
C      1  0.4322340000000  0.5512750000000  0.4750630000000 1.0
C      1  0.5507050000000  0.4256710000000  0.5184540000000 1.0
C      1  0.4539390000000  0.4792660000000  0.4169300000000 1.0
C      1  0.5083350000000  0.5510920000000  0.5647590000000 1.0
C      1  0.4976270000000  0.5063530000000  0.5113950000000 1.0
C      1  0.5077740000000  0.5662320000000  0.4364630000000 1.0
C      1  0.5182880000000  0.5386010000000  0.4193830000000 1.0
C      1  0.5216010000000  0.4399240000000  0.5559490000000 1.0
C      1  0.4947190000000  0.4588610000000  0.5624990000000 1.0
C      1  0.5689400000000  0.5413140000000  0.4416610000000 1.0
C      1  0.5580440000000  0.4276300000000  0.4909520000000 1.0
C      1  0.5234200000000  0.5481630000000  0.5159550000000 1.0
C      1  0.4924150000000  0.5420420000000  0.5295560000000 1.0
C      1  0.5014460000000  0.5051720000000  0.4473220000000 1.0
C      1  0.5331210000000  0.5543740000000  0.4528530000000 1.0
C      1  0.5024270000000  0.5581040000000  0.4946200000000 1.0
C      1  0.5453030000000  0.5792010000000  0.4644160000000 1.0
C      1  0.5032110000000  0.5731670000000  0.5391940000000 1.0
C      1  0.4839970000000  0.4279690000000  0.5607370000000 1.0
C      1  0.5780550000000  0.4463950000000  0.4793430000000 1.0
C      1  0.4682640000000  0.4385100000000  0.4402230000000 1.0
C      1  0.5426530000000  0.4373680000000  0.4469290000000 1.0
C      1  0.5441190000000  0.4798470000000  0.5286580000000 1.0
C      1  0.5018810000000  0.4800160000000  0.4259370000000 1.0
C      1  0.5078520000000  0.4119090000000  0.5425950000000 1.0
C      1  0.4467720000000  0.5298840000000  0.4911050000000 1.0
C      1  0.4522090000000  0.4493510000000  0.4984640000000 1.0
C      1  0.4696110000000  0.5046560000000  0.5776510000000 1.0
C      1  0.4788730000000  0.4507790000000  0.4856720000000 1.0
C      1  0.5059030000000  0.4759980000000  0.5873060000000 1.0
C      1  0.4675170000000  0.4118920000000  0.4899370000000 1.0
C      1  0.4804190000000  0.5833130000000  0.5163820000000 1.0
C      1  0.5373840000000  0.5349020000000  0.5582490000000 1.0
C      1  0.4293130000000  0.5159940000000  0.5108420000000 1.0
C      1  0.5106560000000  0.4929860000000  0.4763720000000 1.0
C      1  0.5367590000000  0.4042440000000  0.5300340000000 1.0
C      1  0.4813260000000  0.5552090000000  0.4470810000000 1.0
C      1  0.4626370000000  0.4377710000000  0.5287800000000 1.0
C      1  0.5356170000000  0.4255890000000  0.4726980000000 1.0
C      1  0.4575530000000  0.4771770000000  0.5330080000000 1.0
C      1  0.5615690000000  0.5421250000000  0.5771150000000 1.0
C      1  0.4564260000000  0.4479730000000  0.5598480000000 1.0
C      1  0.4221770000000  0.4885960000000  0.4393480000000 1.0
C      1  0.5311070000000  0.4625090000000  0.5781500000000 1.0
C      1  0.4143730000000  0.5397440000000  0.5287220000000 1.0
C      1  0.5874220000000  0.4663190000000  0.4987440000000 1.0
C      1  0.5849830000000  0.5380220000000  0.5683170000000 1.0
C      1  0.5527420000000  0.4921010000000  0.4234320000000 1.0
C      1  0.4659470000000  0.5001190000000  0.5092860000000 1.0
C      1  0.4218370000000  0.4599750000000  0.4555010000000 1.0
C      1  0.5821600000000  0.5412810000000  0.4655740000000 1.0
C      1  0.5267450000000  0.5247600000000  0.4594600000000 1.0
C      1  0.4934110000000  0.4469590000000  0.4291920000000 1.0
C      1  0.5792710000000  0.5593420000000  0.4901120000000 1.0
C      1  0.4670420000000  0.4202220000000  0.4628440000000 1.0
C      1  0.4997040000000  0.5873280000000  0.4861500000000 1.0
C      1  0.5565160000000  0.5318060000000  0.5307440000000 1.0
C      1  0.4912100000000  0.4725560000000  0.5318050000000 1.0
C      1  0.4822450000000  0.4705870000000  0.4593710000000 1.0
C      1  0.4971200000000  0.5020160000000  0.5893950000000 1.0
C      1  0.5967510000000  0.5173490000000  0.4694100000000 1.0
C      1  0.5072740000000  0.4448080000000  0.5189660000000 1.0
C      1  0.5246440000000  0.4473850000000  0.4267350000000 1.0
C      1  0.4426790000000  0.5051240000000  0.4452570000000 1.0
C      1  0.4470500000000  0.4129880000000  0.5142480000000 1.0
C      1  0.5160980000000  0.5891330000000  0.4605410000000 1.0
C      1  0.5354090000000  0.4743080000000  0.4655180000000 1.0
C      1  0.5077400000000  0.4329950000000  0.4870450000000 1.0
END
