TITL C-2778423-5760-452 0.0983430711534752 125000 -186.867558283004 0 0 34 (C1) n - 1
REM
REM in /home/nfs/bkarasulu/CARBON/AIRSS/Generating-Clusters/REBO/Only-C1/SD-CG/HFTN-CG
REM
REM
REM
REM
REM
REM ./C.cell (11c1c37f851c82e70ff6c80c92926a4b)
REM
REM compiler GCC version 9.2.1 20190827 (Red Hat 9.2.1-1)
REM options -cpp -mtune=generic -march=x86-64 -g -O0 -fpre-include=/usr/include/finclude/math-vector-fortran.h
REM seed 1017187670 395695865 -598667654 -439172745 -1421812325 -1039051258 -1246321504 -1913737790 1148330400 -1506753216 -1902825001 1140968528 -1385879615 -490560554 -841650610 -259092477 2125692489 -161282475 -1555155032 -792875468 1407767018 1282651832 1529811597 444761451 1624968591 -419535154 462499942 -491579618 467748036 -1020588830 703734470 -1429234070 511850080
REM
CELL 1.54180   50.00000   50.00000   50.00000   90.00000   90.00000   90.00000
LATT -1
SFAC C  
C      1  0.4885010000000  0.5304290000000  0.5299710000000 1.0
C      1  0.5465270000000  0.5495050000000  0.4944720000000 1.0
C      1  0.4817290000000  0.4872870000000  0.5455690000000 1.0
C      1  0.4599980000000  0.5246410000000  0.5264820000000 1.0
C      1  0.4629590000000  0.4583480000000  0.4959320000000 1.0
C      1  0.4767670000000  0.4101430000000  0.5622920000000 1.0
C      1  0.5299660000000  0.4707870000000  0.4545940000000 1.0
C      1  0.5162970000000  0.4617050000000  0.5184980000000 1.0
C      1  0.5236890000000  0.5345880000000  0.4956240000000 1.0
C      1  0.5423180000000  0.4610810000000  0.5198020000000 1.0
C      1  0.4934970000000  0.4603450000000  0.5413800000000 1.0
C      1  0.6189870000000  0.5178670000000  0.4560990000000 1.0
C      1  0.5222380000000  0.5100200000000  0.4830210000000 1.0
C      1  0.4817190000000  0.4919320000000  0.4538080000000 1.0
C      1  0.5253530000000  0.5092290000000  0.5564640000000 1.0
C      1  0.4295990000000  0.4626680000000  0.4918090000000 1.0
C      1  0.5004700000000  0.5457250000000  0.5090460000000 1.0
C      1  0.5003570000000  0.5094400000000  0.5461870000000 1.0
C      1  0.4625860000000  0.4993500000000  0.4386370000000 1.0
C      1  0.4459980000000  0.5447480000000  0.5127700000000 1.0
C      1  0.4984360000000  0.5862890000000  0.4820680000000 1.0
C      1  0.4445970000000  0.4800640000000  0.5135310000000 1.0
C      1  0.4571380000000  0.5671780000000  0.4993790000000 1.0
C      1  0.5688000000000  0.5028650000000  0.4630330000000 1.0
C      1  0.4820220000000  0.4293810000000  0.5462370000000 1.0
C      1  0.4959500000000  0.4642270000000  0.4931330000000 1.0
C      1  0.5047110000000  0.4830180000000  0.4720380000000 1.0
C      1  0.5351280000000  0.4497030000000  0.4384680000000 1.0
C      1  0.4857240000000  0.5672690000000  0.4968680000000 1.0
C      1  0.5940950000000  0.5104260000000  0.4595380000000 1.0
C      1  0.4573060000000  0.4961020000000  0.5321580000000 1.0
C      1  0.4823300000000  0.4414910000000  0.5152530000000 1.0
C      1  0.5424220000000  0.4949800000000  0.4666770000000 1.0
C      1  0.4417870000000  0.5871670000000  0.4891590000000 1.0
END
