TITL C-2778431-5191-973 0.000941029582714133 125000 -785.645016319785 0 0 135 (C1) n - 1
REM
REM in /home/nfs/bkarasulu/CARBON/AIRSS/Generating-Clusters/REBO/Only-C1/SD-CG/HFTN-CG
REM
REM
REM
REM
REM
REM ./C.cell (11c1c37f851c82e70ff6c80c92926a4b)
REM
REM compiler GCC version 9.2.1 20190827 (Red Hat 9.2.1-1)
REM options -cpp -mtune=generic -march=x86-64 -g -O0 -fpre-include=/usr/include/finclude/math-vector-fortran.h
REM seed 1340000367 -1428158869 1614458391 486599785 -169960867 1547527492 621780006 1575598320 1519467279 -445685804 806679127 -1870102546 -1993541120 1883143124 1586436782 177528353 1431333760 -412319842 1957487727 -2100206984 -1887298555 -913001430 -909094014 951609778 -1794617022 -243918342 1030921003 -590983458 265049020 -858743731 2087284485 -177573927 71136052
REM
CELL 1.54180   50.00000   50.00000   50.00000   90.00000   90.00000   90.00000
LATT -1
SFAC C  
C      1  0.4146290000000  0.4295920000000  0.4915650000000 1.0
C      1  0.5172400000000  0.5014540000000  0.4515410000000 1.0
C      1  0.5561070000000  0.4804270000000  0.4811370000000 1.0
C      1  0.4681460000000  0.5443900000000  0.5603850000000 1.0
C      1  0.4594590000000  0.5107110000000  0.4414060000000 1.0
C      1  0.4902460000000  0.4562170000000  0.5484360000000 1.0
C      1  0.4119380000000  0.5019230000000  0.5137790000000 1.0
C      1  0.5410420000000  0.4758630000000  0.4165870000000 1.0
C      1  0.5136330000000  0.5265100000000  0.5915780000000 1.0
C      1  0.5493120000000  0.5731240000000  0.4501090000000 1.0
C      1  0.5682540000000  0.5377140000000  0.5055040000000 1.0
C      1  0.5481640000000  0.5345970000000  0.5524480000000 1.0
C      1  0.4929480000000  0.5051680000000  0.6041200000000 1.0
C      1  0.4620690000000  0.6025040000000  0.5057690000000 1.0
C      1  0.5694160000000  0.4905260000000  0.5392860000000 1.0
C      1  0.4277950000000  0.4917590000000  0.4916030000000 1.0
C      1  0.4992240000000  0.4219520000000  0.4523290000000 1.0
C      1  0.4538040000000  0.5238790000000  0.5188550000000 1.0
C      1  0.4570810000000  0.4458750000000  0.4494280000000 1.0
C      1  0.4228730000000  0.4840790000000  0.4427640000000 1.0
C      1  0.5127030000000  0.5131170000000  0.5074440000000 1.0
C      1  0.4850820000000  0.4428660000000  0.5793770000000 1.0
C      1  0.5755060000000  0.5323150000000  0.5443900000000 1.0
C      1  0.5178140000000  0.4040950000000  0.5077640000000 1.0
C      1  0.5497220000000  0.5175100000000  0.4182640000000 1.0
C      1  0.5701050000000  0.4857130000000  0.4312360000000 1.0
C      1  0.5908080000000  0.5117830000000  0.4394030000000 1.0
C      1  0.4898150000000  0.4584300000000  0.4120070000000 1.0
C      1  0.4407410000000  0.5480920000000  0.5540420000000 1.0
C      1  0.4415680000000  0.4656870000000  0.4300470000000 1.0
C      1  0.5545100000000  0.4368800000000  0.5232420000000 1.0
C      1  0.4948860000000  0.4347020000000  0.5267290000000 1.0
C      1  0.4875570000000  0.4117950000000  0.5036590000000 1.0
C      1  0.5974590000000  0.5355640000000  0.4538600000000 1.0
C      1  0.5699120000000  0.4554580000000  0.5696820000000 1.0
C      1  0.4563590000000  0.4233110000000  0.4705460000000 1.0
C      1  0.5800580000000  0.5034690000000  0.4888890000000 1.0
C      1  0.4925050000000  0.5250510000000  0.4031550000000 1.0
C      1  0.4142500000000  0.4772590000000  0.4697670000000 1.0
C      1  0.6012130000000  0.4871670000000  0.5275600000000 1.0
C      1  0.4020010000000  0.5493690000000  0.4235520000000 1.0
C      1  0.4320810000000  0.5114570000000  0.4388180000000 1.0
C      1  0.4464630000000  0.4763730000000  0.5530020000000 1.0
C      1  0.5504740000000  0.5888610000000  0.4762500000000 1.0
C      1  0.5121510000000  0.4795760000000  0.6015050000000 1.0
C      1  0.5404820000000  0.5060480000000  0.4931460000000 1.0
C      1  0.5428510000000  0.4592160000000  0.5694210000000 1.0
C      1  0.5742180000000  0.4582650000000  0.5295010000000 1.0
C      1  0.4899850000000  0.4555510000000  0.4719320000000 1.0
C      1  0.5602300000000  0.4191880000000  0.4966540000000 1.0
C      1  0.4754970000000  0.5530150000000  0.4802260000000 1.0
C      1  0.4827300000000  0.4148010000000  0.4741840000000 1.0
C      1  0.4842610000000  0.5613120000000  0.5759730000000 1.0
C      1  0.4734040000000  0.4995260000000  0.4769540000000 1.0
C      1  0.4052750000000  0.4513980000000  0.4777430000000 1.0
C      1  0.4808750000000  0.5188950000000  0.5509100000000 1.0
C      1  0.5137530000000  0.4760970000000  0.4068990000000 1.0
C      1  0.5034860000000  0.4219990000000  0.5635180000000 1.0
C      1  0.4550120000000  0.5535280000000  0.4264270000000 1.0
C      1  0.5298070000000  0.4207230000000  0.4572800000000 1.0
C      1  0.4844560000000  0.4941030000000  0.4291890000000 1.0
C      1  0.5309650000000  0.5127120000000  0.5686400000000 1.0
C      1  0.5352240000000  0.4089430000000  0.4860040000000 1.0
C      1  0.4406970000000  0.4185930000000  0.4935570000000 1.0
C      1  0.5253620000000  0.4725030000000  0.4778950000000 1.0
C      1  0.4625110000000  0.5238550000000  0.4877140000000 1.0
C      1  0.4718660000000  0.6081470000000  0.5317390000000 1.0
C      1  0.5883710000000  0.4882750000000  0.4600870000000 1.0
C      1  0.5376550000000  0.5762430000000  0.5254860000000 1.0
C      1  0.5045370000000  0.4637830000000  0.5012520000000 1.0
C      1  0.5247440000000  0.4527200000000  0.4515260000000 1.0
C      1  0.5668660000000  0.4952220000000  0.5667480000000 1.0
C      1  0.4783210000000  0.6087620000000  0.4833860000000 1.0
C      1  0.4222100000000  0.5239810000000  0.5576000000000 1.0
C      1  0.4496480000000  0.5753680000000  0.5041280000000 1.0
C      1  0.5252270000000  0.5749690000000  0.4351540000000 1.0
C      1  0.5418660000000  0.5110420000000  0.4438400000000 1.0
C      1  0.4196750000000  0.4960100000000  0.5614980000000 1.0
C      1  0.4998280000000  0.5801530000000  0.4471810000000 1.0
C      1  0.4609340000000  0.5010280000000  0.6062220000000 1.0
C      1  0.5297960000000  0.4905470000000  0.5353810000000 1.0
C      1  0.4478550000000  0.4437120000000  0.5428060000000 1.0
C      1  0.5765110000000  0.4272590000000  0.4749130000000 1.0
C      1  0.5603130000000  0.4352710000000  0.4537390000000 1.0
C      1  0.5058560000000  0.5017120000000  0.3962660000000 1.0
C      1  0.4655670000000  0.4752070000000  0.4645420000000 1.0
C      1  0.4467650000000  0.4839690000000  0.5864860000000 1.0
C      1  0.4388030000000  0.5707150000000  0.4763520000000 1.0
C      1  0.5308460000000  0.5573900000000  0.4908930000000 1.0
C      1  0.5111080000000  0.5177540000000  0.5411650000000 1.0
C      1  0.4260020000000  0.5375920000000  0.4298500000000 1.0
C      1  0.5234310000000  0.4485530000000  0.5228120000000 1.0
C      1  0.5336220000000  0.4106370000000  0.5298830000000 1.0
C      1  0.6036790000000  0.4581120000000  0.5224980000000 1.0
C      1  0.5011770000000  0.4746900000000  0.4464400000000 1.0
C      1  0.4515030000000  0.4770840000000  0.5017230000000 1.0
C      1  0.4938070000000  0.5922230000000  0.5390000000000 1.0
C      1  0.4839820000000  0.4070910000000  0.5427500000000 1.0
C      1  0.4713190000000  0.5515390000000  0.5147150000000 1.0
C      1  0.4637380000000  0.4972150000000  0.5340480000000 1.0
C      1  0.4968150000000  0.5584170000000  0.5363040000000 1.0
C      1  0.4344700000000  0.5607910000000  0.5270510000000 1.0
C      1  0.4796230000000  0.5569010000000  0.4499860000000 1.0
C      1  0.4085900000000  0.4831440000000  0.5363600000000 1.0
C      1  0.4629560000000  0.4753200000000  0.4122920000000 1.0
C      1  0.4804190000000  0.4808820000000  0.5116030000000 1.0
C      1  0.5556700000000  0.4666410000000  0.4525760000000 1.0
C      1  0.4408560000000  0.4533370000000  0.5123210000000 1.0
C      1  0.5007190000000  0.4549520000000  0.6047760000000 1.0
C      1  0.5059610000000  0.5524940000000  0.5901670000000 1.0
C      1  0.4707930000000  0.5445140000000  0.4010790000000 1.0
C      1  0.4996960000000  0.5701650000000  0.4935810000000 1.0
C      1  0.4409750000000  0.5667890000000  0.4525710000000 1.0
C      1  0.4856940000000  0.4392030000000  0.4341530000000 1.0
C      1  0.5531590000000  0.5494590000000  0.4703820000000 1.0
C      1  0.5303340000000  0.5539310000000  0.5424860000000 1.0
C      1  0.4589110000000  0.4185560000000  0.5223530000000 1.0
C      1  0.5137520000000  0.5886080000000  0.5165140000000 1.0
C      1  0.5033000000000  0.4983160000000  0.4811710000000 1.0
C      1  0.4223640000000  0.5291150000000  0.5242920000000 1.0
C      1  0.5099220000000  0.5427100000000  0.5100460000000 1.0
C      1  0.5591650000000  0.5705190000000  0.5035990000000 1.0
C      1  0.5522400000000  0.5109400000000  0.5205840000000 1.0
C      1  0.5913180000000  0.5165370000000  0.5183870000000 1.0
C      1  0.5563960000000  0.5183890000000  0.4685890000000 1.0
C      1  0.5064490000000  0.4791280000000  0.5501740000000 1.0
C      1  0.5847340000000  0.5451020000000  0.4763700000000 1.0
C      1  0.4751280000000  0.4738130000000  0.5806300000000 1.0
C      1  0.4938550000000  0.4980800000000  0.5712360000000 1.0
C      1  0.5271950000000  0.6057100000000  0.4782270000000 1.0
C      1  0.5315510000000  0.4832430000000  0.5809780000000 1.0
C      1  0.5261420000000  0.4401100000000  0.5549530000000 1.0
C      1  0.4851570000000  0.5286690000000  0.4348550000000 1.0
C      1  0.4174550000000  0.4564580000000  0.5329040000000 1.0
C      1  0.5006060000000  0.6006550000000  0.4677560000000 1.0
END
