TITL C-2778422-5617-331 0.00061705917501609 125000 -632.729556302071 0 0 109 (C1) n - 1
REM
REM in /home/nfs/bkarasulu/CARBON/AIRSS/Generating-Clusters/REBO/Only-C1/SD-CG/HFTN-CG
REM
REM
REM
REM
REM
REM ./C.cell (11c1c37f851c82e70ff6c80c92926a4b)
REM
REM compiler GCC version 9.2.1 20190827 (Red Hat 9.2.1-1)
REM options -cpp -mtune=generic -march=x86-64 -g -O0 -fpre-include=/usr/include/finclude/math-vector-fortran.h
REM seed -1401874052 619071212 -1981751783 106419540 -700398851 -1549155015 1566675628 -642220351 1940101221 -975859123 1962187893 -1333442667 809254110 -542550732 1554045000 -1116473529 1907576839 596702807 1467580695 -544937219 -1566756591 645705081 -1792747397 1507550880 -1239211337 551656858 35305405 -541325634 1323070499 -2005773289 845588879 283663423 -1166748522
REM
CELL 1.54180   50.00000   50.00000   50.00000   90.00000   90.00000   90.00000
LATT -1
SFAC C  
C      1  0.5745820000000  0.5586380000000  0.4609330000000 1.0
C      1  0.5014590000000  0.4536650000000  0.5174320000000 1.0
C      1  0.4510990000000  0.5208380000000  0.4462160000000 1.0
C      1  0.5081070000000  0.5141460000000  0.5174910000000 1.0
C      1  0.4231640000000  0.4290410000000  0.4717190000000 1.0
C      1  0.4385370000000  0.5441400000000  0.4907150000000 1.0
C      1  0.4776710000000  0.5076960000000  0.4744760000000 1.0
C      1  0.4631820000000  0.4812690000000  0.5919940000000 1.0
C      1  0.4399760000000  0.5103270000000  0.5385210000000 1.0
C      1  0.5472640000000  0.5071980000000  0.5212160000000 1.0
C      1  0.4662250000000  0.5111730000000  0.5054980000000 1.0
C      1  0.5803380000000  0.5069710000000  0.5130670000000 1.0
C      1  0.5282000000000  0.5575490000000  0.5607790000000 1.0
C      1  0.4826320000000  0.4963300000000  0.4440890000000 1.0
C      1  0.4399250000000  0.4324940000000  0.4949090000000 1.0
C      1  0.4749200000000  0.5323210000000  0.5304200000000 1.0
C      1  0.5492630000000  0.5245400000000  0.4439730000000 1.0
C      1  0.4336710000000  0.4605610000000  0.5079080000000 1.0
C      1  0.4996210000000  0.5142390000000  0.5871670000000 1.0
C      1  0.4644680000000  0.4213870000000  0.5002540000000 1.0
C      1  0.4116560000000  0.4936870000000  0.5044790000000 1.0
C      1  0.5414260000000  0.4770900000000  0.5773250000000 1.0
C      1  0.4909500000000  0.4384480000000  0.4891530000000 1.0
C      1  0.4531590000000  0.5458670000000  0.4620800000000 1.0
C      1  0.5723810000000  0.4570020000000  0.5041470000000 1.0
C      1  0.4795560000000  0.5481460000000  0.4402320000000 1.0
C      1  0.5310200000000  0.4908840000000  0.4235210000000 1.0
C      1  0.5199420000000  0.5450250000000  0.4087350000000 1.0
C      1  0.4788330000000  0.4004810000000  0.4566860000000 1.0
C      1  0.4891470000000  0.5222660000000  0.5557330000000 1.0
C      1  0.4401020000000  0.4994140000000  0.4639060000000 1.0
C      1  0.4774460000000  0.4534000000000  0.4163450000000 1.0
C      1  0.5944030000000  0.5368650000000  0.5322250000000 1.0
C      1  0.5288510000000  0.5387060000000  0.5055090000000 1.0
C      1  0.5782510000000  0.4291640000000  0.5192910000000 1.0
C      1  0.5561590000000  0.5631140000000  0.5210620000000 1.0
C      1  0.4838540000000  0.4819050000000  0.3989070000000 1.0
C      1  0.4535350000000  0.5574690000000  0.5368860000000 1.0
C      1  0.4731830000000  0.5062680000000  0.4012380000000 1.0
C      1  0.5220860000000  0.5731260000000  0.4499840000000 1.0
C      1  0.4994800000000  0.5836690000000  0.5215670000000 1.0
C      1  0.4657420000000  0.5811420000000  0.5177840000000 1.0
C      1  0.5035810000000  0.5879300000000  0.4699100000000 1.0
C      1  0.5605970000000  0.4615790000000  0.5346740000000 1.0
C      1  0.4679550000000  0.5074230000000  0.5860440000000 1.0
C      1  0.4598280000000  0.4723520000000  0.4704900000000 1.0
C      1  0.5542200000000  0.4869330000000  0.4731000000000 1.0
C      1  0.4722620000000  0.4623090000000  0.5710450000000 1.0
C      1  0.5826420000000  0.5142380000000  0.4798070000000 1.0
C      1  0.4362900000000  0.5360690000000  0.5216800000000 1.0
C      1  0.4988270000000  0.4894490000000  0.5558700000000 1.0
C      1  0.4773890000000  0.5753150000000  0.4708100000000 1.0
C      1  0.5121810000000  0.5117780000000  0.4372970000000 1.0
C      1  0.5116350000000  0.4132540000000  0.5124810000000 1.0
C      1  0.5074660000000  0.4692130000000  0.4188150000000 1.0
C      1  0.4658130000000  0.5240790000000  0.4208470000000 1.0
C      1  0.4895150000000  0.5358690000000  0.4997830000000 1.0
C      1  0.5112700000000  0.5038160000000  0.4707140000000 1.0
C      1  0.5513780000000  0.4811410000000  0.4404650000000 1.0
C      1  0.5032270000000  0.4555070000000  0.5583860000000 1.0
C      1  0.5136890000000  0.4611940000000  0.4805030000000 1.0
C      1  0.5576560000000  0.5210110000000  0.5777400000000 1.0
C      1  0.4812300000000  0.5721430000000  0.5472020000000 1.0
C      1  0.5729740000000  0.5302120000000  0.4592580000000 1.0
C      1  0.5588430000000  0.5480660000000  0.5645830000000 1.0
C      1  0.4921600000000  0.5460040000000  0.4721570000000 1.0
C      1  0.4422140000000  0.5458770000000  0.5734330000000 1.0
C      1  0.5085440000000  0.4750960000000  0.4523150000000 1.0
C      1  0.4120950000000  0.4547460000000  0.4637540000000 1.0
C      1  0.5234850000000  0.5628780000000  0.5293060000000 1.0
C      1  0.5472870000000  0.4559810000000  0.4595830000000 1.0
C      1  0.4971160000000  0.5525660000000  0.5628680000000 1.0
C      1  0.5261140000000  0.5261300000000  0.5704600000000 1.0
C      1  0.4325840000000  0.4709690000000  0.4487620000000 1.0
C      1  0.4780080000000  0.4259750000000  0.4629530000000 1.0
C      1  0.4558820000000  0.5734400000000  0.4902010000000 1.0
C      1  0.4509130000000  0.4452690000000  0.5526230000000 1.0
C      1  0.4304070000000  0.4597410000000  0.5399320000000 1.0
C      1  0.4742480000000  0.4747560000000  0.5393680000000 1.0
C      1  0.4174290000000  0.4879030000000  0.5334350000000 1.0
C      1  0.4652180000000  0.4479910000000  0.4473840000000 1.0
C      1  0.5381330000000  0.4306510000000  0.4738550000000 1.0
C      1  0.4804150000000  0.4339020000000  0.5449940000000 1.0
C      1  0.4077240000000  0.4682940000000  0.4890220000000 1.0
C      1  0.5399980000000  0.5688400000000  0.4936150000000 1.0
C      1  0.4505980000000  0.5199710000000  0.5668090000000 1.0
C      1  0.4954280000000  0.4858690000000  0.5162840000000 1.0
C      1  0.5047430000000  0.5604250000000  0.4257660000000 1.0
C      1  0.5298240000000  0.4372100000000  0.5271320000000 1.0
C      1  0.5413020000000  0.5286820000000  0.4157140000000 1.0
C      1  0.5804800000000  0.4821810000000  0.4907020000000 1.0
C      1  0.5208740000000  0.5392740000000  0.4553170000000 1.0
C      1  0.5203620000000  0.4890820000000  0.5902910000000 1.0
C      1  0.5576490000000  0.4190810000000  0.5304390000000 1.0
C      1  0.5218910000000  0.4093640000000  0.4852790000000 1.0
C      1  0.4268480000000  0.5126490000000  0.4888770000000 1.0
C      1  0.4540690000000  0.4855650000000  0.5187020000000 1.0
C      1  0.5508760000000  0.5710940000000  0.4653420000000 1.0
C      1  0.5629190000000  0.4945120000000  0.5701240000000 1.0
C      1  0.5244250000000  0.5075960000000  0.5446810000000 1.0
C      1  0.4857720000000  0.4780060000000  0.4874870000000 1.0
C      1  0.5349220000000  0.4551600000000  0.5554310000000 1.0
C      1  0.5732110000000  0.5523730000000  0.5402400000000 1.0
C      1  0.4846080000000  0.4171190000000  0.5222430000000 1.0
C      1  0.5162250000000  0.5879460000000  0.4957850000000 1.0
C      1  0.5695320000000  0.4909140000000  0.5409020000000 1.0
C      1  0.5356740000000  0.5092760000000  0.4892510000000 1.0
C      1  0.5410350000000  0.4523780000000  0.4987350000000 1.0
C      1  0.4608260000000  0.4787260000000  0.4313720000000 1.0
END
