TITL C-2778428-5639-940 -8.09083769286204e-06 125000 -162.831138901589 0 0 31 (C1) n - 1
REM
REM in /home/nfs/bkarasulu/CARBON/AIRSS/Generating-Clusters/REBO/Only-C1/SD-CG/HFTN-CG
REM
REM
REM
REM
REM
REM ./C.cell (11c1c37f851c82e70ff6c80c92926a4b)
REM
REM compiler GCC version 9.2.1 20190827 (Red Hat 9.2.1-1)
REM options -cpp -mtune=generic -march=x86-64 -g -O0 -fpre-include=/usr/include/finclude/math-vector-fortran.h
REM seed 1547386701 -1565202105 -1660651828 -159916584 -184930768 1922214497 -311926249 -1301626435 292800501 -515358556 2049313005 -1186095690 -936079960 -553718790 773982863 1928678179 -734725825 1988351351 1132413608 -1485516809 -634917101 765018349 1120223965 -1382031357 -968680426 -1866417848 -533760010 116973993 2128857006 -844651290 -1275509624 -1851000555 555507485
REM
CELL 1.54180   50.00000   50.00000   50.00000   90.00000   90.00000   90.00000
LATT -1
SFAC C  
C      1  0.4593510000000  0.4755380000000  0.4569500000000 1.0
C      1  0.4758560000000  0.4548530000000  0.6094880000000 1.0
C      1  0.4942280000000  0.5099840000000  0.5356350000000 1.0
C      1  0.5871350000000  0.5872090000000  0.5069030000000 1.0
C      1  0.4808230000000  0.4839270000000  0.4697970000000 1.0
C      1  0.5526400000000  0.4805670000000  0.4688660000000 1.0
C      1  0.4555200000000  0.5256970000000  0.5689940000000 1.0
C      1  0.3732310000000  0.4218870000000  0.4407250000000 1.0
C      1  0.5796820000000  0.5331910000000  0.4918810000000 1.0
C      1  0.5569900000000  0.5150100000000  0.4328380000000 1.0
C      1  0.5787870000000  0.4832200000000  0.4796500000000 1.0
C      1  0.3891190000000  0.4397870000000  0.4295970000000 1.0
C      1  0.4755290000000  0.4946770000000  0.5835010000000 1.0
C      1  0.5046590000000  0.5590210000000  0.4811850000000 1.0
C      1  0.4376840000000  0.4670730000000  0.4439860000000 1.0
C      1  0.5218920000000  0.5154910000000  0.4683120000000 1.0
C      1  0.5156260000000  0.4695670000000  0.5883060000000 1.0
C      1  0.3964560000000  0.4592540000000  0.4046930000000 1.0
C      1  0.4891190000000  0.4728460000000  0.5938530000000 1.0
C      1  0.5255800000000  0.5418290000000  0.4785870000000 1.0
C      1  0.4992930000000  0.5027850000000  0.5131780000000 1.0
C      1  0.4454360000000  0.5033570000000  0.5865520000000 1.0
C      1  0.5437960000000  0.5038260000000  0.4536300000000 1.0
C      1  0.5513370000000  0.5481470000000  0.4869440000000 1.0
C      1  0.4156390000000  0.4584610000000  0.4307960000000 1.0
C      1  0.5883490000000  0.5072690000000  0.4887020000000 1.0
C      1  0.5296610000000  0.4717630000000  0.4840130000000 1.0
C      1  0.4878410000000  0.5190630000000  0.5639550000000 1.0
C      1  0.5063810000000  0.5364860000000  0.5754910000000 1.0
C      1  0.5766430000000  0.5645620000000  0.4983010000000 1.0
C      1  0.5057170000000  0.4936530000000  0.4846920000000 1.0
END
