TITL C-2778427-5640-963 -0.000358177970198597 125000 -793.627290608979 0 0 136 (C1) n - 1
REM
REM in /home/nfs/bkarasulu/CARBON/AIRSS/Generating-Clusters/REBO/Only-C1/SD-CG/HFTN-CG
REM
REM
REM
REM
REM
REM ./C.cell (11c1c37f851c82e70ff6c80c92926a4b)
REM
REM compiler GCC version 9.2.1 20190827 (Red Hat 9.2.1-1)
REM options -cpp -mtune=generic -march=x86-64 -g -O0 -fpre-include=/usr/include/finclude/math-vector-fortran.h
REM seed 1371143680 -1977969080 1959576144 -1845458110 -420844609 -834146599 803311306 -1575717947 -926540849 1677208538 1554566117 -1200940163 -1654395269 1404427285 1958579726 -1291253987 453655496 116980116 1257747583 1307122356 379357117 -1307156659 -1453454899 211330010 -256005436 -1667296089 -62826288 -393116497 1271543119 2077774606 -188565403 577182108 -1833566483
REM
CELL 1.54180   50.00000   50.00000   50.00000   90.00000   90.00000   90.00000
LATT -1
SFAC C  
C      1  0.4919640000000  0.4900190000000  0.4208130000000 1.0
C      1  0.4261060000000  0.4946180000000  0.4727540000000 1.0
C      1  0.4674880000000  0.4909550000000  0.4085250000000 1.0
C      1  0.4177470000000  0.4692030000000  0.4516650000000 1.0
C      1  0.4817320000000  0.4944010000000  0.6037390000000 1.0
C      1  0.5829460000000  0.5628620000000  0.4796130000000 1.0
C      1  0.4639750000000  0.4046990000000  0.5099090000000 1.0
C      1  0.4246420000000  0.5539950000000  0.4990090000000 1.0
C      1  0.4535420000000  0.4867550000000  0.4540000000000 1.0
C      1  0.4541480000000  0.4990270000000  0.5573650000000 1.0
C      1  0.5164060000000  0.5764770000000  0.4520730000000 1.0
C      1  0.5269100000000  0.4563770000000  0.4850580000000 1.0
C      1  0.5104980000000  0.5677410000000  0.4271770000000 1.0
C      1  0.5590850000000  0.5797610000000  0.4808820000000 1.0
C      1  0.6175580000000  0.5101640000000  0.5200080000000 1.0
C      1  0.4611410000000  0.4521420000000  0.4242610000000 1.0
C      1  0.5385400000000  0.5244380000000  0.5197780000000 1.0
C      1  0.4961180000000  0.5226590000000  0.6121090000000 1.0
C      1  0.5963240000000  0.5236950000000  0.4405480000000 1.0
C      1  0.4859360000000  0.4841250000000  0.5035930000000 1.0
C      1  0.4930550000000  0.5032870000000  0.4479640000000 1.0
C      1  0.5233570000000  0.4993850000000  0.5601360000000 1.0
C      1  0.5724360000000  0.5585920000000  0.5522700000000 1.0
C      1  0.5164820000000  0.5496850000000  0.5508860000000 1.0
C      1  0.5246050000000  0.5784990000000  0.5605090000000 1.0
C      1  0.4264450000000  0.5473770000000  0.4679620000000 1.0
C      1  0.4584660000000  0.5351850000000  0.4297820000000 1.0
C      1  0.5561230000000  0.4340120000000  0.4701430000000 1.0
C      1  0.5387050000000  0.5151780000000  0.4592890000000 1.0
C      1  0.5130000000000  0.5469610000000  0.4098940000000 1.0
C      1  0.5435090000000  0.4756570000000  0.4618730000000 1.0
C      1  0.6081720000000  0.4848110000000  0.5102230000000 1.0
C      1  0.5860710000000  0.5488930000000  0.4560940000000 1.0
C      1  0.5357710000000  0.4980250000000  0.5033510000000 1.0
C      1  0.4509560000000  0.4933210000000  0.5285270000000 1.0
C      1  0.4893070000000  0.4025660000000  0.5213130000000 1.0
C      1  0.5184910000000  0.5051460000000  0.4787400000000 1.0
C      1  0.5136260000000  0.4056890000000  0.5091650000000 1.0
C      1  0.4217450000000  0.4987530000000  0.5019460000000 1.0
C      1  0.4976780000000  0.4475360000000  0.5219950000000 1.0
C      1  0.4709610000000  0.5324740000000  0.5992400000000 1.0
C      1  0.4404320000000  0.4862800000000  0.4236160000000 1.0
C      1  0.5712580000000  0.5703610000000  0.5259040000000 1.0
C      1  0.4648190000000  0.5171140000000  0.4563800000000 1.0
C      1  0.4780660000000  0.4627140000000  0.4518780000000 1.0
C      1  0.5033900000000  0.4427040000000  0.4401630000000 1.0
C      1  0.5898630000000  0.5354850000000  0.5503610000000 1.0
C      1  0.4848120000000  0.3964510000000  0.4618170000000 1.0
C      1  0.5653000000000  0.4990130000000  0.4613250000000 1.0
C      1  0.5064460000000  0.4740320000000  0.5998810000000 1.0
C      1  0.4342200000000  0.5860800000000  0.5052150000000 1.0
C      1  0.5912760000000  0.5563870000000  0.5076060000000 1.0
C      1  0.5285650000000  0.5779570000000  0.4769320000000 1.0
C      1  0.4416130000000  0.5761720000000  0.5430960000000 1.0
C      1  0.4708900000000  0.4399580000000  0.4750400000000 1.0
C      1  0.5364120000000  0.4516160000000  0.5683330000000 1.0
C      1  0.5134510000000  0.4724200000000  0.4154790000000 1.0
C      1  0.5379230000000  0.4106610000000  0.4554860000000 1.0
C      1  0.5134150000000  0.4391980000000  0.4083840000000 1.0
C      1  0.4788470000000  0.4837000000000  0.5725980000000 1.0
C      1  0.4243790000000  0.4729140000000  0.5189190000000 1.0
C      1  0.4718440000000  0.5788860000000  0.4689750000000 1.0
C      1  0.5253250000000  0.4742110000000  0.5801820000000 1.0
C      1  0.4125600000000  0.5325760000000  0.5465610000000 1.0
C      1  0.4708800000000  0.4473570000000  0.5388650000000 1.0
C      1  0.4799770000000  0.5531710000000  0.4484790000000 1.0
C      1  0.4403310000000  0.4449980000000  0.5545900000000 1.0
C      1  0.4524750000000  0.4410390000000  0.5837330000000 1.0
C      1  0.5498300000000  0.5583130000000  0.5695610000000 1.0
C      1  0.4007070000000  0.5039830000000  0.5610420000000 1.0
C      1  0.4676620000000  0.5874470000000  0.4989480000000 1.0
C      1  0.5645290000000  0.5333410000000  0.4348610000000 1.0
C      1  0.4529470000000  0.5076880000000  0.5909210000000 1.0
C      1  0.4721380000000  0.5731490000000  0.5359830000000 1.0
C      1  0.5647120000000  0.4400020000000  0.4962000000000 1.0
C      1  0.4935540000000  0.5907620000000  0.5181630000000 1.0
C      1  0.5763480000000  0.5105040000000  0.5551080000000 1.0
C      1  0.5846170000000  0.4925340000000  0.5736730000000 1.0
C      1  0.4621300000000  0.4134150000000  0.4336490000000 1.0
C      1  0.5202240000000  0.4226980000000  0.4821280000000 1.0
C      1  0.5222550000000  0.5464470000000  0.5236640000000 1.0
C      1  0.5501480000000  0.5815410000000  0.5101440000000 1.0
C      1  0.5003280000000  0.5969130000000  0.5509760000000 1.0
C      1  0.4478110000000  0.5614890000000  0.4571470000000 1.0
C      1  0.4744080000000  0.5432610000000  0.5236790000000 1.0
C      1  0.5643220000000  0.4900530000000  0.4927070000000 1.0
C      1  0.5259730000000  0.5232170000000  0.4064210000000 1.0
C      1  0.5248470000000  0.4477720000000  0.5370480000000 1.0
C      1  0.4632180000000  0.3997570000000  0.4790800000000 1.0
C      1  0.5324260000000  0.5392960000000  0.4446710000000 1.0
C      1  0.4454260000000  0.5352710000000  0.4075700000000 1.0
C      1  0.4293640000000  0.5158410000000  0.5699510000000 1.0
C      1  0.4923370000000  0.4354920000000  0.4932950000000 1.0
C      1  0.4273560000000  0.4444490000000  0.4697290000000 1.0
C      1  0.4988110000000  0.5268480000000  0.4900600000000 1.0
C      1  0.5204720000000  0.5288750000000  0.6018670000000 1.0
C      1  0.5399020000000  0.4782250000000  0.5388020000000 1.0
C      1  0.3993210000000  0.4768340000000  0.5595930000000 1.0
C      1  0.4176100000000  0.5289740000000  0.5165480000000 1.0
C      1  0.5420770000000  0.4811580000000  0.4286060000000 1.0
C      1  0.5158990000000  0.4728150000000  0.5073350000000 1.0
C      1  0.4382960000000  0.4524570000000  0.4995790000000 1.0
C      1  0.4485150000000  0.5176090000000  0.5077570000000 1.0
C      1  0.5463810000000  0.5109380000000  0.4202910000000 1.0
C      1  0.5176570000000  0.5742720000000  0.5078620000000 1.0
C      1  0.5336980000000  0.4190960000000  0.4276380000000 1.0
C      1  0.4578610000000  0.5553130000000  0.4985360000000 1.0
C      1  0.5550690000000  0.5064430000000  0.5373150000000 1.0
C      1  0.4132400000000  0.4997250000000  0.4360550000000 1.0
C      1  0.4750610000000  0.5480320000000  0.5761870000000 1.0
C      1  0.4880870000000  0.5124690000000  0.5190770000000 1.0
C      1  0.4178480000000  0.5230990000000  0.4569640000000 1.0
C      1  0.4674420000000  0.5281650000000  0.4844690000000 1.0
C      1  0.5599700000000  0.4684270000000  0.5147200000000 1.0
C      1  0.6044830000000  0.5353490000000  0.5245700000000 1.0
C      1  0.4400990000000  0.4210650000000  0.4920250000000 1.0
C      1  0.4314990000000  0.4545390000000  0.4241880000000 1.0
C      1  0.5447820000000  0.4494820000000  0.4169750000000 1.0
C      1  0.5925760000000  0.4636840000000  0.5236250000000 1.0
C      1  0.5960560000000  0.4888870000000  0.4841780000000 1.0
C      1  0.4184390000000  0.4606920000000  0.5458360000000 1.0
C      1  0.4633060000000  0.4663660000000  0.5145160000000 1.0
C      1  0.4756590000000  0.4542960000000  0.5696010000000 1.0
C      1  0.5973160000000  0.4995290000000  0.4558440000000 1.0
C      1  0.4500750000000  0.4281180000000  0.4542100000000 1.0
C      1  0.5315530000000  0.5292100000000  0.5722350000000 1.0
C      1  0.4861930000000  0.5714200000000  0.5649210000000 1.0
C      1  0.4216980000000  0.5625940000000  0.5489030000000 1.0
C      1  0.5548860000000  0.4350180000000  0.5468420000000 1.0
C      1  0.4934990000000  0.5029920000000  0.5513850000000 1.0
C      1  0.4779830000000  0.5306630000000  0.5528180000000 1.0
C      1  0.4972650000000  0.4820910000000  0.4721780000000 1.0
C      1  0.4918630000000  0.4129350000000  0.4377530000000 1.0
C      1  0.5023210000000  0.5344570000000  0.4568710000000 1.0
C      1  0.5760710000000  0.4346440000000  0.5274240000000 1.0
C      1  0.5290060000000  0.4489570000000  0.4535430000000 1.0
END
