TITL C-2778423-5760-851 -0.104743114768041 125000 -156.625244929628 0 0 30 (C1) n - 1
REM
REM in /home/nfs/bkarasulu/CARBON/AIRSS/Generating-Clusters/REBO/Only-C1/SD-CG/HFTN-CG
REM
REM
REM
REM
REM
REM ./C.cell (11c1c37f851c82e70ff6c80c92926a4b)
REM
REM compiler GCC version 9.2.1 20190827 (Red Hat 9.2.1-1)
REM options -cpp -mtune=generic -march=x86-64 -g -O0 -fpre-include=/usr/include/finclude/math-vector-fortran.h
REM seed 1604394962 -1617619628 1013910120 -1669511011 1436400464 681430674 441450524 -234260241 -1870371160 -1659532445 -1944480076 -1971434026 -942905917 -959670207 491060997 -791863970 1764685430 -1378050226 1464220510 -785249266 -154872090 -189287602 695342949 -993023522 -342484724 338609045 -164633542 341884401 1546508832 644309133 1600768111 1001285500 1133105034
REM
CELL 1.54180   50.00000   50.00000   50.00000   90.00000   90.00000   90.00000
LATT -1
SFAC C  
C      1  0.4969100000000  0.5265030000000  0.4555990000000 1.0
C      1  0.5499690000000  0.4880270000000  0.5603830000000 1.0
C      1  0.5433400000000  0.5340600000000  0.4212870000000 1.0
C      1  0.5239500000000  0.4526760000000  0.5304080000000 1.0
C      1  0.4995440000000  0.5390950000000  0.5339420000000 1.0
C      1  0.5395400000000  0.4690020000000  0.5067450000000 1.0
C      1  0.4732410000000  0.5346260000000  0.4654340000000 1.0
C      1  0.5122030000000  0.4991630000000  0.4633690000000 1.0
C      1  0.4489510000000  0.5565010000000  0.4668710000000 1.0
C      1  0.4870820000000  0.5114520000000  0.5265920000000 1.0
C      1  0.5625000000000  0.5411950000000  0.4045590000000 1.0
C      1  0.5148090000000  0.5406400000000  0.4351950000000 1.0
C      1  0.5170700000000  0.4841160000000  0.4917750000000 1.0
C      1  0.4971410000000  0.4640360000000  0.5304140000000 1.0
C      1  0.5127100000000  0.5188420000000  0.5795680000000 1.0
C      1  0.4690840000000  0.5058330000000  0.5515150000000 1.0
C      1  0.4473240000000  0.5299820000000  0.4848590000000 1.0
C      1  0.5013610000000  0.4682500000000  0.4671980000000 1.0
C      1  0.5134500000000  0.5592370000000  0.5235450000000 1.0
C      1  0.4445640000000  0.4484190000000  0.4704250000000 1.0
C      1  0.4476100000000  0.4694060000000  0.5248600000000 1.0
C      1  0.5355700000000  0.5045010000000  0.5763320000000 1.0
C      1  0.5316550000000  0.5128000000000  0.4422990000000 1.0
C      1  0.4911760000000  0.5267690000000  0.5629650000000 1.0
C      1  0.4525160000000  0.4613840000000  0.4991560000000 1.0
C      1  0.4511490000000  0.4847850000000  0.5470710000000 1.0
C      1  0.4738160000000  0.4614120000000  0.4744770000000 1.0
C      1  0.4962670000000  0.4882400000000  0.5141480000000 1.0
C      1  0.5492720000000  0.4715800000000  0.5380180000000 1.0
C      1  0.5162270000000  0.4474670000000  0.4509910000000 1.0
END
