TITL C-2778429-3646-495 -0.000830475769228309 125000 -1130.00743905803 0 0 192 (C1) n - 1
REM
REM in /home/nfs/bkarasulu/CARBON/AIRSS/Generating-Clusters/REBO/Only-C1/SD-CG/HFTN-CG
REM
REM
REM
REM
REM
REM ./C.cell (11c1c37f851c82e70ff6c80c92926a4b)
REM
REM compiler GCC version 9.2.1 20190827 (Red Hat 9.2.1-1)
REM options -cpp -mtune=generic -march=x86-64 -g -O0 -fpre-include=/usr/include/finclude/math-vector-fortran.h
REM seed -316111005 1541270731 -358472129 192229347 517499798 1497236965 462177833 -641464321 -1980095458 488347983 315983571 -1156523274 561101326 1759637925 -928604841 -1469227791 943165280 -35681888 -802799765 -1117598547 -2143131283 1181689109 -1254483428 1774797349 -1609671371 1275043514 -1655321908 -1475403649 935036935 -1378348539 -145646609 1367739237 -1517094408
REM
CELL 1.54180   50.00000   50.00000   50.00000   90.00000   90.00000   90.00000
LATT -1
SFAC C  
C      1  0.4757500000000  0.5553530000000  0.4966640000000 1.0
C      1  0.4687090000000  0.3929280000000  0.4506370000000 1.0
C      1  0.4722640000000  0.4223270000000  0.5210620000000 1.0
C      1  0.4129550000000  0.5656060000000  0.5508260000000 1.0
C      1  0.4191220000000  0.4929480000000  0.5601440000000 1.0
C      1  0.5295740000000  0.6020590000000  0.4812210000000 1.0
C      1  0.4564510000000  0.5997570000000  0.5070300000000 1.0
C      1  0.5899990000000  0.4601940000000  0.5765510000000 1.0
C      1  0.4872790000000  0.5848390000000  0.5409180000000 1.0
C      1  0.5060180000000  0.4465610000000  0.5918330000000 1.0
C      1  0.4729420000000  0.4262570000000  0.5637120000000 1.0
C      1  0.5035660000000  0.4720110000000  0.5726570000000 1.0
C      1  0.5685220000000  0.4920970000000  0.4406910000000 1.0
C      1  0.5245810000000  0.5099660000000  0.4261600000000 1.0
C      1  0.4861040000000  0.5857560000000  0.5727900000000 1.0
C      1  0.5577730000000  0.5743520000000  0.4791190000000 1.0
C      1  0.3847110000000  0.4656010000000  0.5420600000000 1.0
C      1  0.5281930000000  0.4979800000000  0.4534990000000 1.0
C      1  0.5247890000000  0.4871960000000  0.5309670000000 1.0
C      1  0.5069200000000  0.4621750000000  0.5419090000000 1.0
C      1  0.5954120000000  0.5153640000000  0.5678130000000 1.0
C      1  0.5293800000000  0.4270690000000  0.5339550000000 1.0
C      1  0.5718650000000  0.5285870000000  0.5847940000000 1.0
C      1  0.5666870000000  0.4711560000000  0.5384740000000 1.0
C      1  0.5697500000000  0.4279880000000  0.5386520000000 1.0
C      1  0.6071140000000  0.5234750000000  0.5152980000000 1.0
C      1  0.5421880000000  0.5377310000000  0.4798920000000 1.0
C      1  0.5520890000000  0.4658680000000  0.4562560000000 1.0
C      1  0.3923060000000  0.4841760000000  0.5216170000000 1.0
C      1  0.5594690000000  0.4514440000000  0.5012720000000 1.0
C      1  0.5610940000000  0.4983010000000  0.5565750000000 1.0
C      1  0.5634870000000  0.5831650000000  0.5286640000000 1.0
C      1  0.4211540000000  0.5705980000000  0.4854120000000 1.0
C      1  0.4491930000000  0.4251910000000  0.4957500000000 1.0
C      1  0.5507320000000  0.4740270000000  0.5947400000000 1.0
C      1  0.4716410000000  0.5140450000000  0.3800340000000 1.0
C      1  0.3972390000000  0.5197560000000  0.5048970000000 1.0
C      1  0.4804570000000  0.4511770000000  0.4359330000000 1.0
C      1  0.4407900000000  0.5009480000000  0.5356070000000 1.0
C      1  0.4605170000000  0.5680220000000  0.5481070000000 1.0
C      1  0.4518950000000  0.4167950000000  0.4553710000000 1.0
C      1  0.5064100000000  0.5012980000000  0.4792700000000 1.0
C      1  0.5345990000000  0.4653280000000  0.4920370000000 1.0
C      1  0.4919970000000  0.4492190000000  0.5194200000000 1.0
C      1  0.4468250000000  0.5004290000000  0.3894490000000 1.0
C      1  0.5785730000000  0.5195730000000  0.4508250000000 1.0
C      1  0.6021350000000  0.5337860000000  0.5451550000000 1.0
C      1  0.5809180000000  0.5515520000000  0.5605430000000 1.0
C      1  0.5865450000000  0.5605990000000  0.4841020000000 1.0
C      1  0.4283270000000  0.4904600000000  0.4538180000000 1.0
C      1  0.4788470000000  0.5273860000000  0.4254100000000 1.0
C      1  0.5396080000000  0.4579690000000  0.5352670000000 1.0
C      1  0.5091850000000  0.4238550000000  0.5059510000000 1.0
C      1  0.3825300000000  0.5022830000000  0.4795640000000 1.0
C      1  0.5220100000000  0.5570670000000  0.4405940000000 1.0
C      1  0.5455950000000  0.5554150000000  0.4146420000000 1.0
C      1  0.4804370000000  0.4610900000000  0.6033720000000 1.0
C      1  0.6054810000000  0.4909080000000  0.5088150000000 1.0
C      1  0.4387210000000  0.6044730000000  0.5293560000000 1.0
C      1  0.4677080000000  0.4595450000000  0.4821710000000 1.0
C      1  0.4979540000000  0.4020610000000  0.5297580000000 1.0
C      1  0.4358640000000  0.5812270000000  0.5462620000000 1.0
C      1  0.5153410000000  0.5677690000000  0.4090210000000 1.0
C      1  0.4491500000000  0.5461100000000  0.5933700000000 1.0
C      1  0.5288500000000  0.5649610000000  0.4950430000000 1.0
C      1  0.4674300000000  0.3975270000000  0.4902190000000 1.0
C      1  0.4098800000000  0.5077380000000  0.4344440000000 1.0
C      1  0.6051460000000  0.4906400000000  0.4757820000000 1.0
C      1  0.5772720000000  0.5358030000000  0.5139930000000 1.0
C      1  0.5284080000000  0.5053460000000  0.5593350000000 1.0
C      1  0.6019180000000  0.5177270000000  0.4664670000000 1.0
C      1  0.4846980000000  0.6035720000000  0.5062450000000 1.0
C      1  0.5742210000000  0.4965100000000  0.5190820000000 1.0
C      1  0.5916660000000  0.4861850000000  0.5657900000000 1.0
C      1  0.4295590000000  0.5132250000000  0.5090420000000 1.0
C      1  0.3961120000000  0.4862600000000  0.4575900000000 1.0
C      1  0.4509600000000  0.5737560000000  0.4962570000000 1.0
C      1  0.4355640000000  0.5867980000000  0.4618120000000 1.0
C      1  0.5008090000000  0.3957230000000  0.4549420000000 1.0
C      1  0.5200030000000  0.3883080000000  0.4806930000000 1.0
C      1  0.4544700000000  0.4536310000000  0.5656260000000 1.0
C      1  0.5466290000000  0.4914140000000  0.4787440000000 1.0
C      1  0.4811540000000  0.5454880000000  0.5394740000000 1.0
C      1  0.5613320000000  0.5635390000000  0.4396140000000 1.0
C      1  0.4560370000000  0.4710360000000  0.5404800000000 1.0
C      1  0.5571760000000  0.5225320000000  0.5345730000000 1.0
C      1  0.5838920000000  0.4615470000000  0.4930090000000 1.0
C      1  0.4014620000000  0.5414420000000  0.5493640000000 1.0
C      1  0.5805520000000  0.4468790000000  0.4561210000000 1.0
C      1  0.4274190000000  0.5238790000000  0.6047230000000 1.0
C      1  0.5134100000000  0.5311330000000  0.4702540000000 1.0
C      1  0.6050790000000  0.5382470000000  0.4855340000000 1.0
C      1  0.4242730000000  0.4252130000000  0.4721160000000 1.0
C      1  0.3953500000000  0.5503540000000  0.4898010000000 1.0
C      1  0.4833330000000  0.4597200000000  0.3855700000000 1.0
C      1  0.4053840000000  0.4648440000000  0.5604810000000 1.0
C      1  0.5573660000000  0.5146230000000  0.4955940000000 1.0
C      1  0.5544840000000  0.4066380000000  0.4893010000000 1.0
C      1  0.5588820000000  0.4951880000000  0.4125710000000 1.0
C      1  0.4763260000000  0.4988650000000  0.4166520000000 1.0
C      1  0.4483990000000  0.4213610000000  0.5431330000000 1.0
C      1  0.5476310000000  0.5249940000000  0.4058690000000 1.0
C      1  0.4756430000000  0.4371340000000  0.4626530000000 1.0
C      1  0.5394740000000  0.5803750000000  0.5743770000000 1.0
C      1  0.5161220000000  0.5746380000000  0.4658650000000 1.0
C      1  0.5268340000000  0.5838650000000  0.5438990000000 1.0
C      1  0.5381610000000  0.4753600000000  0.4056800000000 1.0
C      1  0.4828000000000  0.5105480000000  0.5800390000000 1.0
C      1  0.4463300000000  0.5611470000000  0.4234310000000 1.0
C      1  0.4776850000000  0.4999100000000  0.4672380000000 1.0
C      1  0.4337840000000  0.4622930000000  0.4805950000000 1.0
C      1  0.4920750000000  0.3884630000000  0.5001090000000 1.0
C      1  0.4613900000000  0.4455590000000  0.4075680000000 1.0
C      1  0.4852130000000  0.5772910000000  0.4512000000000 1.0
C      1  0.3738440000000  0.5309840000000  0.4748380000000 1.0
C      1  0.4647270000000  0.5228940000000  0.5254500000000 1.0
C      1  0.4442100000000  0.4350760000000  0.4312220000000 1.0
C      1  0.4923520000000  0.4991810000000  0.6029690000000 1.0
C      1  0.4983480000000  0.4146580000000  0.5584330000000 1.0
C      1  0.6116590000000  0.4608830000000  0.5212250000000 1.0
C      1  0.4392390000000  0.5283940000000  0.4593110000000 1.0
C      1  0.4589790000000  0.4829140000000  0.5026450000000 1.0
C      1  0.5281300000000  0.4503570000000  0.4159010000000 1.0
C      1  0.4693850000000  0.5279810000000  0.4545210000000 1.0
C      1  0.4572500000000  0.5200300000000  0.5794680000000 1.0
C      1  0.4998260000000  0.5729140000000  0.5110470000000 1.0
C      1  0.4081600000000  0.4544140000000  0.4612040000000 1.0
C      1  0.4019820000000  0.5124520000000  0.5378460000000 1.0
C      1  0.5309430000000  0.5347940000000  0.5327120000000 1.0
C      1  0.4985740000000  0.5640890000000  0.6034610000000 1.0
C      1  0.4571120000000  0.4702250000000  0.5906650000000 1.0
C      1  0.5130660000000  0.5872490000000  0.5882360000000 1.0
C      1  0.5346000000000  0.4150300000000  0.4647900000000 1.0
C      1  0.4545110000000  0.5792380000000  0.4438220000000 1.0
C      1  0.5003360000000  0.4487910000000  0.4108890000000 1.0
C      1  0.5902360000000  0.4510190000000  0.5378600000000 1.0
C      1  0.4687280000000  0.5665640000000  0.5919440000000 1.0
C      1  0.4953620000000  0.4979510000000  0.5555240000000 1.0
C      1  0.5972000000000  0.4303120000000  0.4719070000000 1.0
C      1  0.4842360000000  0.5382820000000  0.3874090000000 1.0
C      1  0.4902770000000  0.4900750000000  0.3890050000000 1.0
C      1  0.4151560000000  0.4462480000000  0.4321010000000 1.0
C      1  0.5779870000000  0.5672480000000  0.5125190000000 1.0
C      1  0.4405490000000  0.5014970000000  0.4809380000000 1.0
C      1  0.4859510000000  0.5490150000000  0.4680690000000 1.0
C      1  0.4793300000000  0.4934720000000  0.5281000000000 1.0
C      1  0.5312320000000  0.3813600000000  0.5096400000000 1.0
C      1  0.5079420000000  0.5927490000000  0.4311800000000 1.0
C      1  0.4289850000000  0.5127740000000  0.4070880000000 1.0
C      1  0.5298080000000  0.6067140000000  0.4472950000000 1.0
C      1  0.5088930000000  0.6077370000000  0.5281840000000 1.0
C      1  0.5014280000000  0.4584580000000  0.4879090000000 1.0
C      1  0.5485870000000  0.4320650000000  0.5642050000000 1.0
C      1  0.4725740000000  0.4815140000000  0.4414600000000 1.0
C      1  0.5045120000000  0.5262630000000  0.5237010000000 1.0
C      1  0.5908090000000  0.4749150000000  0.4561620000000 1.0
C      1  0.5161660000000  0.5354570000000  0.3965040000000 1.0
C      1  0.4726660000000  0.5213590000000  0.4935830000000 1.0
C      1  0.5543670000000  0.5888200000000  0.4529740000000 1.0
C      1  0.4680760000000  0.5517000000000  0.4082130000000 1.0
C      1  0.5623480000000  0.5414830000000  0.4568320000000 1.0
C      1  0.5633010000000  0.4526620000000  0.5827210000000 1.0
C      1  0.5183200000000  0.4263440000000  0.5745040000000 1.0
C      1  0.5063950000000  0.5305580000000  0.4386400000000 1.0
C      1  0.5614070000000  0.4242380000000  0.5104200000000 1.0
C      1  0.4249650000000  0.4427580000000  0.5568110000000 1.0
C      1  0.4271080000000  0.5384390000000  0.4865140000000 1.0
C      1  0.4226210000000  0.4308090000000  0.5255740000000 1.0
C      1  0.4517690000000  0.4723670000000  0.3898590000000 1.0
C      1  0.5254580000000  0.4468350000000  0.4662690000000 1.0
C      1  0.5178980000000  0.4036200000000  0.4304070000000 1.0
C      1  0.5373540000000  0.5986980000000  0.5142230000000 1.0
C      1  0.4476080000000  0.4529120000000  0.5159710000000 1.0
C      1  0.4437440000000  0.4676340000000  0.4410180000000 1.0
C      1  0.5063370000000  0.4987440000000  0.5080930000000 1.0
C      1  0.5230470000000  0.5335740000000  0.5718570000000 1.0
C      1  0.4972670000000  0.4204660000000  0.4767270000000 1.0
C      1  0.5179790000000  0.5007610000000  0.3950560000000 1.0
C      1  0.5353560000000  0.4275380000000  0.4327960000000 1.0
C      1  0.4272130000000  0.5371120000000  0.4308830000000 1.0
C      1  0.5207740000000  0.4829530000000  0.5994070000000 1.0
C      1  0.5132970000000  0.5399950000000  0.6045350000000 1.0
C      1  0.5121950000000  0.5551610000000  0.5497270000000 1.0
C      1  0.4105480000000  0.4744010000000  0.5026180000000 1.0
C      1  0.5284390000000  0.5153060000000  0.6069150000000 1.0
C      1  0.4131050000000  0.4418430000000  0.4990520000000 1.0
C      1  0.5543540000000  0.5045300000000  0.5969860000000 1.0
C      1  0.4361970000000  0.4966470000000  0.5859920000000 1.0
C      1  0.5375220000000  0.3972580000000  0.5277580000000 1.0
C      1  0.6117520000000  0.4446830000000  0.4944320000000 1.0
C      1  0.5645700000000  0.5739880000000  0.5551010000000 1.0
C      1  0.5479720000000  0.5500900000000  0.5824390000000 1.0
END
