TITL C-2778427-5640-646 -0.0298637677647745 125000 -147.866634551768 0 0 27 (C1) n - 1
REM
REM in /home/nfs/bkarasulu/CARBON/AIRSS/Generating-Clusters/REBO/Only-C1/SD-CG/HFTN-CG
REM
REM
REM
REM
REM
REM ./C.cell (11c1c37f851c82e70ff6c80c92926a4b)
REM
REM compiler GCC version 9.2.1 20190827 (Red Hat 9.2.1-1)
REM options -cpp -mtune=generic -march=x86-64 -g -O0 -fpre-include=/usr/include/finclude/math-vector-fortran.h
REM seed -2005053011 814775439 1275816795 -2137813382 1028651072 1120026329 -1963482204 2123215237 -86874 -296851643 906527643 -774944749 1297659493 341818462 782300182 1978884496 1951410732 322458717 -1294540410 -734559950 -1458509491 1053844384 -1960081474 924339741 1247182431 1289338760 945492704 866809915 -1372866223 1460029949 -1870671288 467963308 1633842509
REM
CELL 1.54180   50.00000   50.00000   50.00000   90.00000   90.00000   90.00000
LATT -1
SFAC C  
C      1  0.4714490000000  0.5269220000000  0.5372670000000 1.0
C      1  0.5303280000000  0.5600800000000  0.5432770000000 1.0
C      1  0.4682930000000  0.4959910000000  0.5006220000000 1.0
C      1  0.4739440000000  0.5477100000000  0.4900680000000 1.0
C      1  0.4885390000000  0.4371630000000  0.4906960000000 1.0
C      1  0.4628420000000  0.4717240000000  0.4044980000000 1.0
C      1  0.4817250000000  0.4828770000000  0.5554010000000 1.0
C      1  0.4895350000000  0.4537700000000  0.4428540000000 1.0
C      1  0.4704290000000  0.4714450000000  0.4304050000000 1.0
C      1  0.5691960000000  0.4590420000000  0.4837570000000 1.0
C      1  0.5162740000000  0.5491390000000  0.5641130000000 1.0
C      1  0.4730020000000  0.4827950000000  0.4770030000000 1.0
C      1  0.4944720000000  0.4594570000000  0.4743800000000 1.0
C      1  0.5229080000000  0.4697390000000  0.4783760000000 1.0
C      1  0.4925160000000  0.5012180000000  0.5746450000000 1.0
C      1  0.4983640000000  0.5581580000000  0.4837360000000 1.0
C      1  0.5239660000000  0.5492390000000  0.4922210000000 1.0
C      1  0.5283200000000  0.4969500000000  0.4801720000000 1.0
C      1  0.4871280000000  0.5324430000000  0.5619220000000 1.0
C      1  0.5339670000000  0.5596640000000  0.5164810000000 1.0
C      1  0.4662530000000  0.5266990000000  0.5070060000000 1.0
C      1  0.5312380000000  0.5232770000000  0.4840950000000 1.0
C      1  0.5434790000000  0.4506930000000  0.4801820000000 1.0
C      1  0.5115100000000  0.5250840000000  0.5852560000000 1.0
C      1  0.5373890000000  0.4241730000000  0.4783290000000 1.0
C      1  0.4612560000000  0.4886480000000  0.4515420000000 1.0
C      1  0.4716800000000  0.4959010000000  0.5316970000000 1.0
END
