TITL C-2778436-5916-287 -0.00230910766203561 125000 -804.898514312349 0 0 138 (C1) n - 1
REM
REM in /home/nfs/bkarasulu/CARBON/AIRSS/Generating-Clusters/REBO/Only-C1/SD-CG/HFTN-CG
REM
REM
REM
REM
REM
REM ./C.cell (11c1c37f851c82e70ff6c80c92926a4b)
REM
REM compiler GCC version 9.2.1 20190827 (Red Hat 9.2.1-1)
REM options -cpp -mtune=generic -march=x86-64 -g -O0 -fpre-include=/usr/include/finclude/math-vector-fortran.h
REM seed 1914639663 -386274894 -1493227162 834754951 221829793 1123092366 91875105 -378136589 -911516216 -1040231687 -1472218625 -1835325583 -1226163168 14645543 -1193142064 -1898754090 1545958253 380300922 1799723867 -188471036 1156038046 -1988262955 1675561076 1744956899 -1942888455 -1383178753 930559062 -1000325571 -1953191035 1435186759 -1351162220 718028302 -1187229506
REM
CELL 1.54180   50.00000   50.00000   50.00000   90.00000   90.00000   90.00000
LATT -1
SFAC C  
C      1  0.4410720000000  0.5044910000000  0.4653630000000 1.0
C      1  0.5714360000000  0.4532660000000  0.5465200000000 1.0
C      1  0.5796700000000  0.4896710000000  0.4809800000000 1.0
C      1  0.5519750000000  0.4747730000000  0.5650230000000 1.0
C      1  0.5487500000000  0.5240930000000  0.4424960000000 1.0
C      1  0.4123980000000  0.4566610000000  0.5267560000000 1.0
C      1  0.4105380000000  0.5170700000000  0.5657070000000 1.0
C      1  0.4283600000000  0.4475360000000  0.4628410000000 1.0
C      1  0.4600080000000  0.4834320000000  0.5310250000000 1.0
C      1  0.4729300000000  0.5652560000000  0.5426570000000 1.0
C      1  0.5191280000000  0.5649160000000  0.4914490000000 1.0
C      1  0.4686010000000  0.5383600000000  0.4319800000000 1.0
C      1  0.5032840000000  0.5224150000000  0.4730220000000 1.0
C      1  0.5170580000000  0.4333740000000  0.5680270000000 1.0
C      1  0.4931980000000  0.5840040000000  0.5292850000000 1.0
C      1  0.4271480000000  0.4283600000000  0.4866390000000 1.0
C      1  0.4984790000000  0.4850930000000  0.5227400000000 1.0
C      1  0.4468280000000  0.5241940000000  0.4903660000000 1.0
C      1  0.4758550000000  0.3917340000000  0.4843590000000 1.0
C      1  0.4233280000000  0.5057600000000  0.5864570000000 1.0
C      1  0.5642900000000  0.5603180000000  0.5050720000000 1.0
C      1  0.4807410000000  0.4358470000000  0.4437110000000 1.0
C      1  0.4817600000000  0.6110360000000  0.5153120000000 1.0
C      1  0.4899650000000  0.4934920000000  0.4491600000000 1.0
C      1  0.4653470000000  0.4617200000000  0.4597900000000 1.0
C      1  0.4804490000000  0.5888430000000  0.4690490000000 1.0
C      1  0.4992010000000  0.5102450000000  0.4077450000000 1.0
C      1  0.5899630000000  0.4471040000000  0.4791370000000 1.0
C      1  0.5524290000000  0.5235960000000  0.4027200000000 1.0
C      1  0.3966320000000  0.5004360000000  0.4586070000000 1.0
C      1  0.5639310000000  0.4304030000000  0.5219650000000 1.0
C      1  0.5274950000000  0.5781330000000  0.4622380000000 1.0
C      1  0.5703450000000  0.4322370000000  0.4928500000000 1.0
C      1  0.5117220000000  0.4642840000000  0.4110370000000 1.0
C      1  0.5018490000000  0.5776320000000  0.4449620000000 1.0
C      1  0.4213940000000  0.5586480000000  0.5263950000000 1.0
C      1  0.4390490000000  0.4771540000000  0.5051380000000 1.0
C      1  0.5407660000000  0.4572780000000  0.4834520000000 1.0
C      1  0.5396100000000  0.4735060000000  0.4121270000000 1.0
C      1  0.5233100000000  0.5345950000000  0.4955660000000 1.0
C      1  0.4762630000000  0.6121940000000  0.4907300000000 1.0
C      1  0.5329770000000  0.4992780000000  0.5500170000000 1.0
C      1  0.5321950000000  0.4219750000000  0.4466220000000 1.0
C      1  0.5986400000000  0.5119980000000  0.4880080000000 1.0
C      1  0.4677730000000  0.4464840000000  0.5442200000000 1.0
C      1  0.5418290000000  0.5900700000000  0.4913280000000 1.0
C      1  0.4726460000000  0.5631610000000  0.5696840000000 1.0
C      1  0.4105070000000  0.5078330000000  0.4365050000000 1.0
C      1  0.5761260000000  0.4842480000000  0.4532640000000 1.0
C      1  0.4632860000000  0.5087610000000  0.4426210000000 1.0
C      1  0.4335910000000  0.5204090000000  0.4296540000000 1.0
C      1  0.4860700000000  0.4835590000000  0.5530020000000 1.0
C      1  0.5047680000000  0.5178600000000  0.5445760000000 1.0
C      1  0.5425010000000  0.5302370000000  0.5423010000000 1.0
C      1  0.4093140000000  0.4834240000000  0.5111310000000 1.0
C      1  0.5167720000000  0.5138100000000  0.4433220000000 1.0
C      1  0.5817420000000  0.4547770000000  0.4499210000000 1.0
C      1  0.4700310000000  0.5564920000000  0.4915620000000 1.0
C      1  0.4027830000000  0.5373760000000  0.4877510000000 1.0
C      1  0.5617460000000  0.4734290000000  0.4954820000000 1.0
C      1  0.5643070000000  0.5089070000000  0.5271090000000 1.0
C      1  0.5805550000000  0.5241370000000  0.5528880000000 1.0
C      1  0.5936900000000  0.4681020000000  0.5297270000000 1.0
C      1  0.5188730000000  0.4111600000000  0.5349790000000 1.0
C      1  0.5303840000000  0.5046160000000  0.4129850000000 1.0
C      1  0.5625860000000  0.5050810000000  0.5666450000000 1.0
C      1  0.4394100000000  0.5513180000000  0.4431390000000 1.0
C      1  0.4623960000000  0.4735840000000  0.5835610000000 1.0
C      1  0.4515150000000  0.4100580000000  0.4850310000000 1.0
C      1  0.5942480000000  0.5600070000000  0.5105210000000 1.0
C      1  0.5042760000000  0.5160220000000  0.5124950000000 1.0
C      1  0.4154980000000  0.5292010000000  0.5367320000000 1.0
C      1  0.5035760000000  0.5054410000000  0.6011430000000 1.0
C      1  0.4248080000000  0.5334570000000  0.4662970000000 1.0
C      1  0.4649260000000  0.4414220000000  0.4863460000000 1.0
C      1  0.5503700000000  0.5721210000000  0.5551070000000 1.0
C      1  0.4447760000000  0.4918850000000  0.5958090000000 1.0
C      1  0.4234750000000  0.4588440000000  0.5530520000000 1.0
C      1  0.4643510000000  0.4724050000000  0.4268780000000 1.0
C      1  0.4860910000000  0.4835010000000  0.4105210000000 1.0
C      1  0.4406530000000  0.4767420000000  0.4746380000000 1.0
C      1  0.5474880000000  0.5494120000000  0.5804990000000 1.0
C      1  0.4925070000000  0.4341370000000  0.5538570000000 1.0
C      1  0.5113610000000  0.4605670000000  0.5180790000000 1.0
C      1  0.4648780000000  0.5422740000000  0.5214690000000 1.0
C      1  0.4921740000000  0.5367390000000  0.4143190000000 1.0
C      1  0.5961330000000  0.5425050000000  0.4378900000000 1.0
C      1  0.4801260000000  0.5396870000000  0.4706270000000 1.0
C      1  0.5451170000000  0.4260480000000  0.4738510000000 1.0
C      1  0.4489710000000  0.4303840000000  0.4416440000000 1.0
C      1  0.4034740000000  0.5158240000000  0.5127200000000 1.0
C      1  0.5200260000000  0.5767200000000  0.5400740000000 1.0
C      1  0.6065210000000  0.4926420000000  0.5103430000000 1.0
C      1  0.5360590000000  0.4614270000000  0.5309110000000 1.0
C      1  0.4711300000000  0.5118390000000  0.5461160000000 1.0
C      1  0.5188350000000  0.5477670000000  0.5526840000000 1.0
C      1  0.5482380000000  0.5824500000000  0.5230040000000 1.0
C      1  0.4811800000000  0.5264740000000  0.6045790000000 1.0
C      1  0.5326790000000  0.5205210000000  0.5915880000000 1.0
C      1  0.5070000000000  0.5598890000000  0.4180320000000 1.0
C      1  0.4954510000000  0.4796160000000  0.5821410000000 1.0
C      1  0.5744820000000  0.5502290000000  0.5615890000000 1.0
C      1  0.3951340000000  0.4982010000000  0.4847940000000 1.0
C      1  0.5403930000000  0.4396330000000  0.5528370000000 1.0
C      1  0.4143860000000  0.4317280000000  0.5122610000000 1.0
C      1  0.5559480000000  0.4805860000000  0.5217810000000 1.0
C      1  0.4410110000000  0.5403420000000  0.5769630000000 1.0
C      1  0.4982440000000  0.4331250000000  0.5220400000000 1.0
C      1  0.5345870000000  0.4037540000000  0.4923550000000 1.0
C      1  0.4741180000000  0.5156480000000  0.5019370000000 1.0
C      1  0.4873150000000  0.4219490000000  0.4974220000000 1.0
C      1  0.4864130000000  0.5495660000000  0.5902590000000 1.0
C      1  0.4601840000000  0.4542010000000  0.5141770000000 1.0
C      1  0.5506240000000  0.4928430000000  0.4453040000000 1.0
C      1  0.5610300000000  0.4595430000000  0.4257590000000 1.0
C      1  0.5144900000000  0.4713900000000  0.4784220000000 1.0
C      1  0.5568490000000  0.5649600000000  0.4737120000000 1.0
C      1  0.4372580000000  0.4584460000000  0.4316250000000 1.0
C      1  0.4073000000000  0.4089180000000  0.5257430000000 1.0
C      1  0.5150540000000  0.5486780000000  0.5839860000000 1.0
C      1  0.5002100000000  0.4621090000000  0.4409710000000 1.0
C      1  0.4684990000000  0.5688010000000  0.4460900000000 1.0
C      1  0.4503220000000  0.4581910000000  0.5629040000000 1.0
C      1  0.4048580000000  0.5661430000000  0.4992550000000 1.0
C      1  0.6042070000000  0.4624750000000  0.4989000000000 1.0
C      1  0.4468380000000  0.5320900000000  0.5475610000000 1.0
C      1  0.5288010000000  0.4763960000000  0.4505110000000 1.0
C      1  0.5074290000000  0.3978260000000  0.4882720000000 1.0
C      1  0.5987080000000  0.5325940000000  0.4691540000000 1.0
C      1  0.5733620000000  0.5329900000000  0.4203750000000 1.0
C      1  0.5498120000000  0.5340780000000  0.5104220000000 1.0
C      1  0.5426800000000  0.4095070000000  0.5197730000000 1.0
C      1  0.5286670000000  0.4867500000000  0.5870870000000 1.0
C      1  0.5090380000000  0.4231990000000  0.4382920000000 1.0
C      1  0.4922760000000  0.5764120000000  0.4984360000000 1.0
C      1  0.4914110000000  0.4929520000000  0.4828950000000 1.0
C      1  0.4374220000000  0.5563560000000  0.4964920000000 1.0
C      1  0.5686750000000  0.5441200000000  0.4581920000000 1.0
END
