TITL C-2778437-8639-173 0.00595474295552379 125000 -1020.98092268044 0 0 173 (C1) n - 1
REM
REM in /home/nfs/bkarasulu/CARBON/AIRSS/Generating-Clusters/REBO/Only-C1/SD-CG/HFTN-CG
REM
REM
REM
REM
REM
REM ./C.cell (11c1c37f851c82e70ff6c80c92926a4b)
REM
REM compiler GCC version 9.2.1 20190827 (Red Hat 9.2.1-1)
REM options -cpp -mtune=generic -march=x86-64 -g -O0 -fpre-include=/usr/include/finclude/math-vector-fortran.h
REM seed 1882896650 1623827660 255111430 -2014028049 -374982619 -1558593477 456806226 1318104113 -229180240 1096118780 254798433 544540416 621062663 -507803297 -1237907726 1770823727 -860527136 2038992500 -445742997 -1165448541 893722016 -1509420645 1119270395 976264558 79178222 -2117133925 797586100 328415661 1994691894 1113449847 482610079 2109850873 -453281483
REM
CELL 1.54180   50.00000   50.00000   50.00000   90.00000   90.00000   90.00000
LATT -1
SFAC C  
C      1  0.5086170000000  0.6056370000000  0.5236050000000 1.0
C      1  0.4944460000000  0.4646380000000  0.5940320000000 1.0
C      1  0.4901200000000  0.5572520000000  0.4501240000000 1.0
C      1  0.5553750000000  0.5272750000000  0.5190120000000 1.0
C      1  0.5884220000000  0.5232990000000  0.4300470000000 1.0
C      1  0.4063010000000  0.5224840000000  0.5325620000000 1.0
C      1  0.4344180000000  0.4391280000000  0.4165280000000 1.0
C      1  0.5249210000000  0.4595540000000  0.5988620000000 1.0
C      1  0.4710540000000  0.5166430000000  0.4422230000000 1.0
C      1  0.5441250000000  0.4905410000000  0.4559940000000 1.0
C      1  0.4702950000000  0.5944220000000  0.4758130000000 1.0
C      1  0.6083300000000  0.4844310000000  0.4934240000000 1.0
C      1  0.4773560000000  0.5677080000000  0.5180520000000 1.0
C      1  0.5375500000000  0.3856650000000  0.4232760000000 1.0
C      1  0.5290010000000  0.6071100000000  0.4599060000000 1.0
C      1  0.4668890000000  0.4616500000000  0.3937870000000 1.0
C      1  0.4845000000000  0.3999330000000  0.5308790000000 1.0
C      1  0.5851450000000  0.4656650000000  0.5381960000000 1.0
C      1  0.4872470000000  0.4338270000000  0.4709090000000 1.0
C      1  0.5818350000000  0.5651060000000  0.5055880000000 1.0
C      1  0.4068660000000  0.4609210000000  0.4586040000000 1.0
C      1  0.4808740000000  0.5986750000000  0.5065250000000 1.0
C      1  0.5235240000000  0.5278020000000  0.4324310000000 1.0
C      1  0.4276050000000  0.4675740000000  0.4143300000000 1.0
C      1  0.4798280000000  0.4402830000000  0.5807970000000 1.0
C      1  0.4636320000000  0.5516010000000  0.4946170000000 1.0
C      1  0.4108750000000  0.4324140000000  0.4576340000000 1.0
C      1  0.4810700000000  0.5052410000000  0.5475690000000 1.0
C      1  0.6231620000000  0.4309600000000  0.5270090000000 1.0
C      1  0.5757400000000  0.5112980000000  0.5613780000000 1.0
C      1  0.4257260000000  0.4879210000000  0.5293350000000 1.0
C      1  0.4812000000000  0.5838230000000  0.5717240000000 1.0
C      1  0.5635250000000  0.5117200000000  0.4470920000000 1.0
C      1  0.5358880000000  0.5171440000000  0.5416020000000 1.0
C      1  0.4808010000000  0.4929150000000  0.6017240000000 1.0
C      1  0.5362640000000  0.4129830000000  0.5515060000000 1.0
C      1  0.5913200000000  0.5485100000000  0.4337600000000 1.0
C      1  0.5601670000000  0.5060620000000  0.4987000000000 1.0
C      1  0.4057600000000  0.3989600000000  0.4213830000000 1.0
C      1  0.4257290000000  0.5608340000000  0.4859770000000 1.0
C      1  0.4704270000000  0.4671070000000  0.5484840000000 1.0
C      1  0.5499000000000  0.4696670000000  0.5782220000000 1.0
C      1  0.5424780000000  0.5560710000000  0.5091490000000 1.0
C      1  0.5877640000000  0.4974170000000  0.5366090000000 1.0
C      1  0.5117310000000  0.5793730000000  0.4372050000000 1.0
C      1  0.5338630000000  0.4524860000000  0.4936530000000 1.0
C      1  0.4357290000000  0.4878670000000  0.5787150000000 1.0
C      1  0.5763370000000  0.5510720000000  0.5294640000000 1.0
C      1  0.5302230000000  0.5940410000000  0.5103170000000 1.0
C      1  0.5317170000000  0.4785390000000  0.6231810000000 1.0
C      1  0.5918420000000  0.4715190000000  0.4662550000000 1.0
C      1  0.4728880000000  0.4820060000000  0.4115790000000 1.0
C      1  0.5496640000000  0.5196900000000  0.5997440000000 1.0
C      1  0.5601540000000  0.4995090000000  0.5821660000000 1.0
C      1  0.4543520000000  0.4976280000000  0.5975370000000 1.0
C      1  0.4881300000000  0.5713710000000  0.4190930000000 1.0
C      1  0.5374400000000  0.4654910000000  0.4364170000000 1.0
C      1  0.4779760000000  0.4425870000000  0.4397610000000 1.0
C      1  0.4605590000000  0.5192500000000  0.4725460000000 1.0
C      1  0.5081690000000  0.5856320000000  0.5872180000000 1.0
C      1  0.5864100000000  0.4578580000000  0.4393260000000 1.0
C      1  0.4196670000000  0.5065360000000  0.4490050000000 1.0
C      1  0.4707930000000  0.4072500000000  0.4051410000000 1.0
C      1  0.5890250000000  0.5492950000000  0.4834060000000 1.0
C      1  0.4182310000000  0.5333860000000  0.4668080000000 1.0
C      1  0.5374620000000  0.5913440000000  0.5495370000000 1.0
C      1  0.4268420000000  0.4310710000000  0.5336720000000 1.0
C      1  0.4426840000000  0.4405180000000  0.5060340000000 1.0
C      1  0.4605630000000  0.5473020000000  0.5456520000000 1.0
C      1  0.5770620000000  0.4835140000000  0.5008350000000 1.0
C      1  0.4882430000000  0.4700880000000  0.5038610000000 1.0
C      1  0.5578210000000  0.5833720000000  0.4953770000000 1.0
C      1  0.5615830000000  0.4464710000000  0.4363640000000 1.0
C      1  0.4270570000000  0.5740910000000  0.4322450000000 1.0
C      1  0.4718900000000  0.4735050000000  0.4395110000000 1.0
C      1  0.6047850000000  0.5088880000000  0.5135670000000 1.0
C      1  0.5552330000000  0.4609490000000  0.5477000000000 1.0
C      1  0.4413340000000  0.5846330000000  0.4907670000000 1.0
C      1  0.5268610000000  0.4901040000000  0.5138890000000 1.0
C      1  0.5356970000000  0.4386310000000  0.5742050000000 1.0
C      1  0.4067250000000  0.4781550000000  0.4830290000000 1.0
C      1  0.4777470000000  0.4266600000000  0.5192480000000 1.0
C      1  0.4920000000000  0.5436020000000  0.6002820000000 1.0
C      1  0.5277560000000  0.5493540000000  0.4806170000000 1.0
C      1  0.5457430000000  0.5569930000000  0.4165680000000 1.0
C      1  0.4679000000000  0.4239120000000  0.4902620000000 1.0
C      1  0.5737470000000  0.5585080000000  0.4574990000000 1.0
C      1  0.5072620000000  0.5331890000000  0.4618400000000 1.0
C      1  0.4378710000000  0.5966750000000  0.5161540000000 1.0
C      1  0.4043030000000  0.5282760000000  0.4931600000000 1.0
C      1  0.4550930000000  0.4930330000000  0.5322240000000 1.0
C      1  0.4540060000000  0.3945340000000  0.5199350000000 1.0
C      1  0.5364630000000  0.4956190000000  0.4831980000000 1.0
C      1  0.4921300000000  0.5531140000000  0.3981950000000 1.0
C      1  0.4475900000000  0.5574230000000  0.4400330000000 1.0
C      1  0.5020440000000  0.5983950000000  0.4703830000000 1.0
C      1  0.5071340000000  0.5125510000000  0.5283540000000 1.0
C      1  0.5231350000000  0.5022330000000  0.6246920000000 1.0
C      1  0.5382640000000  0.5428810000000  0.5613910000000 1.0
C      1  0.5109370000000  0.4494280000000  0.4431310000000 1.0
C      1  0.4138590000000  0.5069960000000  0.5621600000000 1.0
C      1  0.4108250000000  0.4476900000000  0.5502820000000 1.0
C      1  0.4895240000000  0.5397570000000  0.5292960000000 1.0
C      1  0.4936460000000  0.4805440000000  0.5660090000000 1.0
C      1  0.5202910000000  0.5401390000000  0.4015310000000 1.0
C      1  0.5516700000000  0.5078770000000  0.4069460000000 1.0
C      1  0.4206550000000  0.4140860000000  0.4778340000000 1.0
C      1  0.5021170000000  0.5141650000000  0.6052610000000 1.0
C      1  0.5148250000000  0.5609140000000  0.6005270000000 1.0
C      1  0.4086950000000  0.4746730000000  0.5526050000000 1.0
C      1  0.5962890000000  0.5219300000000  0.4863400000000 1.0
C      1  0.5663610000000  0.4588650000000  0.4855300000000 1.0
C      1  0.5190900000000  0.5791830000000  0.4865550000000 1.0
C      1  0.5689110000000  0.5376470000000  0.5551870000000 1.0
C      1  0.4447340000000  0.4647270000000  0.5663410000000 1.0
C      1  0.4822040000000  0.4529240000000  0.5253560000000 1.0
C      1  0.4716850000000  0.5324730000000  0.3996700000000 1.0
C      1  0.4581350000000  0.5351460000000  0.4252040000000 1.0
C      1  0.4487890000000  0.5837910000000  0.5663710000000 1.0
C      1  0.4408840000000  0.5974190000000  0.5429610000000 1.0
C      1  0.5278710000000  0.4902300000000  0.4195570000000 1.0
C      1  0.4448680000000  0.4669320000000  0.4848060000000 1.0
C      1  0.5280340000000  0.6004830000000  0.5736480000000 1.0
C      1  0.5165570000000  0.4389020000000  0.5465690000000 1.0
C      1  0.4094510000000  0.5506990000000  0.5133230000000 1.0
C      1  0.5068470000000  0.4799250000000  0.4577600000000 1.0
C      1  0.5864900000000  0.4131500000000  0.5398530000000 1.0
C      1  0.4720270000000  0.5529500000000  0.5766840000000 1.0
C      1  0.5130600000000  0.3977410000000  0.5317450000000 1.0
C      1  0.5564790000000  0.4226870000000  0.4515160000000 1.0
C      1  0.5002010000000  0.5037660000000  0.4352430000000 1.0
C      1  0.4148350000000  0.4228350000000  0.4305180000000 1.0
C      1  0.4214010000000  0.4649930000000  0.5086230000000 1.0
C      1  0.5596040000000  0.5336760000000  0.4044030000000 1.0
C      1  0.4346770000000  0.4987950000000  0.4779280000000 1.0
C      1  0.5386500000000  0.5448170000000  0.6036670000000 1.0
C      1  0.5102240000000  0.4168020000000  0.4529950000000 1.0
C      1  0.4921170000000  0.5318310000000  0.5620970000000 1.0
C      1  0.5127660000000  0.5090500000000  0.3979140000000 1.0
C      1  0.5604040000000  0.4113240000000  0.5313440000000 1.0
C      1  0.5175850000000  0.5244610000000  0.5764040000000 1.0
C      1  0.5240790000000  0.3982230000000  0.5049210000000 1.0
C      1  0.5391250000000  0.5754090000000  0.4361040000000 1.0
C      1  0.4037940000000  0.5005980000000  0.5065530000000 1.0
C      1  0.4152290000000  0.4793540000000  0.4374870000000 1.0
C      1  0.5369800000000  0.5661730000000  0.5394590000000 1.0
C      1  0.5505740000000  0.4087250000000  0.5047190000000 1.0
C      1  0.5552770000000  0.4286710000000  0.4816510000000 1.0
C      1  0.4515990000000  0.5239270000000  0.5050700000000 1.0
C      1  0.4261120000000  0.5377570000000  0.5630310000000 1.0
C      1  0.4840900000000  0.5059680000000  0.3983920000000 1.0
C      1  0.5055560000000  0.4583410000000  0.4816820000000 1.0
C      1  0.4384490000000  0.5303490000000  0.5317610000000 1.0
C      1  0.5198350000000  0.4948570000000  0.5706380000000 1.0
C      1  0.4344470000000  0.4041410000000  0.5390730000000 1.0
C      1  0.4883780000000  0.4319280000000  0.5586480000000 1.0
C      1  0.5302880000000  0.4586690000000  0.5256170000000 1.0
C      1  0.4331020000000  0.5613420000000  0.5735960000000 1.0
C      1  0.5886770000000  0.5042420000000  0.4652000000000 1.0
C      1  0.5359370000000  0.4060940000000  0.4415420000000 1.0
C      1  0.5541810000000  0.4905760000000  0.5348570000000 1.0
C      1  0.4695640000000  0.4810210000000  0.4703460000000 1.0
C      1  0.4679660000000  0.4941790000000  0.5023970000000 1.0
C      1  0.4863970000000  0.5901010000000  0.5420480000000 1.0
C      1  0.4435210000000  0.4033920000000  0.4913540000000 1.0
C      1  0.5081490000000  0.4015580000000  0.4817630000000 1.0
C      1  0.4925270000000  0.5067420000000  0.4738930000000 1.0
C      1  0.6042480000000  0.4482260000000  0.5325750000000 1.0
C      1  0.4330240000000  0.4828140000000  0.3924400000000 1.0
C      1  0.5461490000000  0.5395060000000  0.4550280000000 1.0
C      1  0.5552650000000  0.5857740000000  0.4635380000000 1.0
C      1  0.4647730000000  0.5638490000000  0.4661180000000 1.0
C      1  0.4614290000000  0.4292240000000  0.4190070000000 1.0
END
