TITL C-2778431-5191-1220 -5.19606628908676e-06 125000 -129.114486337713 0 0 23 (C1) n - 1
REM
REM in /home/nfs/bkarasulu/CARBON/AIRSS/Generating-Clusters/REBO/Only-C1/SD-CG/HFTN-CG
REM
REM
REM
REM
REM
REM ./C.cell (11c1c37f851c82e70ff6c80c92926a4b)
REM
REM compiler GCC version 9.2.1 20190827 (Red Hat 9.2.1-1)
REM options -cpp -mtune=generic -march=x86-64 -g -O0 -fpre-include=/usr/include/finclude/math-vector-fortran.h
REM seed 652867718 311750072 1777959099 739274255 -1946307055 -33396734 323787161 470034186 -1468608577 1242980092 -358101070 -1940205229 -396438264 326352637 1847871059 580452218 -1946689881 444343319 -678618142 -1827040463 -1578699261 960915399 -385501678 1217016656 168378313 -2102580193 -1911451163 -64047397 -2136749745 -677117404 603058192 45514736 -214311598
REM
CELL 1.54180   50.00000   50.00000   50.00000   90.00000   90.00000   90.00000
LATT -1
SFAC C  
C      1  0.4682800000000  0.4753430000000  0.5172580000000 1.0
C      1  0.4627860000000  0.4917800000000  0.5631420000000 1.0
C      1  0.5028190000000  0.5071510000000  0.4491220000000 1.0
C      1  0.5208490000000  0.4865290000000  0.4554620000000 1.0
C      1  0.5270480000000  0.5298150000000  0.5026290000000 1.0
C      1  0.4891630000000  0.4550470000000  0.4735360000000 1.0
C      1  0.5378850000000  0.4969440000000  0.5461100000000 1.0
C      1  0.4823360000000  0.5248110000000  0.4565250000000 1.0
C      1  0.4974690000000  0.5234070000000  0.5037480000000 1.0
C      1  0.5442220000000  0.5062320000000  0.4977190000000 1.0
C      1  0.5513060000000  0.4922650000000  0.5220000000000 1.0
C      1  0.4737510000000  0.4939900000000  0.5375980000000 1.0
C      1  0.4524810000000  0.4897040000000  0.5871490000000 1.0
C      1  0.4744650000000  0.4616140000000  0.4950310000000 1.0
C      1  0.4666470000000  0.5372170000000  0.4380500000000 1.0
C      1  0.4936000000000  0.5136550000000  0.5315630000000 1.0
C      1  0.4516980000000  0.5338050000000  0.4927710000000 1.0
C      1  0.5192510000000  0.5191820000000  0.5459880000000 1.0
C      1  0.4769570000000  0.5275320000000  0.4845170000000 1.0
C      1  0.5106310000000  0.4593370000000  0.4558400000000 1.0
C      1  0.5421490000000  0.4934050000000  0.4727090000000 1.0
C      1  0.5318990000000  0.5417170000000  0.5301740000000 1.0
C      1  0.5223090000000  0.4395190000000  0.4413600000000 1.0
END
