TITL C-2778423-5760-1469 -0.00128294945113946 125000 -583.948259949228 0 0 99 (C1) n - 1
REM
REM in /home/nfs/bkarasulu/CARBON/AIRSS/Generating-Clusters/REBO/Only-C1/SD-CG/HFTN-CG
REM
REM
REM
REM
REM
REM ./C.cell (11c1c37f851c82e70ff6c80c92926a4b)
REM
REM compiler GCC version 9.2.1 20190827 (Red Hat 9.2.1-1)
REM options -cpp -mtune=generic -march=x86-64 -g -O0 -fpre-include=/usr/include/finclude/math-vector-fortran.h
REM seed 1923303705 890688362 -750240799 -486519586 1694120691 1686587154 -1959286635 1722361137 -1815628665 -1287059398 891791647 2011343765 -704660955 443663381 -109891784 2136304458 -402039774 753674043 258294495 102947651 -1079041264 1320747338 -1017860237 -1275795421 142290507 -919299573 1989866460 1337865309 -1016266921 -2078430308 1302151981 -564007854 -500992460
REM
CELL 1.54180   50.00000   50.00000   50.00000   90.00000   90.00000   90.00000
LATT -1
SFAC C  
C      1  0.4557700000000  0.4483150000000  0.4479010000000 1.0
C      1  0.4971210000000  0.5398940000000  0.4217820000000 1.0
C      1  0.5095880000000  0.4380490000000  0.5776670000000 1.0
C      1  0.5042750000000  0.5680750000000  0.4342770000000 1.0
C      1  0.5467490000000  0.5601290000000  0.4730430000000 1.0
C      1  0.4456670000000  0.4192100000000  0.4852670000000 1.0
C      1  0.4127430000000  0.4679760000000  0.4832870000000 1.0
C      1  0.4699700000000  0.4587740000000  0.4748830000000 1.0
C      1  0.4435150000000  0.5540570000000  0.5238940000000 1.0
C      1  0.5052690000000  0.4370840000000  0.5219660000000 1.0
C      1  0.4255890000000  0.4414750000000  0.5355590000000 1.0
C      1  0.4691340000000  0.5506820000000  0.4273270000000 1.0
C      1  0.5386650000000  0.4522890000000  0.4505290000000 1.0
C      1  0.5272550000000  0.5079740000000  0.4459780000000 1.0
C      1  0.4584360000000  0.4860560000000  0.4603400000000 1.0
C      1  0.5060320000000  0.5237210000000  0.5853870000000 1.0
C      1  0.5638810000000  0.5429850000000  0.4576150000000 1.0
C      1  0.4593550000000  0.4529480000000  0.5018050000000 1.0
C      1  0.4801210000000  0.4484520000000  0.5249410000000 1.0
C      1  0.4738420000000  0.5268780000000  0.4812120000000 1.0
C      1  0.5505230000000  0.5279580000000  0.4347000000000 1.0
C      1  0.4394280000000  0.5343970000000  0.4614010000000 1.0
C      1  0.5080370000000  0.4801850000000  0.5445400000000 1.0
C      1  0.4783330000000  0.5516280000000  0.5561020000000 1.0
C      1  0.4744120000000  0.5780250000000  0.4415340000000 1.0
C      1  0.4520630000000  0.5083590000000  0.5821650000000 1.0
C      1  0.4762730000000  0.5451690000000  0.5032700000000 1.0
C      1  0.5529670000000  0.4931080000000  0.5450300000000 1.0
C      1  0.5113950000000  0.4442930000000  0.4407460000000 1.0
C      1  0.5697270000000  0.4576470000000  0.5133510000000 1.0
C      1  0.4871830000000  0.5831080000000  0.5185750000000 1.0
C      1  0.4601640000000  0.5042000000000  0.4250070000000 1.0
C      1  0.5182560000000  0.5692660000000  0.5222220000000 1.0
C      1  0.4861790000000  0.4315820000000  0.5709020000000 1.0
C      1  0.4847800000000  0.4970660000000  0.5170410000000 1.0
C      1  0.4670460000000  0.5681020000000  0.5347010000000 1.0
C      1  0.5447130000000  0.4697480000000  0.5564690000000 1.0
C      1  0.5566820000000  0.4365820000000  0.4659030000000 1.0
C      1  0.4843620000000  0.5003400000000  0.5891730000000 1.0
C      1  0.4637820000000  0.4777250000000  0.5739690000000 1.0
C      1  0.4114070000000  0.4739250000000  0.4566260000000 1.0
C      1  0.4365500000000  0.4313300000000  0.5122330000000 1.0
C      1  0.4928900000000  0.4291990000000  0.4557600000000 1.0
C      1  0.4879100000000  0.5803280000000  0.4888110000000 1.0
C      1  0.5625680000000  0.4984010000000  0.4304010000000 1.0
C      1  0.5548220000000  0.5345120000000  0.5155460000000 1.0
C      1  0.5419450000000  0.5598590000000  0.5021680000000 1.0
C      1  0.4393160000000  0.4634800000000  0.5547350000000 1.0
C      1  0.5375920000000  0.5181310000000  0.5969330000000 1.0
C      1  0.4390300000000  0.4279450000000  0.4565700000000 1.0
C      1  0.4813820000000  0.5086720000000  0.4594880000000 1.0
C      1  0.5096480000000  0.4852260000000  0.5953490000000 1.0
C      1  0.4965130000000  0.5446670000000  0.5213020000000 1.0
C      1  0.4579620000000  0.5098930000000  0.5061870000000 1.0
C      1  0.5420520000000  0.4798400000000  0.4217650000000 1.0
C      1  0.4448250000000  0.5623170000000  0.4757090000000 1.0
C      1  0.5369210000000  0.5189040000000  0.4747140000000 1.0
C      1  0.5873840000000  0.5116200000000  0.5192900000000 1.0
C      1  0.5830830000000  0.4766880000000  0.4910330000000 1.0
C      1  0.5510850000000  0.4478530000000  0.5400670000000 1.0
C      1  0.5273510000000  0.5580990000000  0.5509410000000 1.0
C      1  0.4311280000000  0.4700300000000  0.5044730000000 1.0
C      1  0.4652940000000  0.5237120000000  0.5566710000000 1.0
C      1  0.5558020000000  0.5513010000000  0.5517410000000 1.0
C      1  0.5608540000000  0.5194230000000  0.4898180000000 1.0
C      1  0.4435840000000  0.5221520000000  0.5326530000000 1.0
C      1  0.4659370000000  0.5799800000000  0.4693810000000 1.0
C      1  0.5148810000000  0.4688860000000  0.4230550000000 1.0
C      1  0.4523620000000  0.5288320000000  0.4364260000000 1.0
C      1  0.4594790000000  0.4700850000000  0.4238770000000 1.0
C      1  0.5108280000000  0.5179630000000  0.5189380000000 1.0
C      1  0.4866120000000  0.5019970000000  0.5493480000000 1.0
C      1  0.4352460000000  0.4974860000000  0.5546380000000 1.0
C      1  0.5805970000000  0.5133560000000  0.4557500000000 1.0
C      1  0.4927670000000  0.4804810000000  0.4716400000000 1.0
C      1  0.5293830000000  0.4293440000000  0.5390740000000 1.0
C      1  0.5248680000000  0.4355140000000  0.4999300000000 1.0
C      1  0.5132780000000  0.4785360000000  0.5137680000000 1.0
C      1  0.4742770000000  0.4190830000000  0.4731240000000 1.0
C      1  0.5190510000000  0.4668640000000  0.5725820000000 1.0
C      1  0.5932320000000  0.5093070000000  0.4871900000000 1.0
C      1  0.4891310000000  0.4863090000000  0.4200510000000 1.0
C      1  0.5362610000000  0.5177310000000  0.5349440000000 1.0
C      1  0.5077310000000  0.5589050000000  0.4815400000000 1.0
C      1  0.5670730000000  0.4863980000000  0.4682870000000 1.0
C      1  0.4381840000000  0.5358500000000  0.4956110000000 1.0
C      1  0.5047870000000  0.5492060000000  0.5659820000000 1.0
C      1  0.5183100000000  0.4776940000000  0.4857150000000 1.0
C      1  0.5000960000000  0.5129180000000  0.4351620000000 1.0
C      1  0.5746180000000  0.4881060000000  0.5281680000000 1.0
C      1  0.5796730000000  0.5378310000000  0.5354940000000 1.0
C      1  0.5222650000000  0.5680450000000  0.4565140000000 1.0
C      1  0.5333300000000  0.5212400000000  0.5653420000000 1.0
C      1  0.5386180000000  0.4810480000000  0.4615870000000 1.0
C      1  0.4270130000000  0.4867690000000  0.5248320000000 1.0
C      1  0.5159500000000  0.5320720000000  0.4890090000000 1.0
C      1  0.4334910000000  0.4810650000000  0.4430370000000 1.0
C      1  0.4702610000000  0.4516120000000  0.5537260000000 1.0
C      1  0.5522350000000  0.4384730000000  0.4938350000000 1.0
END
