TITL C-2778424-3986-606 -0.00178124982722576 125000 -1054.9305945346 0 0 184 (C1) n - 1
REM
REM in /home/nfs/bkarasulu/CARBON/AIRSS/Generating-Clusters/REBO/Only-C1/SD-CG/HFTN-CG
REM
REM
REM
REM
REM
REM ./C.cell (11c1c37f851c82e70ff6c80c92926a4b)
REM
REM compiler GCC version 9.2.1 20190827 (Red Hat 9.2.1-1)
REM options -cpp -mtune=generic -march=x86-64 -g -O0 -fpre-include=/usr/include/finclude/math-vector-fortran.h
REM seed -1599699067 -917812699 -1702746517 -1492041325 834101238 -2043513163 -65865194 1857491514 -1725431278 137842601 -346754482 909928215 -2077030852 -1853928755 350827619 1565805558 1820093429 -1935384748 1952354494 -542215186 -770892713 806686008 1903843600 1266391132 -2045381402 666506613 -732858333 1014698783 -1412933675 1006853638 513270424 795484270 -1672576798
REM
CELL 1.54180   50.00000   50.00000   50.00000   90.00000   90.00000   90.00000
LATT -1
SFAC C  
C      1  0.5823990000000  0.5112960000000  0.5083920000000 1.0
C      1  0.5340580000000  0.4301690000000  0.5097830000000 1.0
C      1  0.4373990000000  0.4696140000000  0.4134840000000 1.0
C      1  0.4389620000000  0.5452630000000  0.4844040000000 1.0
C      1  0.5331110000000  0.5421420000000  0.5255880000000 1.0
C      1  0.5633620000000  0.4507040000000  0.5638560000000 1.0
C      1  0.4863490000000  0.5544780000000  0.5981360000000 1.0
C      1  0.5246390000000  0.5071480000000  0.4645750000000 1.0
C      1  0.4258890000000  0.4845290000000  0.5691170000000 1.0
C      1  0.4247390000000  0.4549910000000  0.4871590000000 1.0
C      1  0.5095080000000  0.5563060000000  0.5727840000000 1.0
C      1  0.5681010000000  0.5300880000000  0.5399910000000 1.0
C      1  0.5015950000000  0.5859220000000  0.5600200000000 1.0
C      1  0.5637630000000  0.4405120000000  0.4237150000000 1.0
C      1  0.5189780000000  0.3914460000000  0.5287720000000 1.0
C      1  0.4964370000000  0.4894740000000  0.4866290000000 1.0
C      1  0.4821990000000  0.4493420000000  0.4621220000000 1.0
C      1  0.3931650000000  0.4682480000000  0.5236940000000 1.0
C      1  0.4751590000000  0.5763280000000  0.5727270000000 1.0
C      1  0.5214850000000  0.4283100000000  0.4804100000000 1.0
C      1  0.5386530000000  0.5947590000000  0.5303500000000 1.0
C      1  0.6057330000000  0.5169830000000  0.5408640000000 1.0
C      1  0.6075440000000  0.4903060000000  0.5311150000000 1.0
C      1  0.5543240000000  0.5047120000000  0.5980580000000 1.0
C      1  0.4274680000000  0.4124460000000  0.5293030000000 1.0
C      1  0.5152200000000  0.4634100000000  0.4983300000000 1.0
C      1  0.4625170000000  0.5003740000000  0.5312180000000 1.0
C      1  0.5105690000000  0.6001550000000  0.5379360000000 1.0
C      1  0.5417080000000  0.5888680000000  0.4712670000000 1.0
C      1  0.4627880000000  0.4810850000000  0.4295260000000 1.0
C      1  0.4499440000000  0.5687530000000  0.5509220000000 1.0
C      1  0.4369350000000  0.4347410000000  0.5773020000000 1.0
C      1  0.4791060000000  0.3953390000000  0.4761920000000 1.0
C      1  0.5706620000000  0.4807070000000  0.4500140000000 1.0
C      1  0.5456190000000  0.3924300000000  0.5138250000000 1.0
C      1  0.4168020000000  0.4687340000000  0.4367830000000 1.0
C      1  0.5008130000000  0.4868060000000  0.5712620000000 1.0
C      1  0.5067890000000  0.5278200000000  0.4855540000000 1.0
C      1  0.5408630000000  0.4938590000000  0.5113420000000 1.0
C      1  0.4607690000000  0.5966960000000  0.4734940000000 1.0
C      1  0.5744120000000  0.5512210000000  0.5807420000000 1.0
C      1  0.4882600000000  0.4443330000000  0.5072720000000 1.0
C      1  0.4757140000000  0.5052630000000  0.5699700000000 1.0
C      1  0.4268100000000  0.4514550000000  0.4571850000000 1.0
C      1  0.4216380000000  0.5599120000000  0.5327670000000 1.0
C      1  0.5101850000000  0.3986680000000  0.4684350000000 1.0
C      1  0.5526660000000  0.4044030000000  0.5446780000000 1.0
C      1  0.4340410000000  0.5068790000000  0.4720390000000 1.0
C      1  0.4509760000000  0.5026040000000  0.5933350000000 1.0
C      1  0.5664520000000  0.4961910000000  0.3958200000000 1.0
C      1  0.5134010000000  0.4338910000000  0.5747100000000 1.0
C      1  0.3977500000000  0.4658750000000  0.4938460000000 1.0
C      1  0.4880550000000  0.4174980000000  0.4519700000000 1.0
C      1  0.4049590000000  0.5424640000000  0.4841290000000 1.0
C      1  0.4970560000000  0.5522570000000  0.5013510000000 1.0
C      1  0.5464570000000  0.5219270000000  0.4052870000000 1.0
C      1  0.4862620000000  0.4367200000000  0.4246230000000 1.0
C      1  0.4576830000000  0.4428560000000  0.4193950000000 1.0
C      1  0.5588410000000  0.4604140000000  0.5309990000000 1.0
C      1  0.5408860000000  0.5553370000000  0.5727720000000 1.0
C      1  0.4159600000000  0.5350160000000  0.5537930000000 1.0
C      1  0.5192400000000  0.4307020000000  0.4308210000000 1.0
C      1  0.4819800000000  0.4344690000000  0.5382540000000 1.0
C      1  0.4336240000000  0.3947000000000  0.5510400000000 1.0
C      1  0.5355890000000  0.5625000000000  0.5005150000000 1.0
C      1  0.5052410000000  0.5352540000000  0.4238240000000 1.0
C      1  0.5525020000000  0.4885630000000  0.5617370000000 1.0
C      1  0.5256150000000  0.4627120000000  0.5312290000000 1.0
C      1  0.5716530000000  0.4243090000000  0.5493270000000 1.0
C      1  0.5147550000000  0.5011180000000  0.5960470000000 1.0
C      1  0.5161960000000  0.4504710000000  0.4585140000000 1.0
C      1  0.4794360000000  0.5545340000000  0.5281020000000 1.0
C      1  0.5098450000000  0.4585390000000  0.5974410000000 1.0
C      1  0.4448940000000  0.5603080000000  0.4213360000000 1.0
C      1  0.5921800000000  0.4625110000000  0.5244510000000 1.0
C      1  0.5218520000000  0.4767970000000  0.4224260000000 1.0
C      1  0.4312470000000  0.5294460000000  0.4151650000000 1.0
C      1  0.4509790000000  0.5854070000000  0.4449110000000 1.0
C      1  0.5030310000000  0.4766700000000  0.3790790000000 1.0
C      1  0.4133400000000  0.4675800000000  0.5435290000000 1.0
C      1  0.5008100000000  0.5631300000000  0.4108010000000 1.0
C      1  0.4871210000000  0.4716140000000  0.5250260000000 1.0
C      1  0.4552590000000  0.5461640000000  0.5834430000000 1.0
C      1  0.4831900000000  0.5355450000000  0.5657650000000 1.0
C      1  0.5477330000000  0.4656620000000  0.4985900000000 1.0
C      1  0.5722320000000  0.5123240000000  0.4257340000000 1.0
C      1  0.5666940000000  0.4251810000000  0.5013300000000 1.0
C      1  0.5143490000000  0.4321700000000  0.5348670000000 1.0
C      1  0.4329490000000  0.5785150000000  0.4799110000000 1.0
C      1  0.5275070000000  0.5574340000000  0.4687030000000 1.0
C      1  0.4463170000000  0.4725180000000  0.5365760000000 1.0
C      1  0.4504370000000  0.5385920000000  0.4540320000000 1.0
C      1  0.5338540000000  0.5137590000000  0.5716350000000 1.0
C      1  0.5383830000000  0.4763640000000  0.4610550000000 1.0
C      1  0.4269410000000  0.5625630000000  0.4504770000000 1.0
C      1  0.3915020000000  0.5014570000000  0.5016030000000 1.0
C      1  0.5810990000000  0.4617870000000  0.4259280000000 1.0
C      1  0.4779720000000  0.4696700000000  0.5994130000000 1.0
C      1  0.5981040000000  0.5126450000000  0.4692420000000 1.0
C      1  0.4418130000000  0.5001020000000  0.4011890000000 1.0
C      1  0.4576060000000  0.4995630000000  0.4548480000000 1.0
C      1  0.5321730000000  0.4620300000000  0.5710730000000 1.0
C      1  0.4468690000000  0.4635060000000  0.5863340000000 1.0
C      1  0.5362610000000  0.4774230000000  0.6076040000000 1.0
C      1  0.4135330000000  0.5243100000000  0.4619350000000 1.0
C      1  0.5578590000000  0.5708750000000  0.4470080000000 1.0
C      1  0.5470120000000  0.4049960000000  0.4822440000000 1.0
C      1  0.5357340000000  0.4073900000000  0.4497650000000 1.0
C      1  0.5893990000000  0.5356050000000  0.5621730000000 1.0
C      1  0.5163090000000  0.4887570000000  0.5461600000000 1.0
C      1  0.3896420000000  0.4892740000000  0.4716950000000 1.0
C      1  0.5916890000000  0.4793190000000  0.4721140000000 1.0
C      1  0.4751020000000  0.4655820000000  0.4865340000000 1.0
C      1  0.5055610000000  0.4966180000000  0.4427020000000 1.0
C      1  0.4905170000000  0.4554300000000  0.5626440000000 1.0
C      1  0.4278060000000  0.5039520000000  0.5030400000000 1.0
C      1  0.4889460000000  0.6047070000000  0.5195060000000 1.0
C      1  0.4538990000000  0.4175140000000  0.4765810000000 1.0
C      1  0.5492830000000  0.5449470000000  0.4266730000000 1.0
C      1  0.4012600000000  0.5058470000000  0.5587600000000 1.0
C      1  0.4721980000000  0.5067750000000  0.4004000000000 1.0
C      1  0.5100740000000  0.5819900000000  0.4946350000000 1.0
C      1  0.5117180000000  0.6007340000000  0.4660950000000 1.0
C      1  0.4875570000000  0.6064280000000  0.4874930000000 1.0
C      1  0.5854530000000  0.4311160000000  0.5256300000000 1.0
C      1  0.4553180000000  0.5321270000000  0.5063800000000 1.0
C      1  0.5500440000000  0.4866480000000  0.4237630000000 1.0
C      1  0.4528150000000  0.4361390000000  0.4508110000000 1.0
C      1  0.4388660000000  0.4065530000000  0.5763090000000 1.0
C      1  0.4379140000000  0.5275370000000  0.5931480000000 1.0
C      1  0.5848570000000  0.4529940000000  0.4924590000000 1.0
C      1  0.5487940000000  0.5648560000000  0.5418330000000 1.0
C      1  0.4674920000000  0.5028050000000  0.4985500000000 1.0
C      1  0.5297850000000  0.5720880000000  0.4266920000000 1.0
C      1  0.4400770000000  0.5110310000000  0.5537460000000 1.0
C      1  0.6050300000000  0.4901880000000  0.4993120000000 1.0
C      1  0.5027870000000  0.5873700000000  0.4410920000000 1.0
C      1  0.4077150000000  0.5194170000000  0.4331950000000 1.0
C      1  0.3934390000000  0.5117560000000  0.5304190000000 1.0
C      1  0.5773860000000  0.5594750000000  0.4724910000000 1.0
C      1  0.5711350000000  0.5901770000000  0.5205770000000 1.0
C      1  0.4682940000000  0.5856680000000  0.5284410000000 1.0
C      1  0.4609270000000  0.5210310000000  0.4286590000000 1.0
C      1  0.5651600000000  0.4733190000000  0.5895450000000 1.0
C      1  0.4771540000000  0.4983500000000  0.6092430000000 1.0
C      1  0.5342450000000  0.5227440000000  0.4998540000000 1.0
C      1  0.5807510000000  0.5608720000000  0.5323990000000 1.0
C      1  0.5717340000000  0.5226040000000  0.4537000000000 1.0
C      1  0.4886920000000  0.5223470000000  0.5303870000000 1.0
C      1  0.5531570000000  0.5360210000000  0.5980800000000 1.0
C      1  0.5223650000000  0.4098350000000  0.5573150000000 1.0
C      1  0.4271740000000  0.4396250000000  0.5481220000000 1.0
C      1  0.4536600000000  0.4419870000000  0.5270880000000 1.0
C      1  0.5576860000000  0.4501600000000  0.4718050000000 1.0
C      1  0.4640680000000  0.4753010000000  0.5623390000000 1.0
C      1  0.4697800000000  0.5694810000000  0.4919090000000 1.0
C      1  0.5019100000000  0.5554770000000  0.4500240000000 1.0
C      1  0.5358280000000  0.4492240000000  0.4075710000000 1.0
C      1  0.5191090000000  0.5230780000000  0.5449820000000 1.0
C      1  0.5169330000000  0.5168370000000  0.4061970000000 1.0
C      1  0.5070240000000  0.4980400000000  0.5163320000000 1.0
C      1  0.5411040000000  0.5330020000000  0.4566540000000 1.0
C      1  0.4532240000000  0.5376120000000  0.5398800000000 1.0
C      1  0.4717150000000  0.4100490000000  0.5042420000000 1.0
C      1  0.5985790000000  0.5393270000000  0.5162570000000 1.0
C      1  0.5483280000000  0.6037100000000  0.4989170000000 1.0
C      1  0.5961770000000  0.5396900000000  0.4828120000000 1.0
C      1  0.4003590000000  0.4907850000000  0.4447290000000 1.0
C      1  0.4369440000000  0.4294910000000  0.5014050000000 1.0
C      1  0.5622740000000  0.5000920000000  0.5340140000000 1.0
C      1  0.4458610000000  0.4764980000000  0.4947980000000 1.0
C      1  0.4948290000000  0.5234230000000  0.6092840000000 1.0
C      1  0.5625790000000  0.5182920000000  0.4863370000000 1.0
C      1  0.5580030000000  0.4295460000000  0.4495240000000 1.0
C      1  0.5137950000000  0.4517490000000  0.3827420000000 1.0
C      1  0.4129840000000  0.5327140000000  0.5142500000000 1.0
C      1  0.4880850000000  0.4777010000000  0.4242510000000 1.0
C      1  0.4423240000000  0.5738390000000  0.5120500000000 1.0
C      1  0.5651630000000  0.5688830000000  0.4967040000000 1.0
C      1  0.4747780000000  0.5769850000000  0.4241320000000 1.0
C      1  0.4859800000000  0.5165890000000  0.4610150000000 1.0
C      1  0.5572230000000  0.4683660000000  0.3889340000000 1.0
C      1  0.4769100000000  0.5488330000000  0.4673230000000 1.0
C      1  0.4981670000000  0.5007040000000  0.3931290000000 1.0
END
