TITL C-2778425-5191-21 0.000634837099505208 125000 -393.257567507143 0 0 70 (C1) n - 1
REM
REM in /home/nfs/bkarasulu/CARBON/AIRSS/Generating-Clusters/REBO/Only-C1/SD-CG/HFTN-CG
REM
REM
REM
REM
REM
REM ./C.cell (11c1c37f851c82e70ff6c80c92926a4b)
REM
REM compiler GCC version 9.2.1 20190827 (Red Hat 9.2.1-1)
REM options -cpp -mtune=generic -march=x86-64 -g -O0 -fpre-include=/usr/include/finclude/math-vector-fortran.h
REM seed 1410885200 -1000632521 334958019 -970173835 49788469 2031973797 951347754 339728515 -1539765172 -9383884 1902976754 1074501529 22887152 70412538 -1210668161 -1028346132 1918472799 -1343934278 -1353389078 -515246177 -202315448 -36918005 1648574625 558604017 665295615 -936846710 -842662040 284679708 1298875708 -766660256 640513499 860196343 1793814434
REM
CELL 1.54180   50.00000   50.00000   50.00000   90.00000   90.00000   90.00000
LATT -1
SFAC C  
C      1  0.4276420000000  0.4774190000000  0.4483020000000 1.0
C      1  0.5600200000000  0.4946480000000  0.5410160000000 1.0
C      1  0.4962750000000  0.4839750000000  0.4767210000000 1.0
C      1  0.4157710000000  0.5320880000000  0.4966120000000 1.0
C      1  0.4990070000000  0.4741170000000  0.5780030000000 1.0
C      1  0.4590310000000  0.4391930000000  0.4550460000000 1.0
C      1  0.5578690000000  0.4427710000000  0.5409480000000 1.0
C      1  0.4751660000000  0.4275150000000  0.4828660000000 1.0
C      1  0.4360420000000  0.5085170000000  0.4850030000000 1.0
C      1  0.5206500000000  0.4564440000000  0.4612290000000 1.0
C      1  0.4936260000000  0.4555470000000  0.5041320000000 1.0
C      1  0.5609180000000  0.4930380000000  0.4158060000000 1.0
C      1  0.5368760000000  0.5049780000000  0.5640350000000 1.0
C      1  0.4540810000000  0.5069560000000  0.5206060000000 1.0
C      1  0.4355520000000  0.5029370000000  0.4543410000000 1.0
C      1  0.5765040000000  0.5264420000000  0.4526840000000 1.0
C      1  0.5152620000000  0.4905400000000  0.5342200000000 1.0
C      1  0.4405310000000  0.4591580000000  0.4919790000000 1.0
C      1  0.5397630000000  0.5384470000000  0.4197780000000 1.0
C      1  0.5215740000000  0.5250890000000  0.4728060000000 1.0
C      1  0.4707000000000  0.4717660000000  0.4928820000000 1.0
C      1  0.5552490000000  0.4895420000000  0.4780670000000 1.0
C      1  0.4400820000000  0.5352950000000  0.5142430000000 1.0
C      1  0.4669780000000  0.5152210000000  0.4820280000000 1.0
C      1  0.5036470000000  0.5212920000000  0.5977260000000 1.0
C      1  0.4750830000000  0.4606660000000  0.4345660000000 1.0
C      1  0.4616570000000  0.5527070000000  0.4983940000000 1.0
C      1  0.5516810000000  0.4639050000000  0.4686720000000 1.0
C      1  0.4945560000000  0.4252630000000  0.5110420000000 1.0
C      1  0.4868850000000  0.5027670000000  0.5198470000000 1.0
C      1  0.4687100000000  0.4489010000000  0.5346740000000 1.0
C      1  0.4963560000000  0.4393500000000  0.5401420000000 1.0
C      1  0.5298210000000  0.5565240000000  0.4345590000000 1.0
C      1  0.5513950000000  0.5480260000000  0.4909870000000 1.0
C      1  0.4954750000000  0.5466800000000  0.5680950000000 1.0
C      1  0.4817720000000  0.5003070000000  0.5536070000000 1.0
C      1  0.4609490000000  0.5211340000000  0.4432530000000 1.0
C      1  0.5629120000000  0.4647200000000  0.5245890000000 1.0
C      1  0.4621490000000  0.4744960000000  0.5469920000000 1.0
C      1  0.5457330000000  0.5282020000000  0.5116860000000 1.0
C      1  0.5322690000000  0.5736180000000  0.4876050000000 1.0
C      1  0.5545580000000  0.5143000000000  0.4324910000000 1.0
C      1  0.5129170000000  0.4615870000000  0.5524600000000 1.0
C      1  0.5412770000000  0.4527460000000  0.5623350000000 1.0
C      1  0.4337780000000  0.4546940000000  0.4626240000000 1.0
C      1  0.4745090000000  0.5316360000000  0.5576900000000 1.0
C      1  0.4704530000000  0.5450100000000  0.4661170000000 1.0
C      1  0.4953790000000  0.5412550000000  0.5163690000000 1.0
C      1  0.5200560000000  0.4671180000000  0.4927030000000 1.0
C      1  0.5004190000000  0.4783570000000  0.4445380000000 1.0
C      1  0.5082180000000  0.5770800000000  0.5020290000000 1.0
C      1  0.5594260000000  0.5006550000000  0.5077150000000 1.0
C      1  0.5743100000000  0.5407250000000  0.4730690000000 1.0
C      1  0.4863070000000  0.5681270000000  0.4859330000000 1.0
C      1  0.5156680000000  0.5519930000000  0.5484500000000 1.0
C      1  0.4673020000000  0.5433000000000  0.5307560000000 1.0
C      1  0.4889340000000  0.5082560000000  0.4560760000000 1.0
C      1  0.4646560000000  0.4895290000000  0.4306340000000 1.0
C      1  0.4986070000000  0.5201650000000  0.4928850000000 1.0
C      1  0.5420350000000  0.5083920000000  0.4618440000000 1.0
C      1  0.4326420000000  0.4848420000000  0.5050930000000 1.0
C      1  0.5272170000000  0.5538130000000  0.4637430000000 1.0
C      1  0.4927720000000  0.4412840000000  0.4569620000000 1.0
C      1  0.5534410000000  0.4781530000000  0.5700330000000 1.0
C      1  0.4573300000000  0.4384890000000  0.5098640000000 1.0
C      1  0.5115830000000  0.5747070000000  0.5306880000000 1.0
C      1  0.5356570000000  0.4790900000000  0.5134160000000 1.0
C      1  0.5077560000000  0.5052840000000  0.5751660000000 1.0
C      1  0.5211960000000  0.5241710000000  0.5305160000000 1.0
C      1  0.4353760000000  0.4850410000000  0.5380130000000 1.0
END
