TITL C-2778425-5191-304 -0.00277167601772065 125000 -1022.87581511277 0 0 178 (C1) n - 1
REM
REM in /home/nfs/bkarasulu/CARBON/AIRSS/Generating-Clusters/REBO/Only-C1/SD-CG/HFTN-CG
REM
REM
REM
REM
REM
REM ./C.cell (11c1c37f851c82e70ff6c80c92926a4b)
REM
REM compiler GCC version 9.2.1 20190827 (Red Hat 9.2.1-1)
REM options -cpp -mtune=generic -march=x86-64 -g -O0 -fpre-include=/usr/include/finclude/math-vector-fortran.h
REM seed 1529033142 80319601 -978348515 -1516061929 810327379 1182465147 -1804985601 1270168756 1736784521 -63375198 1138539315 -574589646 1454659971 -352988149 -949109254 1044126774 1715082554 -322875040 798237565 -1287664557 -704722804 1655994935 -1590789888 1102427008 -580822798 -372056306 -1864151293 -1384416064 -1447989595 1913879981 -135384826 -227026328 1996045310
REM
CELL 1.54180   50.00000   50.00000   50.00000   90.00000   90.00000   90.00000
LATT -1
SFAC C  
C      1  0.5588950000000  0.4286470000000  0.4581400000000 1.0
C      1  0.5835780000000  0.4495680000000  0.5277360000000 1.0
C      1  0.4044910000000  0.5282280000000  0.5108660000000 1.0
C      1  0.5029770000000  0.5730830000000  0.4982250000000 1.0
C      1  0.5611030000000  0.5018200000000  0.6046440000000 1.0
C      1  0.5876350000000  0.5690230000000  0.4912770000000 1.0
C      1  0.4630150000000  0.4805770000000  0.5663750000000 1.0
C      1  0.4579530000000  0.4199530000000  0.4875240000000 1.0
C      1  0.4571290000000  0.4699660000000  0.4204740000000 1.0
C      1  0.5594450000000  0.5940280000000  0.5587990000000 1.0
C      1  0.4974300000000  0.5752830000000  0.5281810000000 1.0
C      1  0.4835940000000  0.3963280000000  0.4516920000000 1.0
C      1  0.4613070000000  0.5305230000000  0.5883550000000 1.0
C      1  0.5478120000000  0.5531140000000  0.4607960000000 1.0
C      1  0.5629100000000  0.5853830000000  0.5064150000000 1.0
C      1  0.5166660000000  0.5230290000000  0.6080400000000 1.0
C      1  0.4353950000000  0.5869420000000  0.5077870000000 1.0
C      1  0.4940690000000  0.5182800000000  0.5268570000000 1.0
C      1  0.3915430000000  0.5332740000000  0.4609940000000 1.0
C      1  0.5055370000000  0.4620580000000  0.5400070000000 1.0
C      1  0.5894880000000  0.4213860000000  0.4718850000000 1.0
C      1  0.6083430000000  0.4865000000000  0.5417420000000 1.0
C      1  0.4027440000000  0.4531010000000  0.4611860000000 1.0
C      1  0.5931400000000  0.5228510000000  0.4506240000000 1.0
C      1  0.4848830000000  0.5784560000000  0.4357400000000 1.0
C      1  0.4078570000000  0.4152130000000  0.4925650000000 1.0
C      1  0.4163870000000  0.5588920000000  0.5110500000000 1.0
C      1  0.4571690000000  0.3956700000000  0.4330160000000 1.0
C      1  0.5558790000000  0.4566950000000  0.5787710000000 1.0
C      1  0.5153300000000  0.4777060000000  0.5893160000000 1.0
C      1  0.5746590000000  0.5633870000000  0.5598570000000 1.0
C      1  0.4829240000000  0.4660220000000  0.4930840000000 1.0
C      1  0.4347160000000  0.4929780000000  0.5517160000000 1.0
C      1  0.5880750000000  0.4838720000000  0.4561450000000 1.0
C      1  0.5519860000000  0.4050950000000  0.5291240000000 1.0
C      1  0.3944660000000  0.4998210000000  0.4551120000000 1.0
C      1  0.5839280000000  0.4728590000000  0.4953930000000 1.0
C      1  0.4917990000000  0.5743140000000  0.5831260000000 1.0
C      1  0.4399240000000  0.4244130000000  0.4388400000000 1.0
C      1  0.5164430000000  0.5325660000000  0.4213740000000 1.0
C      1  0.4855250000000  0.5468140000000  0.4484170000000 1.0
C      1  0.5208430000000  0.5347370000000  0.5150580000000 1.0
C      1  0.4514180000000  0.5714580000000  0.4407030000000 1.0
C      1  0.4968620000000  0.3949880000000  0.5075570000000 1.0
C      1  0.5818250000000  0.5328260000000  0.5541350000000 1.0
C      1  0.5685980000000  0.5465900000000  0.5103870000000 1.0
C      1  0.6075170000000  0.4928520000000  0.5095600000000 1.0
C      1  0.4819060000000  0.6044410000000  0.5337710000000 1.0
C      1  0.5538190000000  0.4668310000000  0.4107760000000 1.0
C      1  0.4376850000000  0.5119110000000  0.5802470000000 1.0
C      1  0.4292180000000  0.4701260000000  0.4262220000000 1.0
C      1  0.5598650000000  0.5521880000000  0.5885920000000 1.0
C      1  0.4274340000000  0.4814030000000  0.5227550000000 1.0
C      1  0.4327880000000  0.4137750000000  0.5055650000000 1.0
C      1  0.4452770000000  0.4597440000000  0.5065430000000 1.0
C      1  0.4838980000000  0.5503380000000  0.5355160000000 1.0
C      1  0.4680760000000  0.4355260000000  0.5138400000000 1.0
C      1  0.5009240000000  0.4661730000000  0.4149240000000 1.0
C      1  0.5539180000000  0.4939730000000  0.4139150000000 1.0
C      1  0.5704510000000  0.5050070000000  0.4360360000000 1.0
C      1  0.4626050000000  0.5635100000000  0.5801080000000 1.0
C      1  0.5102430000000  0.5910750000000  0.4545870000000 1.0
C      1  0.4661030000000  0.5675420000000  0.4687230000000 1.0
C      1  0.5611760000000  0.4626790000000  0.4550630000000 1.0
C      1  0.4025690000000  0.5421420000000  0.4298640000000 1.0
C      1  0.4673800000000  0.4655340000000  0.5297750000000 1.0
C      1  0.4378340000000  0.5076430000000  0.4873210000000 1.0
C      1  0.4751560000000  0.3963380000000  0.4832470000000 1.0
C      1  0.4532700000000  0.4660850000000  0.4772100000000 1.0
C      1  0.5458920000000  0.6023670000000  0.5300890000000 1.0
C      1  0.5100680000000  0.6070440000000  0.4787580000000 1.0
C      1  0.6024070000000  0.5033100000000  0.4774470000000 1.0
C      1  0.4722160000000  0.4255350000000  0.4273060000000 1.0
C      1  0.4794290000000  0.5196480000000  0.4284410000000 1.0
C      1  0.4833480000000  0.5195990000000  0.4833520000000 1.0
C      1  0.4191510000000  0.4475700000000  0.4394890000000 1.0
C      1  0.5301010000000  0.5074660000000  0.4067290000000 1.0
C      1  0.5131240000000  0.5092190000000  0.4841220000000 1.0
C      1  0.5178300000000  0.5073740000000  0.4446410000000 1.0
C      1  0.5345410000000  0.6106190000000  0.4989630000000 1.0
C      1  0.3961240000000  0.4802020000000  0.4809000000000 1.0
C      1  0.4545050000000  0.5168050000000  0.4047130000000 1.0
C      1  0.5463610000000  0.5094430000000  0.4920600000000 1.0
C      1  0.5978080000000  0.4435130000000  0.4969470000000 1.0
C      1  0.5852060000000  0.4997520000000  0.5605200000000 1.0
C      1  0.5736660000000  0.4705280000000  0.5531660000000 1.0
C      1  0.5539050000000  0.4654730000000  0.5197930000000 1.0
C      1  0.4834320000000  0.4405500000000  0.4041710000000 1.0
C      1  0.5681170000000  0.4959180000000  0.5117810000000 1.0
C      1  0.5357620000000  0.4046820000000  0.4659250000000 1.0
C      1  0.4835810000000  0.4540480000000  0.5880630000000 1.0
C      1  0.4598660000000  0.5920360000000  0.4862800000000 1.0
C      1  0.4726020000000  0.4621560000000  0.4427380000000 1.0
C      1  0.4608230000000  0.5123170000000  0.5054900000000 1.0
C      1  0.4484850000000  0.5776930000000  0.5598560000000 1.0
C      1  0.5870790000000  0.5294500000000  0.4878530000000 1.0
C      1  0.5905850000000  0.5177780000000  0.5255570000000 1.0
C      1  0.5555160000000  0.5173360000000  0.5655150000000 1.0
C      1  0.5183970000000  0.4837510000000  0.5035750000000 1.0
C      1  0.5314830000000  0.5050170000000  0.5233270000000 1.0
C      1  0.4757050000000  0.4841970000000  0.5975760000000 1.0
C      1  0.4984290000000  0.5957980000000  0.5621530000000 1.0
C      1  0.5277110000000  0.3883220000000  0.5138740000000 1.0
C      1  0.5281500000000  0.5329210000000  0.5643610000000 1.0
C      1  0.4333460000000  0.4227370000000  0.5322330000000 1.0
C      1  0.5205850000000  0.5571220000000  0.5833150000000 1.0
C      1  0.5566430000000  0.5639780000000  0.5328100000000 1.0
C      1  0.4019830000000  0.4618830000000  0.5106080000000 1.0
C      1  0.4453820000000  0.5621730000000  0.5296970000000 1.0
C      1  0.4123260000000  0.4991570000000  0.5011020000000 1.0
C      1  0.5237870000000  0.5845230000000  0.5441410000000 1.0
C      1  0.4962210000000  0.4281070000000  0.4512330000000 1.0
C      1  0.4080240000000  0.5467260000000  0.4823580000000 1.0
C      1  0.5338610000000  0.4687520000000  0.5552130000000 1.0
C      1  0.5413900000000  0.4869710000000  0.4563990000000 1.0
C      1  0.5299630000000  0.4494880000000  0.4183530000000 1.0
C      1  0.5112260000000  0.4514230000000  0.5077980000000 1.0
C      1  0.4575510000000  0.4385940000000  0.4621530000000 1.0
C      1  0.4241740000000  0.5547720000000  0.4529800000000 1.0
C      1  0.4158810000000  0.4470490000000  0.5379210000000 1.0
C      1  0.5312640000000  0.4482700000000  0.4793600000000 1.0
C      1  0.5014900000000  0.4565640000000  0.4692880000000 1.0
C      1  0.4456890000000  0.4546240000000  0.5527380000000 1.0
C      1  0.4689500000000  0.5461890000000  0.4004530000000 1.0
C      1  0.5682950000000  0.4178280000000  0.4953840000000 1.0
C      1  0.4969510000000  0.4846010000000  0.5640720000000 1.0
C      1  0.5522220000000  0.5193640000000  0.4611630000000 1.0
C      1  0.4435020000000  0.5520060000000  0.4180920000000 1.0
C      1  0.4947660000000  0.5468720000000  0.6028470000000 1.0
C      1  0.4843200000000  0.5519100000000  0.4878410000000 1.0
C      1  0.5013740000000  0.4794080000000  0.4457540000000 1.0
C      1  0.5340600000000  0.5774610000000  0.4906350000000 1.0
C      1  0.4687950000000  0.4896730000000  0.4043970000000 1.0
C      1  0.5118640000000  0.4328920000000  0.3962160000000 1.0
C      1  0.5078100000000  0.3979350000000  0.4747630000000 1.0
C      1  0.5284560000000  0.4381090000000  0.4466820000000 1.0
C      1  0.4385640000000  0.5293210000000  0.4633600000000 1.0
C      1  0.5266820000000  0.5633530000000  0.4191720000000 1.0
C      1  0.4837710000000  0.5144310000000  0.6048540000000 1.0
C      1  0.4088910000000  0.5124120000000  0.5386020000000 1.0
C      1  0.5493230000000  0.5311200000000  0.6025230000000 1.0
C      1  0.5327600000000  0.5742750000000  0.4448740000000 1.0
C      1  0.5479960000000  0.4417380000000  0.5436390000000 1.0
C      1  0.5031430000000  0.5140940000000  0.5581820000000 1.0
C      1  0.4211210000000  0.4970130000000  0.4388360000000 1.0
C      1  0.4269880000000  0.5222570000000  0.4209780000000 1.0
C      1  0.4774690000000  0.5321490000000  0.5604310000000 1.0
C      1  0.5122470000000  0.5349590000000  0.4609990000000 1.0
C      1  0.3978160000000  0.4409400000000  0.4874860000000 1.0
C      1  0.4811740000000  0.4906890000000  0.5164220000000 1.0
C      1  0.5791890000000  0.5510500000000  0.4636500000000 1.0
C      1  0.4947550000000  0.5570350000000  0.4111240000000 1.0
C      1  0.4672070000000  0.5127580000000  0.4574380000000 1.0
C      1  0.4993800000000  0.4982350000000  0.4105500000000 1.0
C      1  0.5312220000000  0.4958240000000  0.6023090000000 1.0
C      1  0.5231480000000  0.4219860000000  0.5204350000000 1.0
C      1  0.5287560000000  0.5524570000000  0.5390590000000 1.0
C      1  0.5483270000000  0.4941380000000  0.5463830000000 1.0
C      1  0.4441830000000  0.4900310000000  0.4604780000000 1.0
C      1  0.5494140000000  0.3968480000000  0.4904710000000 1.0
C      1  0.5110460000000  0.4241070000000  0.5507780000000 1.0
C      1  0.4337510000000  0.6113260000000  0.4869580000000 1.0
C      1  0.4591910000000  0.4232320000000  0.5504920000000 1.0
C      1  0.6030350000000  0.5466410000000  0.5122340000000 1.0
C      1  0.4854880000000  0.4139870000000  0.5307300000000 1.0
C      1  0.4199640000000  0.5287270000000  0.5607920000000 1.0
C      1  0.5926580000000  0.4519840000000  0.4632700000000 1.0
C      1  0.3767500000000  0.5199130000000  0.4336900000000 1.0
C      1  0.4656510000000  0.5420980000000  0.5111430000000 1.0
C      1  0.4853960000000  0.6013160000000  0.5002300000000 1.0
C      1  0.5318480000000  0.4330490000000  0.5727560000000 1.0
C      1  0.4842190000000  0.4427820000000  0.5583910000000 1.0
C      1  0.5586990000000  0.4490630000000  0.4924690000000 1.0
C      1  0.5295260000000  0.5453050000000  0.4881530000000 1.0
C      1  0.5446910000000  0.5786200000000  0.5811000000000 1.0
C      1  0.4466390000000  0.5385700000000  0.5520630000000 1.0
C      1  0.5141920000000  0.4482010000000  0.5940660000000 1.0
C      1  0.5733670000000  0.4202070000000  0.5416330000000 1.0
END
