TITL C-2778433-5640-1404 -0.00349610209547818 125000 -1071.57999525367 0 0 183 (C1) n - 1
REM
REM in /home/nfs/bkarasulu/CARBON/AIRSS/Generating-Clusters/REBO/Only-C1/SD-CG/HFTN-CG
REM
REM
REM
REM
REM
REM ./C.cell (11c1c37f851c82e70ff6c80c92926a4b)
REM
REM compiler GCC version 9.2.1 20190827 (Red Hat 9.2.1-1)
REM options -cpp -mtune=generic -march=x86-64 -g -O0 -fpre-include=/usr/include/finclude/math-vector-fortran.h
REM seed -2084490884 -1488529422 -1459793347 491724011 -806313642 1969953079 -1063740604 -509501056 -943126050 1644261388 1615417417 751473634 1956618605 976101081 1465769534 2043553342 1354752275 -1361333609 -1911396245 481383280 1716388238 96188603 1793031421 2046300210 1861558689 1380865274 1475676233 911362133 -969061356 725925602 -1807161044 2079819619 799079773
REM
CELL 1.54180   50.00000   50.00000   50.00000   90.00000   90.00000   90.00000
LATT -1
SFAC C  
C      1  0.4886800000000  0.5276800000000  0.6080920000000 1.0
C      1  0.5315610000000  0.4909440000000  0.3891370000000 1.0
C      1  0.4062040000000  0.4645640000000  0.5221870000000 1.0
C      1  0.6032920000000  0.4854270000000  0.5190780000000 1.0
C      1  0.3972640000000  0.4816580000000  0.4715620000000 1.0
C      1  0.5634220000000  0.4841100000000  0.5163890000000 1.0
C      1  0.4523540000000  0.5904960000000  0.5109930000000 1.0
C      1  0.5272540000000  0.5203350000000  0.5932650000000 1.0
C      1  0.4665150000000  0.5053060000000  0.4548120000000 1.0
C      1  0.5004670000000  0.4126800000000  0.5394910000000 1.0
C      1  0.5957860000000  0.4645660000000  0.5390070000000 1.0
C      1  0.5898950000000  0.4639770000000  0.4398200000000 1.0
C      1  0.5079060000000  0.5974430000000  0.4781340000000 1.0
C      1  0.4257990000000  0.4721860000000  0.5560070000000 1.0
C      1  0.4328170000000  0.4225860000000  0.4769680000000 1.0
C      1  0.5025020000000  0.4677860000000  0.4026590000000 1.0
C      1  0.4680080000000  0.5458160000000  0.5620390000000 1.0
C      1  0.4943360000000  0.4950380000000  0.6003880000000 1.0
C      1  0.5027970000000  0.4891040000000  0.4247340000000 1.0
C      1  0.4794910000000  0.4991690000000  0.3939970000000 1.0
C      1  0.5425440000000  0.4828130000000  0.4903800000000 1.0
C      1  0.4401380000000  0.5234020000000  0.4552950000000 1.0
C      1  0.5814500000000  0.4380300000000  0.5370240000000 1.0
C      1  0.4653360000000  0.4428240000000  0.4879510000000 1.0
C      1  0.4254570000000  0.4482280000000  0.4551350000000 1.0
C      1  0.5124580000000  0.5476050000000  0.6038630000000 1.0
C      1  0.4010550000000  0.4915070000000  0.5428260000000 1.0
C      1  0.5708730000000  0.5402420000000  0.4257620000000 1.0
C      1  0.5279790000000  0.6161690000000  0.5213360000000 1.0
C      1  0.4878300000000  0.4763300000000  0.5031790000000 1.0
C      1  0.4742600000000  0.4527200000000  0.4577410000000 1.0
C      1  0.4726510000000  0.4350000000000  0.3907340000000 1.0
C      1  0.4572310000000  0.5427510000000  0.5145430000000 1.0
C      1  0.4566490000000  0.5709810000000  0.5802170000000 1.0
C      1  0.5568270000000  0.4361630000000  0.4764210000000 1.0
C      1  0.4369690000000  0.4772450000000  0.4695940000000 1.0
C      1  0.5197570000000  0.4573950000000  0.4481070000000 1.0
C      1  0.4203750000000  0.5061340000000  0.4334820000000 1.0
C      1  0.4157770000000  0.5477720000000  0.5471690000000 1.0
C      1  0.5303970000000  0.5671320000000  0.4331950000000 1.0
C      1  0.5829940000000  0.4202620000000  0.5145430000000 1.0
C      1  0.4841660000000  0.4439400000000  0.5131650000000 1.0
C      1  0.5431630000000  0.5238630000000  0.5510820000000 1.0
C      1  0.5466540000000  0.4992470000000  0.6061640000000 1.0
C      1  0.5735820000000  0.5008010000000  0.5854610000000 1.0
C      1  0.5119580000000  0.4328720000000  0.5961040000000 1.0
C      1  0.5360140000000  0.5217070000000  0.4964830000000 1.0
C      1  0.5295370000000  0.4170780000000  0.4318730000000 1.0
C      1  0.5788870000000  0.5463380000000  0.4778150000000 1.0
C      1  0.5126660000000  0.5593080000000  0.4680450000000 1.0
C      1  0.6019990000000  0.5108540000000  0.5594080000000 1.0
C      1  0.5364800000000  0.4735640000000  0.6129290000000 1.0
C      1  0.4835270000000  0.5862890000000  0.5667920000000 1.0
C      1  0.5059600000000  0.5465310000000  0.5271860000000 1.0
C      1  0.6051260000000  0.5126360000000  0.5306880000000 1.0
C      1  0.6010520000000  0.4849660000000  0.4909380000000 1.0
C      1  0.4393470000000  0.4494270000000  0.5057980000000 1.0
C      1  0.4728340000000  0.4143250000000  0.4393720000000 1.0
C      1  0.4709150000000  0.3904380000000  0.4926510000000 1.0
C      1  0.4767080000000  0.5164990000000  0.4917420000000 1.0
C      1  0.4727950000000  0.4063690000000  0.5207090000000 1.0
C      1  0.4327480000000  0.5334950000000  0.4173500000000 1.0
C      1  0.4404190000000  0.4818290000000  0.5109010000000 1.0
C      1  0.5190940000000  0.4856870000000  0.5425720000000 1.0
C      1  0.5355750000000  0.5813040000000  0.5718280000000 1.0
C      1  0.5685640000000  0.4649510000000  0.5678790000000 1.0
C      1  0.4526840000000  0.4728950000000  0.5379170000000 1.0
C      1  0.5732230000000  0.4812520000000  0.4175980000000 1.0
C      1  0.4365130000000  0.5092120000000  0.5416970000000 1.0
C      1  0.4602490000000  0.5403880000000  0.4027590000000 1.0
C      1  0.4827570000000  0.4969830000000  0.5275740000000 1.0
C      1  0.5383760000000  0.5386000000000  0.4184520000000 1.0
C      1  0.5333890000000  0.4224440000000  0.5427170000000 1.0
C      1  0.4484130000000  0.4234350000000  0.4494730000000 1.0
C      1  0.5052270000000  0.5458600000000  0.4391130000000 1.0
C      1  0.5784400000000  0.5652880000000  0.5014660000000 1.0
C      1  0.5737290000000  0.5375390000000  0.5296600000000 1.0
C      1  0.4851940000000  0.4276800000000  0.4154910000000 1.0
C      1  0.5048760000000  0.4268580000000  0.5700850000000 1.0
C      1  0.4521940000000  0.4810300000000  0.4031970000000 1.0
C      1  0.5058230000000  0.4059820000000  0.4418280000000 1.0
C      1  0.5640810000000  0.4132420000000  0.4965640000000 1.0
C      1  0.5868240000000  0.4592920000000  0.4638850000000 1.0
C      1  0.4001550000000  0.5250430000000  0.5369010000000 1.0
C      1  0.4442220000000  0.5222290000000  0.5843310000000 1.0
C      1  0.5589560000000  0.4285740000000  0.5544960000000 1.0
C      1  0.4634840000000  0.5430790000000  0.5984080000000 1.0
C      1  0.4766020000000  0.5999740000000  0.4925950000000 1.0
C      1  0.4978860000000  0.5836980000000  0.4489980000000 1.0
C      1  0.4466320000000  0.5033630000000  0.4891870000000 1.0
C      1  0.4578920000000  0.5876350000000  0.5439890000000 1.0
C      1  0.5231980000000  0.4352620000000  0.4708750000000 1.0
C      1  0.5476950000000  0.4690160000000  0.4005590000000 1.0
C      1  0.5850610000000  0.5308760000000  0.5742100000000 1.0
C      1  0.4948020000000  0.5169610000000  0.4640060000000 1.0
C      1  0.5317900000000  0.4092710000000  0.4913520000000 1.0
C      1  0.4776430000000  0.5676270000000  0.4854190000000 1.0
C      1  0.5394820000000  0.4449320000000  0.6019640000000 1.0
C      1  0.5056290000000  0.5662250000000  0.5781240000000 1.0
C      1  0.4822100000000  0.4607670000000  0.5842920000000 1.0
C      1  0.4821880000000  0.4756820000000  0.5534980000000 1.0
C      1  0.4231740000000  0.5680900000000  0.4696760000000 1.0
C      1  0.5741370000000  0.5496850000000  0.5556510000000 1.0
C      1  0.5111900000000  0.4235580000000  0.5094790000000 1.0
C      1  0.4781400000000  0.4738810000000  0.4335930000000 1.0
C      1  0.4092100000000  0.5314230000000  0.4625280000000 1.0
C      1  0.4075800000000  0.4753210000000  0.4430650000000 1.0
C      1  0.4546390000000  0.5795970000000  0.4662090000000 1.0
C      1  0.5195130000000  0.4744620000000  0.5105220000000 1.0
C      1  0.5989760000000  0.5402200000000  0.5126950000000 1.0
C      1  0.5485720000000  0.5746750000000  0.4539950000000 1.0
C      1  0.5716140000000  0.5563800000000  0.4516600000000 1.0
C      1  0.5364770000000  0.5396520000000  0.4704190000000 1.0
C      1  0.5380290000000  0.4912000000000  0.4591770000000 1.0
C      1  0.4880500000000  0.5849600000000  0.5276880000000 1.0
C      1  0.4743880000000  0.5412150000000  0.4397060000000 1.0
C      1  0.4039480000000  0.5490290000000  0.4903700000000 1.0
C      1  0.5212030000000  0.4489710000000  0.5269700000000 1.0
C      1  0.5195550000000  0.3836360000000  0.4778820000000 1.0
C      1  0.5084570000000  0.5091440000000  0.3906330000000 1.0
C      1  0.4664860000000  0.4370810000000  0.5709210000000 1.0
C      1  0.4103570000000  0.4965570000000  0.5103970000000 1.0
C      1  0.5533360000000  0.5154380000000  0.5216020000000 1.0
C      1  0.4196470000000  0.5535080000000  0.4390970000000 1.0
C      1  0.5476010000000  0.4986420000000  0.5667460000000 1.0
C      1  0.5089140000000  0.4802670000000  0.4695490000000 1.0
C      1  0.4462720000000  0.4096980000000  0.4991570000000 1.0
C      1  0.4128280000000  0.4624600000000  0.4898210000000 1.0
C      1  0.5058000000000  0.5140740000000  0.5673660000000 1.0
C      1  0.5394870000000  0.5866770000000  0.4791860000000 1.0
C      1  0.4508160000000  0.5627650000000  0.4412990000000 1.0
C      1  0.3884950000000  0.5298460000000  0.5109230000000 1.0
C      1  0.5127430000000  0.5917350000000  0.5488120000000 1.0
C      1  0.5065800000000  0.5137750000000  0.4352950000000 1.0
C      1  0.5829960000000  0.4978270000000  0.4737770000000 1.0
C      1  0.4329730000000  0.5316690000000  0.4946510000000 1.0
C      1  0.5434670000000  0.5211990000000  0.4474450000000 1.0
C      1  0.5037290000000  0.6081370000000  0.5093470000000 1.0
C      1  0.5959640000000  0.4806720000000  0.5690870000000 1.0
C      1  0.4750840000000  0.4662630000000  0.3856530000000 1.0
C      1  0.5432390000000  0.4418460000000  0.4127970000000 1.0
C      1  0.5588350000000  0.4410200000000  0.5817500000000 1.0
C      1  0.5073730000000  0.5162850000000  0.5354190000000 1.0
C      1  0.4636900000000  0.4875440000000  0.5868080000000 1.0
C      1  0.5679080000000  0.4627410000000  0.4900990000000 1.0
C      1  0.5504300000000  0.4699310000000  0.4401190000000 1.0
C      1  0.4364920000000  0.4792680000000  0.5823270000000 1.0
C      1  0.5047670000000  0.5577930000000  0.4990460000000 1.0
C      1  0.5625380000000  0.5750170000000  0.5560390000000 1.0
C      1  0.5049590000000  0.4638070000000  0.6079770000000 1.0
C      1  0.5438050000000  0.5902690000000  0.5338460000000 1.0
C      1  0.5119890000000  0.5355160000000  0.4011400000000 1.0
C      1  0.4875930000000  0.5545850000000  0.4044110000000 1.0
C      1  0.4757780000000  0.5158970000000  0.5721680000000 1.0
C      1  0.4903070000000  0.3965660000000  0.4708260000000 1.0
C      1  0.5834090000000  0.5123260000000  0.4192300000000 1.0
C      1  0.5050190000000  0.4468770000000  0.4224270000000 1.0
C      1  0.4665880000000  0.5131040000000  0.4220400000000 1.0
C      1  0.4772370000000  0.4814460000000  0.4727510000000 1.0
C      1  0.4259610000000  0.5142850000000  0.5663280000000 1.0
C      1  0.4388930000000  0.5653450000000  0.4998270000000 1.0
C      1  0.5026150000000  0.4507190000000  0.5516260000000 1.0
C      1  0.4661610000000  0.4430780000000  0.5372770000000 1.0
C      1  0.5513580000000  0.4754490000000  0.5433470000000 1.0
C      1  0.4895730000000  0.5786240000000  0.4229270000000 1.0
C      1  0.4763750000000  0.5537980000000  0.5342650000000 1.0
C      1  0.5681450000000  0.5208040000000  0.4851040000000 1.0
C      1  0.5178230000000  0.4852990000000  0.5770160000000 1.0
C      1  0.5537450000000  0.4368750000000  0.4451130000000 1.0
C      1  0.5227020000000  0.5479070000000  0.5544990000000 1.0
C      1  0.4642460000000  0.5412000000000  0.4719770000000 1.0
C      1  0.5409400000000  0.5498260000000  0.5841830000000 1.0
C      1  0.4341530000000  0.5659330000000  0.5551170000000 1.0
C      1  0.3965890000000  0.5104220000000  0.4840410000000 1.0
C      1  0.4441860000000  0.4219620000000  0.5522400000000 1.0
C      1  0.5096730000000  0.5074340000000  0.4908300000000 1.0
C      1  0.4919230000000  0.4286870000000  0.4714350000000 1.0
C      1  0.5547250000000  0.5820880000000  0.5034870000000 1.0
C      1  0.4576400000000  0.5142410000000  0.5263790000000 1.0
C      1  0.4262210000000  0.4433350000000  0.5368510000000 1.0
C      1  0.4466710000000  0.4762480000000  0.4368510000000 1.0
C      1  0.5727880000000  0.5071450000000  0.4478690000000 1.0
C      1  0.4218650000000  0.4799800000000  0.4132690000000 1.0
END
