TITL C-2778429-3646-1348 0.00422141534270361 125000 -874.223004856843 0 0 150 (C1) n - 1
REM
REM in /home/nfs/bkarasulu/CARBON/AIRSS/Generating-Clusters/REBO/Only-C1/SD-CG/HFTN-CG
REM
REM
REM
REM
REM
REM ./C.cell (11c1c37f851c82e70ff6c80c92926a4b)
REM
REM compiler GCC version 9.2.1 20190827 (Red Hat 9.2.1-1)
REM options -cpp -mtune=generic -march=x86-64 -g -O0 -fpre-include=/usr/include/finclude/math-vector-fortran.h
REM seed -1690734506 1996692450 -1629679329 -1095404458 -168482642 -956503248 1369166956 -1366444352 -345532350 2027900968 637021793 1856768157 1577776184 809944617 898192798 1874810185 1821977774 1679302820 1549657672 -1236591799 23221299 -1349132708 -799837651 -1056114861 1450919781 -2098457498 -519582012 -1903440848 -1836175310 -1085294668 -1039869418 546523630 1218503830
REM
CELL 1.54180   50.00000   50.00000   50.00000   90.00000   90.00000   90.00000
LATT -1
SFAC C  
C      1  0.4877690000000  0.5387830000000  0.4608850000000 1.0
C      1  0.5989170000000  0.5351520000000  0.5052030000000 1.0
C      1  0.5829770000000  0.4607420000000  0.5379520000000 1.0
C      1  0.4238820000000  0.5121990000000  0.5318340000000 1.0
C      1  0.4417140000000  0.5582000000000  0.4410580000000 1.0
C      1  0.4508710000000  0.4558040000000  0.4736880000000 1.0
C      1  0.5185860000000  0.5036380000000  0.5030840000000 1.0
C      1  0.4701640000000  0.4444140000000  0.4170900000000 1.0
C      1  0.4880350000000  0.4222250000000  0.4360190000000 1.0
C      1  0.4346850000000  0.5744570000000  0.5374010000000 1.0
C      1  0.4852660000000  0.4603160000000  0.5116300000000 1.0
C      1  0.5313930000000  0.5684570000000  0.5136720000000 1.0
C      1  0.4795210000000  0.4569880000000  0.5505270000000 1.0
C      1  0.4310260000000  0.5626730000000  0.4697080000000 1.0
C      1  0.5298950000000  0.4550150000000  0.5326420000000 1.0
C      1  0.4545580000000  0.4448420000000  0.5698270000000 1.0
C      1  0.4146610000000  0.4877320000000  0.4624270000000 1.0
C      1  0.4368400000000  0.4469290000000  0.4233810000000 1.0
C      1  0.5512320000000  0.4191570000000  0.5297260000000 1.0
C      1  0.5870530000000  0.4590850000000  0.5075120000000 1.0
C      1  0.4680790000000  0.5265550000000  0.4959630000000 1.0
C      1  0.5657180000000  0.4838290000000  0.5106910000000 1.0
C      1  0.4459530000000  0.5262140000000  0.4704230000000 1.0
C      1  0.5534650000000  0.5491950000000  0.5818560000000 1.0
C      1  0.5483490000000  0.3893680000000  0.4606510000000 1.0
C      1  0.4775150000000  0.5920030000000  0.5638760000000 1.0
C      1  0.4641180000000  0.5469210000000  0.5306920000000 1.0
C      1  0.5122750000000  0.4778470000000  0.6020120000000 1.0
C      1  0.4360670000000  0.4554750000000  0.5018740000000 1.0
C      1  0.5327910000000  0.4127970000000  0.4612590000000 1.0
C      1  0.5887760000000  0.5304090000000  0.5530130000000 1.0
C      1  0.5005580000000  0.4097330000000  0.4579370000000 1.0
C      1  0.4895880000000  0.5013180000000  0.4877380000000 1.0
C      1  0.4874790000000  0.4119890000000  0.4892700000000 1.0
C      1  0.5737690000000  0.4372970000000  0.4918680000000 1.0
C      1  0.5220980000000  0.5559250000000  0.5758480000000 1.0
C      1  0.5378310000000  0.4909600000000  0.4832920000000 1.0
C      1  0.5428170000000  0.4343750000000  0.4413870000000 1.0
C      1  0.5836590000000  0.5395660000000  0.4544350000000 1.0
C      1  0.5727320000000  0.5573940000000  0.5568930000000 1.0
C      1  0.4962970000000  0.5412130000000  0.4106380000000 1.0
C      1  0.4296730000000  0.5463690000000  0.5514140000000 1.0
C      1  0.5592250000000  0.4442170000000  0.5469900000000 1.0
C      1  0.5486470000000  0.4636860000000  0.4440390000000 1.0
C      1  0.4203760000000  0.4251630000000  0.4812910000000 1.0
C      1  0.5983640000000  0.5258650000000  0.4777320000000 1.0
C      1  0.5131670000000  0.4893570000000  0.4077960000000 1.0
C      1  0.5508530000000  0.4434260000000  0.5772730000000 1.0
C      1  0.4387710000000  0.4956980000000  0.5065910000000 1.0
C      1  0.4404370000000  0.4976310000000  0.4668250000000 1.0
C      1  0.5077510000000  0.5561340000000  0.5020770000000 1.0
C      1  0.5033930000000  0.5103670000000  0.5963220000000 1.0
C      1  0.4960970000000  0.4765640000000  0.4651540000000 1.0
C      1  0.4671500000000  0.4821650000000  0.5787170000000 1.0
C      1  0.4864670000000  0.4733120000000  0.4086640000000 1.0
C      1  0.5386850000000  0.5109220000000  0.5491980000000 1.0
C      1  0.5330250000000  0.5171070000000  0.4625380000000 1.0
C      1  0.4715280000000  0.5264220000000  0.5547150000000 1.0
C      1  0.4703430000000  0.4188130000000  0.5434010000000 1.0
C      1  0.4161080000000  0.5269850000000  0.4552740000000 1.0
C      1  0.4828260000000  0.5726970000000  0.5183890000000 1.0
C      1  0.5617800000000  0.5017530000000  0.4533370000000 1.0
C      1  0.4689950000000  0.5638040000000  0.4578820000000 1.0
C      1  0.5129630000000  0.5019550000000  0.4393470000000 1.0
C      1  0.5096420000000  0.5200870000000  0.5634140000000 1.0
C      1  0.4569190000000  0.4794770000000  0.5504620000000 1.0
C      1  0.4948080000000  0.5877810000000  0.5428240000000 1.0
C      1  0.4855750000000  0.4602630000000  0.5897080000000 1.0
C      1  0.4895030000000  0.5814660000000  0.4428240000000 1.0
C      1  0.5368700000000  0.5579700000000  0.4571470000000 1.0
C      1  0.5238410000000  0.4535340000000  0.5805040000000 1.0
C      1  0.5682350000000  0.5107100000000  0.4992130000000 1.0
C      1  0.4821840000000  0.4285280000000  0.5775310000000 1.0
C      1  0.4740680000000  0.5712060000000  0.5815990000000 1.0
C      1  0.5702630000000  0.4917140000000  0.5792460000000 1.0
C      1  0.5143130000000  0.5424960000000  0.4752770000000 1.0
C      1  0.5809910000000  0.4916970000000  0.5468100000000 1.0
C      1  0.5598210000000  0.5802040000000  0.4331960000000 1.0
C      1  0.5583010000000  0.4889880000000  0.4233670000000 1.0
C      1  0.5428010000000  0.5548560000000  0.5419310000000 1.0
C      1  0.5581740000000  0.5352650000000  0.5059170000000 1.0
C      1  0.5480240000000  0.5214270000000  0.4215560000000 1.0
C      1  0.5190660000000  0.4187140000000  0.4918410000000 1.0
C      1  0.4080110000000  0.4717200000000  0.5522540000000 1.0
C      1  0.4211060000000  0.5166920000000  0.4277390000000 1.0
C      1  0.5023090000000  0.4143960000000  0.5537450000000 1.0
C      1  0.5030100000000  0.4362640000000  0.4123110000000 1.0
C      1  0.5743510000000  0.5814080000000  0.4563340000000 1.0
C      1  0.5392490000000  0.4956270000000  0.5889350000000 1.0
C      1  0.5320310000000  0.5706590000000  0.4263210000000 1.0
C      1  0.4075600000000  0.4507680000000  0.4744570000000 1.0
C      1  0.5064040000000  0.5972780000000  0.4598550000000 1.0
C      1  0.4070090000000  0.4693350000000  0.5015050000000 1.0
C      1  0.4695230000000  0.4306090000000  0.4712640000000 1.0
C      1  0.4360240000000  0.5394010000000  0.5185450000000 1.0
C      1  0.4957320000000  0.5356720000000  0.5242560000000 1.0
C      1  0.5040960000000  0.5688940000000  0.4212720000000 1.0
C      1  0.4149570000000  0.5163980000000  0.4935740000000 1.0
C      1  0.4210440000000  0.4917070000000  0.5746760000000 1.0
C      1  0.4670170000000  0.5240910000000  0.4141400000000 1.0
C      1  0.5318440000000  0.5284150000000  0.5949560000000 1.0
C      1  0.4056740000000  0.4845610000000  0.5257970000000 1.0
C      1  0.5035800000000  0.4823840000000  0.5200370000000 1.0
C      1  0.4411400000000  0.5373830000000  0.4220400000000 1.0
C      1  0.4905910000000  0.4280910000000  0.5182660000000 1.0
C      1  0.5300620000000  0.4434920000000  0.4150400000000 1.0
C      1  0.4302240000000  0.4248070000000  0.5112640000000 1.0
C      1  0.5462500000000  0.5917650000000  0.4964350000000 1.0
C      1  0.4614710000000  0.4933960000000  0.4169300000000 1.0
C      1  0.4964270000000  0.4953780000000  0.5470390000000 1.0
C      1  0.5619940000000  0.5205910000000  0.5675380000000 1.0
C      1  0.4561550000000  0.4699250000000  0.5208670000000 1.0
C      1  0.4620660000000  0.4843860000000  0.4845040000000 1.0
C      1  0.4437860000000  0.4160470000000  0.5335390000000 1.0
C      1  0.5507230000000  0.4613380000000  0.4911110000000 1.0
C      1  0.5297810000000  0.5870380000000  0.4699140000000 1.0
C      1  0.4519170000000  0.4665510000000  0.4449210000000 1.0
C      1  0.5791030000000  0.5611410000000  0.5070100000000 1.0
C      1  0.4943300000000  0.4508220000000  0.4826570000000 1.0
C      1  0.4249090000000  0.5178460000000  0.5634640000000 1.0
C      1  0.4306070000000  0.4860750000000  0.4259990000000 1.0
C      1  0.4584820000000  0.5587140000000  0.4899100000000 1.0
C      1  0.4758220000000  0.5091440000000  0.5816400000000 1.0
C      1  0.5228220000000  0.5795600000000  0.5511060000000 1.0
C      1  0.5667890000000  0.4146010000000  0.5074140000000 1.0
C      1  0.4205410000000  0.5466110000000  0.4930940000000 1.0
C      1  0.4306210000000  0.4592790000000  0.5726500000000 1.0
C      1  0.4416120000000  0.4172340000000  0.4637480000000 1.0
C      1  0.5371570000000  0.4700900000000  0.4065820000000 1.0
C      1  0.5730340000000  0.5804010000000  0.4831690000000 1.0
C      1  0.5486420000000  0.4822840000000  0.5374000000000 1.0
C      1  0.5077100000000  0.4464120000000  0.5526970000000 1.0
C      1  0.5216840000000  0.4164870000000  0.5257920000000 1.0
C      1  0.4126270000000  0.4617120000000  0.4426110000000 1.0
C      1  0.5954520000000  0.5164650000000  0.5279540000000 1.0
C      1  0.4798970000000  0.4771140000000  0.4409380000000 1.0
C      1  0.5191880000000  0.4822070000000  0.5649330000000 1.0
C      1  0.4907240000000  0.5219830000000  0.4368920000000 1.0
C      1  0.4501800000000  0.5802610000000  0.5146760000000 1.0
C      1  0.5229370000000  0.4492200000000  0.5017940000000 1.0
C      1  0.4905710000000  0.5457060000000  0.5751240000000 1.0
C      1  0.3940500000000  0.5085080000000  0.4715110000000 1.0
C      1  0.5221150000000  0.5216140000000  0.4061640000000 1.0
C      1  0.5581950000000  0.5397880000000  0.4414880000000 1.0
C      1  0.5262240000000  0.4782780000000  0.4576090000000 1.0
C      1  0.5746220000000  0.5770240000000  0.5329790000000 1.0
C      1  0.5292940000000  0.5295560000000  0.5227220000000 1.0
C      1  0.5469270000000  0.5929200000000  0.5307090000000 1.0
C      1  0.5864030000000  0.5011850000000  0.4650950000000 1.0
C      1  0.4746090000000  0.5093100000000  0.5248750000000 1.0
END
