TITL C-2778424-3986-177 -0.00285808528803642 125000 -668.998754684565 0 0 116 (C1) n - 1
REM
REM in /home/nfs/bkarasulu/CARBON/AIRSS/Generating-Clusters/REBO/Only-C1/SD-CG/HFTN-CG
REM
REM
REM
REM
REM
REM ./C.cell (11c1c37f851c82e70ff6c80c92926a4b)
REM
REM compiler GCC version 9.2.1 20190827 (Red Hat 9.2.1-1)
REM options -cpp -mtune=generic -march=x86-64 -g -O0 -fpre-include=/usr/include/finclude/math-vector-fortran.h
REM seed -1804990103 -1811615202 283500702 252442228 -626428701 -644713760 -491302121 -523810216 -394732977 -1458075265 -762221550 -48930333 -1674232951 -1563962341 -1756141781 -1488061699 295303616 702400019 -884427528 -1412210597 -1843189896 -1194431552 -30605644 2128657618 285975303 1342391353 -1781595977 -1229401284 -1700631959 -1873162214 55043892 -1742849644 1061220199
REM
CELL 1.54180   50.00000   50.00000   50.00000   90.00000   90.00000   90.00000
LATT -1
SFAC C  
C      1  0.5032470000000  0.5635980000000  0.5175870000000 1.0
C      1  0.5200200000000  0.4390610000000  0.4725100000000 1.0
C      1  0.5298010000000  0.4252480000000  0.5520190000000 1.0
C      1  0.4644300000000  0.5305860000000  0.4914870000000 1.0
C      1  0.4600260000000  0.5194000000000  0.5550800000000 1.0
C      1  0.4665270000000  0.4932080000000  0.4126690000000 1.0
C      1  0.4151270000000  0.4924490000000  0.4603410000000 1.0
C      1  0.4708400000000  0.4658230000000  0.5779990000000 1.0
C      1  0.5003690000000  0.5997340000000  0.4930800000000 1.0
C      1  0.5496900000000  0.5480930000000  0.5498410000000 1.0
C      1  0.4148250000000  0.4639360000000  0.5448410000000 1.0
C      1  0.4124580000000  0.5389930000000  0.4746770000000 1.0
C      1  0.5206290000000  0.4045800000000  0.5050760000000 1.0
C      1  0.5567170000000  0.5630950000000  0.4486030000000 1.0
C      1  0.4156180000000  0.5437270000000  0.5017480000000 1.0
C      1  0.5697320000000  0.5561710000000  0.5064810000000 1.0
C      1  0.5480430000000  0.5281220000000  0.5263580000000 1.0
C      1  0.4757170000000  0.5751540000000  0.4754900000000 1.0
C      1  0.5485440000000  0.5771010000000  0.5150060000000 1.0
C      1  0.5031450000000  0.4193880000000  0.5209170000000 1.0
C      1  0.4737980000000  0.5883300000000  0.5069430000000 1.0
C      1  0.4225470000000  0.5449920000000  0.5352430000000 1.0
C      1  0.4184790000000  0.4710660000000  0.4782390000000 1.0
C      1  0.4544810000000  0.4245660000000  0.4836440000000 1.0
C      1  0.4982120000000  0.4850170000000  0.4871250000000 1.0
C      1  0.4230780000000  0.4878940000000  0.5617940000000 1.0
C      1  0.5250250000000  0.5780540000000  0.4953950000000 1.0
C      1  0.4959530000000  0.5287450000000  0.4995400000000 1.0
C      1  0.4809720000000  0.4101690000000  0.4798880000000 1.0
C      1  0.5479610000000  0.4679780000000  0.4553490000000 1.0
C      1  0.5313990000000  0.4993920000000  0.5269910000000 1.0
C      1  0.4275020000000  0.5177580000000  0.4615440000000 1.0
C      1  0.5505910000000  0.4969650000000  0.5017040000000 1.0
C      1  0.4760570000000  0.4562270000000  0.5159060000000 1.0
C      1  0.4605360000000  0.4485010000000  0.4297330000000 1.0
C      1  0.5649010000000  0.4547230000000  0.5307970000000 1.0
C      1  0.5536780000000  0.4365590000000  0.4663030000000 1.0
C      1  0.5112960000000  0.5516180000000  0.5724640000000 1.0
C      1  0.4921410000000  0.4410760000000  0.5776090000000 1.0
C      1  0.5260150000000  0.5420030000000  0.4630730000000 1.0
C      1  0.4879500000000  0.5321980000000  0.5698360000000 1.0
C      1  0.4480570000000  0.4281010000000  0.5115110000000 1.0
C      1  0.4856230000000  0.5422440000000  0.4173700000000 1.0
C      1  0.5618470000000  0.4695060000000  0.4869720000000 1.0
C      1  0.4965380000000  0.5373180000000  0.5381940000000 1.0
C      1  0.5567990000000  0.4644080000000  0.5573790000000 1.0
C      1  0.5177870000000  0.4758910000000  0.5098850000000 1.0
C      1  0.4772270000000  0.4887130000000  0.4616690000000 1.0
C      1  0.4784580000000  0.5294180000000  0.4472610000000 1.0
C      1  0.5143050000000  0.4508790000000  0.5258260000000 1.0
C      1  0.5080160000000  0.5747140000000  0.5496560000000 1.0
C      1  0.4669600000000  0.4494010000000  0.5480410000000 1.0
C      1  0.5395920000000  0.5090600000000  0.5755540000000 1.0
C      1  0.4713760000000  0.4199560000000  0.5317230000000 1.0
C      1  0.5799910000000  0.4577380000000  0.4605080000000 1.0
C      1  0.4008190000000  0.4500790000000  0.4812710000000 1.0
C      1  0.5332010000000  0.4733020000000  0.4067420000000 1.0
C      1  0.4511920000000  0.5443220000000  0.5753690000000 1.0
C      1  0.4889680000000  0.4843900000000  0.4329370000000 1.0
C      1  0.5824120000000  0.5327160000000  0.4853040000000 1.0
C      1  0.5109830000000  0.5080620000000  0.5478380000000 1.0
C      1  0.5590750000000  0.4934110000000  0.5587430000000 1.0
C      1  0.5155790000000  0.5022680000000  0.4278500000000 1.0
C      1  0.5121730000000  0.5617490000000  0.4397420000000 1.0
C      1  0.5433110000000  0.4874050000000  0.4337570000000 1.0
C      1  0.5502390000000  0.5050280000000  0.4696530000000 1.0
C      1  0.4912560000000  0.4068920000000  0.4533170000000 1.0
C      1  0.4842090000000  0.4942380000000  0.5891970000000 1.0
C      1  0.4985770000000  0.4600280000000  0.5498810000000 1.0
C      1  0.5052750000000  0.4298910000000  0.4462000000000 1.0
C      1  0.5121880000000  0.4598320000000  0.4049880000000 1.0
C      1  0.5500070000000  0.5429310000000  0.4823930000000 1.0
C      1  0.5108790000000  0.4977500000000  0.5796310000000 1.0
C      1  0.5371010000000  0.5380870000000  0.5728250000000 1.0
C      1  0.4581630000000  0.5166510000000  0.4655380000000 1.0
C      1  0.4436260000000  0.4725000000000  0.4946400000000 1.0
C      1  0.4809060000000  0.5113950000000  0.5223720000000 1.0
C      1  0.4974190000000  0.5500550000000  0.4764600000000 1.0
C      1  0.4676090000000  0.4615450000000  0.4765500000000 1.0
C      1  0.5819900000000  0.4766530000000  0.5138880000000 1.0
C      1  0.4521630000000  0.4419340000000  0.4562520000000 1.0
C      1  0.5806820000000  0.5297710000000  0.5249790000000 1.0
C      1  0.4536780000000  0.4891330000000  0.5640390000000 1.0
C      1  0.5410830000000  0.4438540000000  0.5700500000000 1.0
C      1  0.4136680000000  0.5172130000000  0.5526440000000 1.0
C      1  0.5815330000000  0.5569590000000  0.4622620000000 1.0
C      1  0.4685030000000  0.5188370000000  0.4038260000000 1.0
C      1  0.5763190000000  0.5016450000000  0.5362720000000 1.0
C      1  0.4720980000000  0.4865290000000  0.5071440000000 1.0
C      1  0.4532220000000  0.5571030000000  0.5437380000000 1.0
C      1  0.4975210000000  0.4202870000000  0.5540120000000 1.0
C      1  0.5274070000000  0.5292060000000  0.5008870000000 1.0
C      1  0.5382820000000  0.5796980000000  0.4639440000000 1.0
C      1  0.4701610000000  0.5551730000000  0.5139990000000 1.0
C      1  0.5057030000000  0.5182890000000  0.4530650000000 1.0
C      1  0.5426160000000  0.4333530000000  0.5220370000000 1.0
C      1  0.4368990000000  0.4805950000000  0.5250340000000 1.0
C      1  0.4784310000000  0.5628310000000  0.4439170000000 1.0
C      1  0.5620880000000  0.5136150000000  0.4394610000000 1.0
C      1  0.5050860000000  0.5865200000000  0.4619600000000 1.0
C      1  0.5833850000000  0.5026010000000  0.4913930000000 1.0
C      1  0.4397690000000  0.5090540000000  0.5324240000000 1.0
C      1  0.4907240000000  0.4412830000000  0.4898790000000 1.0
C      1  0.4307970000000  0.4468510000000  0.5224690000000 1.0
C      1  0.4415220000000  0.5278340000000  0.5097130000000 1.0
C      1  0.5417940000000  0.4218230000000  0.4923390000000 1.0
C      1  0.5197140000000  0.5054820000000  0.4778320000000 1.0
C      1  0.4763060000000  0.5821210000000  0.5404230000000 1.0
C      1  0.5798330000000  0.4917930000000  0.4592720000000 1.0
C      1  0.4835370000000  0.4882630000000  0.5474670000000 1.0
C      1  0.4494590000000  0.4697340000000  0.4135500000000 1.0
C      1  0.5188930000000  0.5352050000000  0.4194550000000 1.0
C      1  0.5493940000000  0.5408200000000  0.4308560000000 1.0
C      1  0.5397590000000  0.5732330000000  0.5416160000000 1.0
C      1  0.4675870000000  0.5207640000000  0.5939210000000 1.0
C      1  0.4925750000000  0.4507700000000  0.4283040000000 1.0
END
