TITL C-2778428-5639-24 -0.000968290548541765 125000 -495.225871378674 0 0 85 (C1) n - 1
REM
REM in /home/nfs/bkarasulu/CARBON/AIRSS/Generating-Clusters/REBO/Only-C1/SD-CG/HFTN-CG
REM
REM
REM
REM
REM
REM ./C.cell (11c1c37f851c82e70ff6c80c92926a4b)
REM
REM compiler GCC version 9.2.1 20190827 (Red Hat 9.2.1-1)
REM options -cpp -mtune=generic -march=x86-64 -g -O0 -fpre-include=/usr/include/finclude/math-vector-fortran.h
REM seed -1669892284 1605872332 665106837 1293988499 -259265823 -758107856 1959233608 2101485938 -199094843 1497420235 1242250994 -1240565519 2089374557 300401669 847783646 1799332947 -425053804 2101143613 -1194947803 126960153 -2120766579 2060896581 1013483789 1597099876 757901604 -431834777 774315141 1642340329 1859242449 -1572994467 1469978475 98958561 762913148
REM
CELL 1.54180   50.00000   50.00000   50.00000   90.00000   90.00000   90.00000
LATT -1
SFAC C  
C      1  0.4351900000000  0.4695410000000  0.4426460000000 1.0
C      1  0.5175760000000  0.5577280000000  0.4408260000000 1.0
C      1  0.5626060000000  0.5472100000000  0.4826970000000 1.0
C      1  0.4833010000000  0.4729960000000  0.4344870000000 1.0
C      1  0.5353340000000  0.4582150000000  0.5372500000000 1.0
C      1  0.4667080000000  0.4960870000000  0.5349950000000 1.0
C      1  0.4906800000000  0.4984400000000  0.5032080000000 1.0
C      1  0.4765550000000  0.4554460000000  0.4936160000000 1.0
C      1  0.6152200000000  0.5044680000000  0.4827260000000 1.0
C      1  0.5582360000000  0.5192480000000  0.4410340000000 1.0
C      1  0.5128210000000  0.5603540000000  0.4715450000000 1.0
C      1  0.4368830000000  0.4518790000000  0.5159560000000 1.0
C      1  0.5712230000000  0.4789930000000  0.4743430000000 1.0
C      1  0.4840280000000  0.5722300000000  0.4746280000000 1.0
C      1  0.5228380000000  0.4788380000000  0.4898250000000 1.0
C      1  0.5413160000000  0.5638800000000  0.4873860000000 1.0
C      1  0.4499620000000  0.5919940000000  0.5149730000000 1.0
C      1  0.4926530000000  0.5912710000000  0.5496680000000 1.0
C      1  0.5666370000000  0.5399260000000  0.4556140000000 1.0
C      1  0.5167710000000  0.5014940000000  0.4714180000000 1.0
C      1  0.4398790000000  0.4812070000000  0.5012220000000 1.0
C      1  0.4442800000000  0.4298900000000  0.4923470000000 1.0
C      1  0.4626520000000  0.4299960000000  0.5210110000000 1.0
C      1  0.5191850000000  0.5543130000000  0.5607180000000 1.0
C      1  0.4710560000000  0.4704480000000  0.5238410000000 1.0
C      1  0.4457180000000  0.4770320000000  0.5631680000000 1.0
C      1  0.4663090000000  0.4845550000000  0.4867510000000 1.0
C      1  0.5615160000000  0.4566200000000  0.5525030000000 1.0
C      1  0.4348230000000  0.5159870000000  0.4629580000000 1.0
C      1  0.4519650000000  0.5442020000000  0.5140740000000 1.0
C      1  0.4705140000000  0.5557790000000  0.5725620000000 1.0
C      1  0.5332290000000  0.4208550000000  0.5057220000000 1.0
C      1  0.5717860000000  0.4731490000000  0.5054130000000 1.0
C      1  0.4594830000000  0.4575310000000  0.4441660000000 1.0
C      1  0.4865420000000  0.5069660000000  0.5736720000000 1.0
C      1  0.4240640000000  0.4920820000000  0.4529960000000 1.0
C      1  0.4890930000000  0.4183360000000  0.4650180000000 1.0
C      1  0.5259380000000  0.5274610000000  0.5176040000000 1.0
C      1  0.4428440000000  0.5691580000000  0.5313160000000 1.0
C      1  0.5121330000000  0.5501330000000  0.5318920000000 1.0
C      1  0.5107430000000  0.4899860000000  0.4234830000000 1.0
C      1  0.4346430000000  0.5230310000000  0.4940940000000 1.0
C      1  0.4303440000000  0.5050110000000  0.5212530000000 1.0
C      1  0.5728650000000  0.5267460000000  0.5021530000000 1.0
C      1  0.5167020000000  0.4793420000000  0.5479620000000 1.0
C      1  0.4870880000000  0.5246830000000  0.4842460000000 1.0
C      1  0.4754140000000  0.5877790000000  0.4972780000000 1.0
C      1  0.5648200000000  0.4430230000000  0.5761440000000 1.0
C      1  0.4866630000000  0.5220260000000  0.5442530000000 1.0
C      1  0.4845670000000  0.4996750000000  0.4639950000000 1.0
C      1  0.5102190000000  0.5427080000000  0.4197790000000 1.0
C      1  0.4467880000000  0.5203070000000  0.5455560000000 1.0
C      1  0.4956950000000  0.5703280000000  0.5697780000000 1.0
C      1  0.5542730000000  0.5239200000000  0.5305520000000 1.0
C      1  0.5076390000000  0.5033820000000  0.5273680000000 1.0
C      1  0.5173630000000  0.5061550000000  0.5659340000000 1.0
C      1  0.5414550000000  0.4365710000000  0.4814370000000 1.0
C      1  0.4733350000000  0.4120090000000  0.4940600000000 1.0
C      1  0.5334090000000  0.5276550000000  0.5571700000000 1.0
C      1  0.4868130000000  0.4422490000000  0.5355290000000 1.0
C      1  0.5188810000000  0.5308800000000  0.4875390000000 1.0
C      1  0.4730560000000  0.4807760000000  0.5713430000000 1.0
C      1  0.5437180000000  0.4602090000000  0.5058970000000 1.0
C      1  0.5758800000000  0.5004950000000  0.5235380000000 1.0
C      1  0.5890260000000  0.5034300000000  0.4860680000000 1.0
C      1  0.5065700000000  0.4512420000000  0.4941790000000 1.0
C      1  0.4553370000000  0.5283400000000  0.4470340000000 1.0
C      1  0.4988310000000  0.5189330000000  0.4148930000000 1.0
C      1  0.4760950000000  0.5065350000000  0.4341220000000 1.0
C      1  0.4867970000000  0.5797930000000  0.5242820000000 1.0
C      1  0.4914070000000  0.4639480000000  0.5576110000000 1.0
C      1  0.4903060000000  0.3956860000000  0.4451900000000 1.0
C      1  0.4631160000000  0.5567650000000  0.4575460000000 1.0
C      1  0.4800400000000  0.5485260000000  0.5279000000000 1.0
C      1  0.5312320000000  0.4997350000000  0.4449790000000 1.0
C      1  0.4496900000000  0.5478000000000  0.5538200000000 1.0
C      1  0.5446860000000  0.4623420000000  0.4599170000000 1.0
C      1  0.4625830000000  0.5399680000000  0.4845090000000 1.0
C      1  0.5145610000000  0.4628510000000  0.4439220000000 1.0
C      1  0.5618390000000  0.4866790000000  0.4445360000000 1.0
C      1  0.4640020000000  0.4396440000000  0.4673810000000 1.0
C      1  0.5810580000000  0.4709620000000  0.5375340000000 1.0
C      1  0.5131750000000  0.4383850000000  0.4648250000000 1.0
C      1  0.5152800000000  0.4376490000000  0.5226500000000 1.0
C      1  0.4324480000000  0.4759060000000  0.5389710000000 1.0
END
