TITL C-2778426-5645-1331 -0.0489547272238344 125000 -276.31326498806 0 0 48 (C1) n - 1
REM
REM in /home/nfs/bkarasulu/CARBON/AIRSS/Generating-Clusters/REBO/Only-C1/SD-CG/HFTN-CG
REM
REM
REM
REM
REM
REM ./C.cell (11c1c37f851c82e70ff6c80c92926a4b)
REM
REM compiler GCC version 9.2.1 20190827 (Red Hat 9.2.1-1)
REM options -cpp -mtune=generic -march=x86-64 -g -O0 -fpre-include=/usr/include/finclude/math-vector-fortran.h
REM seed -1108454979 168399283 1984373508 -671524986 -1174774267 524727447 -1629360 1788259210 -1961503099 1708775697 1897522907 454532998 -375314013 -1176060530 -1585905532 1747987869 80389798 -371468130 -1186154739 -1768913542 -112393446 1589051389 1099317749 645826538 -461302812 -1881219314 -1171888283 1206418958 595549983 -1240791142 -347831103 -225727439 1319993281
REM
CELL 1.54180   50.00000   50.00000   50.00000   90.00000   90.00000   90.00000
LATT -1
SFAC C  
C      1  0.4461330000000  0.4968120000000  0.4743660000000 1.0
C      1  0.5217430000000  0.4712900000000  0.5511800000000 1.0
C      1  0.5144510000000  0.5221430000000  0.5504120000000 1.0
C      1  0.5717350000000  0.4969130000000  0.5085240000000 1.0
C      1  0.4936050000000  0.4984250000000  0.5258790000000 1.0
C      1  0.5123060000000  0.4906610000000  0.4791850000000 1.0
C      1  0.5455020000000  0.5024370000000  0.5157420000000 1.0
C      1  0.5241450000000  0.5115360000000  0.4978770000000 1.0
C      1  0.5278020000000  0.4907070000000  0.4424970000000 1.0
C      1  0.5366610000000  0.5758710000000  0.5081010000000 1.0
C      1  0.5035500000000  0.5269980000000  0.5155750000000 1.0
C      1  0.4493830000000  0.5080810000000  0.5579460000000 1.0
C      1  0.5115340000000  0.5527440000000  0.5445210000000 1.0
C      1  0.4781560000000  0.4877070000000  0.4399230000000 1.0
C      1  0.4434560000000  0.5088940000000  0.4994150000000 1.0
C      1  0.5345660000000  0.4981340000000  0.5423710000000 1.0
C      1  0.5030610000000  0.4311880000000  0.4905800000000 1.0
C      1  0.5030820000000  0.4769600000000  0.5075010000000 1.0
C      1  0.4955480000000  0.4460560000000  0.4629410000000 1.0
C      1  0.5219560000000  0.4421030000000  0.5125640000000 1.0
C      1  0.5216680000000  0.5170640000000  0.4327620000000 1.0
C      1  0.5028560000000  0.4742710000000  0.4531250000000 1.0
C      1  0.4401190000000  0.4930220000000  0.5289020000000 1.0
C      1  0.4678150000000  0.4463180000000  0.4800410000000 1.0
C      1  0.4434110000000  0.4685200000000  0.4750020000000 1.0
C      1  0.4836810000000  0.4525210000000  0.5089130000000 1.0
C      1  0.4618440000000  0.5356130000000  0.5477410000000 1.0
C      1  0.4429530000000  0.4512340000000  0.5026200000000 1.0
C      1  0.5964980000000  0.4916990000000  0.5017100000000 1.0
C      1  0.4832550000000  0.5496200000000  0.5282420000000 1.0
C      1  0.5353260000000  0.4666310000000  0.5012250000000 1.0
C      1  0.4647180000000  0.5075280000000  0.4552220000000 1.0
C      1  0.4790000000000  0.5321570000000  0.4590950000000 1.0
C      1  0.5209440000000  0.5561420000000  0.4620490000000 1.0
C      1  0.4495470000000  0.4631990000000  0.5291140000000 1.0
C      1  0.4664610000000  0.5137890000000  0.5225760000000 1.0
C      1  0.5296660000000  0.5697090000000  0.5336240000000 1.0
C      1  0.5062070000000  0.5352620000000  0.4497730000000 1.0
C      1  0.4681380000000  0.4799410000000  0.5538000000000 1.0
C      1  0.5338350000000  0.5267050000000  0.4103230000000 1.0
C      1  0.4705800000000  0.5618000000000  0.5027830000000 1.0
C      1  0.5321320000000  0.5700710000000  0.4821410000000 1.0
C      1  0.4780770000000  0.4501280000000  0.5406940000000 1.0
C      1  0.5104640000000  0.4484900000000  0.5383880000000 1.0
C      1  0.5517160000000  0.4840440000000  0.4558650000000 1.0
C      1  0.4982240000000  0.4931470000000  0.5578430000000 1.0
C      1  0.5526900000000  0.4745150000000  0.4814180000000 1.0
C      1  0.4697980000000  0.5511990000000  0.4779100000000 1.0
END
