TITL C-2778434-4341-398 -0.002736306534501 125000 -423.75760166907 0 0 73 (C1) n - 1
REM
REM in /home/nfs/bkarasulu/CARBON/AIRSS/Generating-Clusters/REBO/Only-C1/SD-CG/HFTN-CG
REM
REM
REM
REM
REM
REM ./C.cell (11c1c37f851c82e70ff6c80c92926a4b)
REM
REM compiler GCC version 9.2.1 20190827 (Red Hat 9.2.1-1)
REM options -cpp -mtune=generic -march=x86-64 -g -O0 -fpre-include=/usr/include/finclude/math-vector-fortran.h
REM seed 923578770 -2145650636 -618777592 -1716564797 -1244165861 -46642153 -838606736 -2129303968 -515328865 -868324944 1123285945 71274736 1241087525 -895550052 -1886975251 1900460974 -410241706 1349377773 -1452581432 1479903902 -1079284901 936363973 430722675 453039546 -1309119336 -545202921 1330288904 -1869241831 -134627017 -1585849906 -305865038 -1377555655 -1203763496
REM
CELL 1.54180   50.00000   50.00000   50.00000   90.00000   90.00000   90.00000
LATT -1
SFAC C  
C      1  0.4656590000000  0.5725990000000  0.5281510000000 1.0
C      1  0.4653730000000  0.5516680000000  0.5046280000000 1.0
C      1  0.5789180000000  0.5128940000000  0.5053140000000 1.0
C      1  0.4981400000000  0.4848170000000  0.5604550000000 1.0
C      1  0.5423580000000  0.4893040000000  0.5639660000000 1.0
C      1  0.4944710000000  0.5784830000000  0.5383920000000 1.0
C      1  0.5422040000000  0.5328620000000  0.5185360000000 1.0
C      1  0.5228410000000  0.5096910000000  0.4218050000000 1.0
C      1  0.4570100000000  0.4995010000000  0.5015150000000 1.0
C      1  0.4828990000000  0.5569950000000  0.5605690000000 1.0
C      1  0.4762430000000  0.4657350000000  0.5095450000000 1.0
C      1  0.5187860000000  0.5705400000000  0.4701570000000 1.0
C      1  0.4697640000000  0.5026530000000  0.4697330000000 1.0
C      1  0.4366060000000  0.5334680000000  0.5030440000000 1.0
C      1  0.4889130000000  0.4387280000000  0.5481370000000 1.0
C      1  0.5103570000000  0.4727170000000  0.5279560000000 1.0
C      1  0.5279950000000  0.5448840000000  0.4536210000000 1.0
C      1  0.4722270000000  0.5576610000000  0.4654460000000 1.0
C      1  0.5743320000000  0.4534410000000  0.5019450000000 1.0
C      1  0.4790950000000  0.4343090000000  0.5087870000000 1.0
C      1  0.4782940000000  0.5075320000000  0.4389020000000 1.0
C      1  0.5616360000000  0.4550230000000  0.4528920000000 1.0
C      1  0.4989450000000  0.5462440000000  0.5026310000000 1.0
C      1  0.5111720000000  0.4671260000000  0.4452840000000 1.0
C      1  0.5658880000000  0.5285160000000  0.4851740000000 1.0
C      1  0.4456770000000  0.4705900000000  0.5524090000000 1.0
C      1  0.4794020000000  0.4856400000000  0.5351260000000 1.0
C      1  0.5530540000000  0.5156900000000  0.5525890000000 1.0
C      1  0.4846260000000  0.5349830000000  0.4305840000000 1.0
C      1  0.5329480000000  0.5427210000000  0.5469260000000 1.0
C      1  0.5023560000000  0.5100940000000  0.5739190000000 1.0
C      1  0.4601230000000  0.4563040000000  0.4340510000000 1.0
C      1  0.4641190000000  0.5311850000000  0.5490610000000 1.0
C      1  0.4606510000000  0.4451710000000  0.5421850000000 1.0
C      1  0.5316340000000  0.5715500000000  0.4950610000000 1.0
C      1  0.5076850000000  0.4279290000000  0.5236380000000 1.0
C      1  0.4916680000000  0.4452390000000  0.4403340000000 1.0
C      1  0.4523770000000  0.5015270000000  0.5459610000000 1.0
C      1  0.5039730000000  0.5332730000000  0.5572100000000 1.0
C      1  0.4356980000000  0.4820740000000  0.4678300000000 1.0
C      1  0.5456970000000  0.5003280000000  0.4376630000000 1.0
C      1  0.5038860000000  0.4548660000000  0.5667470000000 1.0
C      1  0.4326060000000  0.5104110000000  0.4805550000000 1.0
C      1  0.5005470000000  0.4917700000000  0.4293080000000 1.0
C      1  0.5744580000000  0.4480140000000  0.4755540000000 1.0
C      1  0.4624210000000  0.4346680000000  0.4587580000000 1.0
C      1  0.5283440000000  0.5055140000000  0.5138740000000 1.0
C      1  0.4318920000000  0.5209730000000  0.5280060000000 1.0
C      1  0.4427320000000  0.4769590000000  0.4394620000000 1.0
C      1  0.5622830000000  0.4666300000000  0.5216800000000 1.0
C      1  0.5138730000000  0.5374040000000  0.4274540000000 1.0
C      1  0.5033700000000  0.4229660000000  0.4898280000000 1.0
C      1  0.5425530000000  0.4719760000000  0.4421150000000 1.0
C      1  0.4462380000000  0.4399680000000  0.5113970000000 1.0
C      1  0.5108180000000  0.4743530000000  0.4765990000000 1.0
C      1  0.5108230000000  0.5307240000000  0.4771500000000 1.0
C      1  0.4496580000000  0.5615100000000  0.5532600000000 1.0
C      1  0.4915120000000  0.5776880000000  0.4658440000000 1.0
C      1  0.5041610000000  0.5234460000000  0.5263930000000 1.0
C      1  0.4718200000000  0.5211740000000  0.5173790000000 1.0
C      1  0.5238230000000  0.5013340000000  0.4836390000000 1.0
C      1  0.4791110000000  0.4746030000000  0.4797370000000 1.0
C      1  0.5461200000000  0.5178760000000  0.4638580000000 1.0
C      1  0.5523080000000  0.5513440000000  0.4984720000000 1.0
C      1  0.4509650000000  0.4546250000000  0.4810010000000 1.0
C      1  0.4803580000000  0.5321020000000  0.4702330000000 1.0
C      1  0.4451920000000  0.4734400000000  0.5185970000000 1.0
C      1  0.5179830000000  0.5639970000000  0.5245880000000 1.0
C      1  0.4924690000000  0.4207190000000  0.4624310000000 1.0
C      1  0.5295410000000  0.4679970000000  0.5784260000000 1.0
C      1  0.5132440000000  0.4536320000000  0.5011200000000 1.0
C      1  0.5734070000000  0.5121310000000  0.5324040000000 1.0
C      1  0.5396660000000  0.4834990000000  0.5330010000000 1.0
END
