TITL C-2778427-5640-749 -0.00094502561797739 125000 -317.350631590579 0 0 55 (C1) n - 1
REM
REM in /home/nfs/bkarasulu/CARBON/AIRSS/Generating-Clusters/REBO/Only-C1/SD-CG/HFTN-CG
REM
REM
REM
REM
REM
REM ./C.cell (11c1c37f851c82e70ff6c80c92926a4b)
REM
REM compiler GCC version 9.2.1 20190827 (Red Hat 9.2.1-1)
REM options -cpp -mtune=generic -march=x86-64 -g -O0 -fpre-include=/usr/include/finclude/math-vector-fortran.h
REM seed 1043010275 1274049965 1752839437 2107765981 524802848 -960536835 -45102043 -1309159921 -836464246 856426486 1022446430 906151062 -468909062 -549697774 1783146708 1246279682 -482527596 74318676 503883263 -1152572648 -274637300 666599687 576587713 -1276845277 957504355 -1356348796 1837293507 1538124257 -65540653 1702922229 -278203668 -2095298989 -1984922334
REM
CELL 1.54180   50.00000   50.00000   50.00000   90.00000   90.00000   90.00000
LATT -1
SFAC C  
C      1  0.5071830000000  0.5650740000000  0.4814540000000 1.0
C      1  0.5365010000000  0.5488710000000  0.4753860000000 1.0
C      1  0.4748830000000  0.5318050000000  0.5057400000000 1.0
C      1  0.4370960000000  0.5242550000000  0.5219140000000 1.0
C      1  0.4872440000000  0.4710100000000  0.5618860000000 1.0
C      1  0.5438060000000  0.4649780000000  0.5020990000000 1.0
C      1  0.4382170000000  0.4778650000000  0.5077410000000 1.0
C      1  0.4997340000000  0.5342550000000  0.4879550000000 1.0
C      1  0.4389460000000  0.4749900000000  0.5410650000000 1.0
C      1  0.5193530000000  0.5128030000000  0.4980200000000 1.0
C      1  0.4696080000000  0.4753800000000  0.5155190000000 1.0
C      1  0.5097110000000  0.4892270000000  0.4359670000000 1.0
C      1  0.4917230000000  0.4462240000000  0.5472980000000 1.0
C      1  0.4809120000000  0.5791700000000  0.4742760000000 1.0
C      1  0.5090930000000  0.4966650000000  0.5607230000000 1.0
C      1  0.4744130000000  0.4454160000000  0.5250810000000 1.0
C      1  0.5402950000000  0.4408630000000  0.4821280000000 1.0
C      1  0.5354820000000  0.4808320000000  0.5465350000000 1.0
C      1  0.4446350000000  0.4576340000000  0.4619070000000 1.0
C      1  0.5294170000000  0.5802290000000  0.4984170000000 1.0
C      1  0.5507420000000  0.5578900000000  0.5049480000000 1.0
C      1  0.5010850000000  0.4885760000000  0.5135800000000 1.0
C      1  0.4772240000000  0.5074410000000  0.5234000000000 1.0
C      1  0.4663890000000  0.4382530000000  0.4977040000000 1.0
C      1  0.5431040000000  0.5506300000000  0.5643910000000 1.0
C      1  0.4509230000000  0.5275810000000  0.5455420000000 1.0
C      1  0.5335870000000  0.5192770000000  0.5552910000000 1.0
C      1  0.5592830000000  0.4952860000000  0.5023120000000 1.0
C      1  0.4900300000000  0.4374770000000  0.4735650000000 1.0
C      1  0.4565640000000  0.5669670000000  0.4781630000000 1.0
C      1  0.4588720000000  0.4814220000000  0.5584760000000 1.0
C      1  0.4528550000000  0.5408730000000  0.4891550000000 1.0
C      1  0.5402730000000  0.5244990000000  0.4616150000000 1.0
C      1  0.4801000000000  0.4866020000000  0.4379640000000 1.0
C      1  0.5461410000000  0.5249510000000  0.5056960000000 1.0
C      1  0.4927120000000  0.5259190000000  0.4589140000000 1.0
C      1  0.4778030000000  0.5091900000000  0.5555060000000 1.0
C      1  0.5298200000000  0.6054670000000  0.5054040000000 1.0
C      1  0.4434080000000  0.4531760000000  0.4890420000000 1.0
C      1  0.5275600000000  0.4680930000000  0.4461580000000 1.0
C      1  0.5474360000000  0.5417220000000  0.5337240000000 1.0
C      1  0.5209710000000  0.4447520000000  0.4625820000000 1.0
C      1  0.4977870000000  0.4759160000000  0.4716920000000 1.0
C      1  0.4346860000000  0.5067140000000  0.4991150000000 1.0
C      1  0.5167220000000  0.5158080000000  0.4464940000000 1.0
C      1  0.5551010000000  0.5011390000000  0.5356760000000 1.0
C      1  0.5537920000000  0.4793160000000  0.4528940000000 1.0
C      1  0.4464840000000  0.5159870000000  0.4717160000000 1.0
C      1  0.5580000000000  0.5027180000000  0.4694640000000 1.0
C      1  0.5349800000000  0.4579730000000  0.5306650000000 1.0
C      1  0.4687100000000  0.5100340000000  0.4530050000000 1.0
C      1  0.5182280000000  0.4380430000000  0.5410410000000 1.0
C      1  0.5247890000000  0.4852090000000  0.4823910000000 1.0
C      1  0.5013550000000  0.4579450000000  0.4987670000000 1.0
C      1  0.4742350000000  0.4596080000000  0.4528380000000 1.0
END
