TITL C-2778433-5640-906 -0.00163486963789145 125000 -1050.15280329098 0 0 178 (C1) n - 1
REM
REM in /home/nfs/bkarasulu/CARBON/AIRSS/Generating-Clusters/REBO/Only-C1/SD-CG/HFTN-CG
REM
REM
REM
REM
REM
REM ./C.cell (11c1c37f851c82e70ff6c80c92926a4b)
REM
REM compiler GCC version 9.2.1 20190827 (Red Hat 9.2.1-1)
REM options -cpp -mtune=generic -march=x86-64 -g -O0 -fpre-include=/usr/include/finclude/math-vector-fortran.h
REM seed -1329898018 -1665089553 611069720 1167772912 1900632955 -257362416 -1145205249 1867427205 413638049 365641131 1524038339 -976649782 3344328 -1327215370 -685506717 -183378310 -621608685 -1556504522 1078236748 -2079942093 1471967572 -1059263213 -2102299749 2066265852 1962530489 -1077167397 2051731050 1904309936 5635967 -1044376873 -188913542 910295020 624998923
REM
CELL 1.54180   50.00000   50.00000   50.00000   90.00000   90.00000   90.00000
LATT -1
SFAC C  
C      1  0.4537590000000  0.5621960000000  0.5027980000000 1.0
C      1  0.4362540000000  0.4960000000000  0.5389820000000 1.0
C      1  0.5417470000000  0.3860510000000  0.5086520000000 1.0
C      1  0.5237660000000  0.4827310000000  0.5470370000000 1.0
C      1  0.5786130000000  0.4379320000000  0.4832570000000 1.0
C      1  0.4593770000000  0.3953950000000  0.5114930000000 1.0
C      1  0.4842370000000  0.4841000000000  0.6134950000000 1.0
C      1  0.4870910000000  0.5248400000000  0.4270920000000 1.0
C      1  0.5931950000000  0.5397020000000  0.5519510000000 1.0
C      1  0.5858850000000  0.5009960000000  0.5869080000000 1.0
C      1  0.5240170000000  0.6010330000000  0.5219860000000 1.0
C      1  0.5543450000000  0.5674950000000  0.5336110000000 1.0
C      1  0.4361300000000  0.4401960000000  0.5726390000000 1.0
C      1  0.5964580000000  0.4645790000000  0.4291310000000 1.0
C      1  0.4977720000000  0.5874630000000  0.5050480000000 1.0
C      1  0.5566100000000  0.6043050000000  0.4971780000000 1.0
C      1  0.4778830000000  0.5894320000000  0.5487330000000 1.0
C      1  0.4283470000000  0.4818040000000  0.4497170000000 1.0
C      1  0.5131590000000  0.5739270000000  0.4362990000000 1.0
C      1  0.4386620000000  0.5316030000000  0.4518330000000 1.0
C      1  0.5656500000000  0.5302270000000  0.5686760000000 1.0
C      1  0.4233530000000  0.4692140000000  0.5513040000000 1.0
C      1  0.5454330000000  0.4090360000000  0.5242990000000 1.0
C      1  0.5013380000000  0.5534840000000  0.5028540000000 1.0
C      1  0.4978860000000  0.6039650000000  0.4760980000000 1.0
C      1  0.5449450000000  0.4322840000000  0.4287160000000 1.0
C      1  0.4380790000000  0.5788640000000  0.4426940000000 1.0
C      1  0.5172390000000  0.4124880000000  0.5384130000000 1.0
C      1  0.5590280000000  0.4945080000000  0.5849980000000 1.0
C      1  0.4406910000000  0.5983110000000  0.5138290000000 1.0
C      1  0.5621070000000  0.4370550000000  0.5294670000000 1.0
C      1  0.5454900000000  0.4658520000000  0.4505160000000 1.0
C      1  0.4031200000000  0.5480530000000  0.4599240000000 1.0
C      1  0.3861000000000  0.4522780000000  0.5058090000000 1.0
C      1  0.4985760000000  0.4539390000000  0.5209730000000 1.0
C      1  0.4423130000000  0.5534140000000  0.4302770000000 1.0
C      1  0.4892510000000  0.5541340000000  0.4111580000000 1.0
C      1  0.5966340000000  0.4533150000000  0.4611250000000 1.0
C      1  0.5611130000000  0.4473900000000  0.5581350000000 1.0
C      1  0.5061830000000  0.4577550000000  0.5597040000000 1.0
C      1  0.4439800000000  0.4404960000000  0.4924840000000 1.0
C      1  0.5680850000000  0.4785070000000  0.4185030000000 1.0
C      1  0.5869240000000  0.5224910000000  0.4563720000000 1.0
C      1  0.4798090000000  0.4803880000000  0.4550900000000 1.0
C      1  0.5532040000000  0.4762780000000  0.5593860000000 1.0
C      1  0.6031140000000  0.4684140000000  0.5219470000000 1.0
C      1  0.4647850000000  0.4039730000000  0.4651110000000 1.0
C      1  0.4525900000000  0.5163360000000  0.4055710000000 1.0
C      1  0.5471510000000  0.5370220000000  0.4326210000000 1.0
C      1  0.4761710000000  0.4971470000000  0.5367160000000 1.0
C      1  0.5631760000000  0.4091600000000  0.4842850000000 1.0
C      1  0.5196340000000  0.3785470000000  0.4932400000000 1.0
C      1  0.4393500000000  0.4435500000000  0.4529370000000 1.0
C      1  0.5179410000000  0.4978890000000  0.5170200000000 1.0
C      1  0.4837270000000  0.5829020000000  0.4256610000000 1.0
C      1  0.4402210000000  0.4704360000000  0.5087270000000 1.0
C      1  0.4789270000000  0.4987340000000  0.4078180000000 1.0
C      1  0.4015620000000  0.4814250000000  0.5281650000000 1.0
C      1  0.5132140000000  0.4875450000000  0.5990130000000 1.0
C      1  0.5266610000000  0.5185810000000  0.4040270000000 1.0
C      1  0.4732730000000  0.4584590000000  0.4906830000000 1.0
C      1  0.5516400000000  0.5875650000000  0.4707450000000 1.0
C      1  0.3932570000000  0.5100480000000  0.5117630000000 1.0
C      1  0.5030870000000  0.5171070000000  0.5385500000000 1.0
C      1  0.5178130000000  0.3938190000000  0.4625980000000 1.0
C      1  0.5488950000000  0.5461120000000  0.5009510000000 1.0
C      1  0.5700640000000  0.4988770000000  0.4461750000000 1.0
C      1  0.4774550000000  0.4498620000000  0.5465750000000 1.0
C      1  0.5070040000000  0.4954390000000  0.3921400000000 1.0
C      1  0.4815930000000  0.4339800000000  0.5936070000000 1.0
C      1  0.4193820000000  0.5028660000000  0.4825260000000 1.0
C      1  0.5227750000000  0.5946600000000  0.4573990000000 1.0
C      1  0.5867730000000  0.4466750000000  0.5121480000000 1.0
C      1  0.4341470000000  0.4718970000000  0.5824760000000 1.0
C      1  0.5324330000000  0.5629720000000  0.4795710000000 1.0
C      1  0.5114700000000  0.4194300000000  0.5060360000000 1.0
C      1  0.4499350000000  0.4112760000000  0.4879910000000 1.0
C      1  0.5983030000000  0.5272830000000  0.4818350000000 1.0
C      1  0.5191940000000  0.4664680000000  0.3997380000000 1.0
C      1  0.4013430000000  0.5295000000000  0.4863510000000 1.0
C      1  0.5688240000000  0.5618110000000  0.5615940000000 1.0
C      1  0.4732270000000  0.5059570000000  0.4730570000000 1.0
C      1  0.5709410000000  0.4460540000000  0.4414290000000 1.0
C      1  0.5008580000000  0.4504260000000  0.5907420000000 1.0
C      1  0.4191080000000  0.5509910000000  0.5307400000000 1.0
C      1  0.4627400000000  0.4225260000000  0.4408650000000 1.0
C      1  0.4919230000000  0.5444880000000  0.5311270000000 1.0
C      1  0.4377800000000  0.5440130000000  0.4794230000000 1.0
C      1  0.4174270000000  0.4542350000000  0.4765160000000 1.0
C      1  0.5726170000000  0.5457900000000  0.4485350000000 1.0
C      1  0.4889160000000  0.3819350000000  0.5061510000000 1.0
C      1  0.5112590000000  0.4456410000000  0.4477470000000 1.0
C      1  0.6153930000000  0.5132510000000  0.5021360000000 1.0
C      1  0.5061390000000  0.4686060000000  0.4706160000000 1.0
C      1  0.4636340000000  0.4864930000000  0.5911240000000 1.0
C      1  0.4595400000000  0.4715390000000  0.5344700000000 1.0
C      1  0.5120300000000  0.5030250000000  0.4305990000000 1.0
C      1  0.5935260000000  0.4748300000000  0.4837280000000 1.0
C      1  0.4337080000000  0.5639790000000  0.5496400000000 1.0
C      1  0.4549560000000  0.5921880000000  0.4862260000000 1.0
C      1  0.5451760000000  0.4311610000000  0.5734550000000 1.0
C      1  0.5003150000000  0.5501300000000  0.5925990000000 1.0
C      1  0.5474700000000  0.4564500000000  0.4107800000000 1.0
C      1  0.4651010000000  0.4287870000000  0.5671570000000 1.0
C      1  0.4137930000000  0.4515140000000  0.5170300000000 1.0
C      1  0.5124140000000  0.5433860000000  0.4513540000000 1.0
C      1  0.4756090000000  0.4738830000000  0.4246230000000 1.0
C      1  0.4723290000000  0.5493430000000  0.5847610000000 1.0
C      1  0.5228720000000  0.4507770000000  0.4958910000000 1.0
C      1  0.5416770000000  0.5813770000000  0.5686050000000 1.0
C      1  0.4710500000000  0.5949200000000  0.5225180000000 1.0
C      1  0.4791590000000  0.4299650000000  0.5082820000000 1.0
C      1  0.4331470000000  0.4385840000000  0.5393170000000 1.0
C      1  0.4030160000000  0.5327490000000  0.4346000000000 1.0
C      1  0.4966550000000  0.4801400000000  0.5026210000000 1.0
C      1  0.5390040000000  0.5322310000000  0.4653960000000 1.0
C      1  0.4977120000000  0.5212830000000  0.4916780000000 1.0
C      1  0.4046310000000  0.4785730000000  0.4820830000000 1.0
C      1  0.5379810000000  0.5196620000000  0.5851410000000 1.0
C      1  0.5934050000000  0.5310300000000  0.5211450000000 1.0
C      1  0.5937960000000  0.4901790000000  0.5406760000000 1.0
C      1  0.5324770000000  0.4145060000000  0.4821600000000 1.0
C      1  0.5464890000000  0.4430770000000  0.4726910000000 1.0
C      1  0.4173750000000  0.5859020000000  0.4935480000000 1.0
C      1  0.4540680000000  0.4221270000000  0.5265310000000 1.0
C      1  0.4578380000000  0.5229100000000  0.5757860000000 1.0
C      1  0.4911640000000  0.3950090000000  0.5357200000000 1.0
C      1  0.4911760000000  0.4257960000000  0.4292340000000 1.0
C      1  0.5984960000000  0.5083550000000  0.5623680000000 1.0
C      1  0.4610540000000  0.5433440000000  0.5251010000000 1.0
C      1  0.4716920000000  0.4004520000000  0.5549310000000 1.0
C      1  0.5189390000000  0.4996320000000  0.4758110000000 1.0
C      1  0.5562400000000  0.5059570000000  0.5467550000000 1.0
C      1  0.4279220000000  0.4711070000000  0.4263880000000 1.0
C      1  0.4582740000000  0.5447840000000  0.4081450000000 1.0
C      1  0.4530040000000  0.5656860000000  0.5690890000000 1.0
C      1  0.5259120000000  0.6112090000000  0.4896800000000 1.0
C      1  0.5506510000000  0.4906970000000  0.4701510000000 1.0
C      1  0.4801670000000  0.5011380000000  0.5671000000000 1.0
C      1  0.4141300000000  0.5195620000000  0.5341750000000 1.0
C      1  0.5727290000000  0.5042870000000  0.5194990000000 1.0
C      1  0.5228330000000  0.5501020000000  0.4136900000000 1.0
C      1  0.5496940000000  0.4610060000000  0.5113050000000 1.0
C      1  0.5371240000000  0.5172860000000  0.4966400000000 1.0
C      1  0.4455660000000  0.5259170000000  0.5468100000000 1.0
C      1  0.5296800000000  0.5247350000000  0.5526330000000 1.0
C      1  0.4478800000000  0.4999630000000  0.4940280000000 1.0
C      1  0.5206100000000  0.4141340000000  0.4394460000000 1.0
C      1  0.4171550000000  0.5744660000000  0.4637150000000 1.0
C      1  0.4990900000000  0.5677450000000  0.5511360000000 1.0
C      1  0.5290170000000  0.5543400000000  0.5420260000000 1.0
C      1  0.5546090000000  0.5084310000000  0.4176920000000 1.0
C      1  0.4991030000000  0.5643690000000  0.4724640000000 1.0
C      1  0.4354540000000  0.5043290000000  0.5929020000000 1.0
C      1  0.5350510000000  0.5999530000000  0.5465620000000 1.0
C      1  0.5154570000000  0.5283350000000  0.6032980000000 1.0
C      1  0.4527660000000  0.4704670000000  0.4679390000000 1.0
C      1  0.4877100000000  0.3888330000000  0.4728610000000 1.0
C      1  0.4144740000000  0.5555590000000  0.5010190000000 1.0
C      1  0.4938780000000  0.4516230000000  0.4122710000000 1.0
C      1  0.4808210000000  0.5322610000000  0.4572570000000 1.0
C      1  0.5720540000000  0.5645270000000  0.4696010000000 1.0
C      1  0.4706480000000  0.6026490000000  0.4666310000000 1.0
C      1  0.4679540000000  0.5569550000000  0.4726520000000 1.0
C      1  0.5200200000000  0.4292580000000  0.5628370000000 1.0
C      1  0.5090600000000  0.4954690000000  0.5721220000000 1.0
C      1  0.4630370000000  0.5937490000000  0.4413550000000 1.0
C      1  0.5044920000000  0.5080850000000  0.6230310000000 1.0
C      1  0.5657770000000  0.4837940000000  0.4967560000000 1.0
C      1  0.6166240000000  0.4850290000000  0.4996570000000 1.0
C      1  0.4709220000000  0.5152890000000  0.5116970000000 1.0
C      1  0.4291620000000  0.5160790000000  0.4249190000000 1.0
C      1  0.5196180000000  0.4737080000000  0.4333140000000 1.0
C      1  0.3775890000000  0.4820780000000  0.5004090000000 1.0
C      1  0.5171920000000  0.5687470000000  0.5772930000000 1.0
C      1  0.5623020000000  0.5898120000000  0.5191010000000 1.0
C      1  0.5802480000000  0.5503320000000  0.4982490000000 1.0
C      1  0.4527720000000  0.4496880000000  0.4222830000000 1.0
END
