TITL C-2778429-3646-1165 0.182768578764249 125000 -205.277830532385 0 0 37 (C1) n - 1
REM
REM in /home/nfs/bkarasulu/CARBON/AIRSS/Generating-Clusters/REBO/Only-C1/SD-CG/HFTN-CG
REM
REM
REM
REM
REM
REM ./C.cell (11c1c37f851c82e70ff6c80c92926a4b)
REM
REM compiler GCC version 9.2.1 20190827 (Red Hat 9.2.1-1)
REM options -cpp -mtune=generic -march=x86-64 -g -O0 -fpre-include=/usr/include/finclude/math-vector-fortran.h
REM seed -1500145444 959022180 1001797480 432638587 1350854394 324849622 1991356600 1093121079 876620158 -2103554642 362995035 1411384744 -1259979810 1934851105 774092290 -1012863213 932272525 818954922 -1400661791 -689615772 2050797004 -1052867492 -557622539 1463634253 634382157 1307459884 -495168184 -1475446774 -1251276502 -1361522508 -966349072 -1861590013 -2014353025
REM
CELL 1.54180   50.00000   50.00000   50.00000   90.00000   90.00000   90.00000
LATT -1
SFAC C  
C      1  0.5145850000000  0.4616350000000  0.5488870000000 1.0
C      1  0.4350680000000  0.4790800000000  0.5802250000000 1.0
C      1  0.5173770000000  0.5518930000000  0.4290530000000 1.0
C      1  0.4489940000000  0.5291640000000  0.4824550000000 1.0
C      1  0.4743520000000  0.4773580000000  0.5092800000000 1.0
C      1  0.5085360000000  0.4971830000000  0.4049670000000 1.0
C      1  0.4805900000000  0.5081520000000  0.5113330000000 1.0
C      1  0.4147360000000  0.5169610000000  0.4501360000000 1.0
C      1  0.5104290000000  0.4944500000000  0.5103000000000 1.0
C      1  0.4651310000000  0.4685850000000  0.4848750000000 1.0
C      1  0.5409460000000  0.4951540000000  0.5239700000000 1.0
C      1  0.5455930000000  0.4859720000000  0.4937980000000 1.0
C      1  0.5015140000000  0.4161340000000  0.5744070000000 1.0
C      1  0.5202280000000  0.5264110000000  0.4708840000000 1.0
C      1  0.5167650000000  0.5286710000000  0.4429880000000 1.0
C      1  0.5078830000000  0.4383060000000  0.5619720000000 1.0
C      1  0.5021550000000  0.5448530000000  0.5678620000000 1.0
C      1  0.4714080000000  0.5316900000000  0.4994570000000 1.0
C      1  0.5660510000000  0.4725730000000  0.4836830000000 1.0
C      1  0.5117580000000  0.5031810000000  0.4316600000000 1.0
C      1  0.5396160000000  0.4726450000000  0.5452720000000 1.0
C      1  0.4914310000000  0.5215900000000  0.5623260000000 1.0
C      1  0.5094010000000  0.4810260000000  0.4537100000000 1.0
C      1  0.5196880000000  0.4968320000000  0.4787490000000 1.0
C      1  0.5365340000000  0.5441840000000  0.5133190000000 1.0
C      1  0.4935180000000  0.4793870000000  0.5358670000000 1.0
C      1  0.4569340000000  0.4877690000000  0.5686830000000 1.0
C      1  0.4505770000000  0.4860380000000  0.4614590000000 1.0
C      1  0.5253170000000  0.4583420000000  0.4479860000000 1.0
C      1  0.4901310000000  0.5536640000000  0.4977450000000 1.0
C      1  0.5482610000000  0.5247760000000  0.5285580000000 1.0
C      1  0.5863110000000  0.4593050000000  0.4736670000000 1.0
C      1  0.4828980000000  0.5797360000000  0.5000200000000 1.0
C      1  0.4372570000000  0.5109780000000  0.4641480000000 1.0
C      1  0.4804830000000  0.4741380000000  0.4575270000000 1.0
C      1  0.4800790000000  0.4969660000000  0.5564660000000 1.0
C      1  0.5174600000000  0.5452160000000  0.4923020000000 1.0
END
