TITL C-2778436-5916-1297 -0.000398446872543083 125000 -290.312253419749 0 0 52 (C1) n - 1
REM
REM in /home/nfs/bkarasulu/CARBON/AIRSS/Generating-Clusters/REBO/Only-C1/SD-CG/HFTN-CG
REM
REM
REM
REM
REM
REM ./C.cell (11c1c37f851c82e70ff6c80c92926a4b)
REM
REM compiler GCC version 9.2.1 20190827 (Red Hat 9.2.1-1)
REM options -cpp -mtune=generic -march=x86-64 -g -O0 -fpre-include=/usr/include/finclude/math-vector-fortran.h
REM seed -525039641 -779204452 756084769 -683962934 1002995665 -675880083 1330832518 1872368982 -373255110 1279142826 1039988237 -1418732233 156043109 1345974856 -58054244 1544726938 -301554603 351229560 1001472780 -2022848424 -1326281418 1622663739 -1072970913 -2013452968 -1294282068 -1095598102 1576558578 -855202010 1876619323 -1031077055 -979643469 1140612865 -2010226795
REM
CELL 1.54180   50.00000   50.00000   50.00000   90.00000   90.00000   90.00000
LATT -1
SFAC C  
C      1  0.4505670000000  0.5212320000000  0.5168090000000 1.0
C      1  0.5582610000000  0.5546740000000  0.4861390000000 1.0
C      1  0.5439480000000  0.5271590000000  0.4492060000000 1.0
C      1  0.4925620000000  0.5283570000000  0.4399280000000 1.0
C      1  0.5259430000000  0.5590560000000  0.5285120000000 1.0
C      1  0.4960420000000  0.5069640000000  0.4888350000000 1.0
C      1  0.4675410000000  0.5052340000000  0.4399030000000 1.0
C      1  0.4788430000000  0.5227880000000  0.5333910000000 1.0
C      1  0.5047540000000  0.4486380000000  0.5117260000000 1.0
C      1  0.4705850000000  0.4660280000000  0.4682130000000 1.0
C      1  0.4845700000000  0.5705040000000  0.4781050000000 1.0
C      1  0.5421190000000  0.4868710000000  0.5162210000000 1.0
C      1  0.4495330000000  0.5485450000000  0.5032730000000 1.0
C      1  0.4871680000000  0.4732360000000  0.5666820000000 1.0
C      1  0.5156080000000  0.4262420000000  0.5295820000000 1.0
C      1  0.4798880000000  0.4978890000000  0.5788810000000 1.0
C      1  0.4946970000000  0.5490020000000  0.5240660000000 1.0
C      1  0.5492690000000  0.4816980000000  0.4833010000000 1.0
C      1  0.5405140000000  0.4935860000000  0.4537120000000 1.0
C      1  0.4951940000000  0.4976200000000  0.5217520000000 1.0
C      1  0.5287550000000  0.5578640000000  0.4952250000000 1.0
C      1  0.5042360000000  0.4658570000000  0.4265220000000 1.0
C      1  0.4734850000000  0.4467810000000  0.5226860000000 1.0
C      1  0.5168740000000  0.5464650000000  0.4491650000000 1.0
C      1  0.4681680000000  0.4621170000000  0.5489180000000 1.0
C      1  0.5114760000000  0.5641970000000  0.4711540000000 1.0
C      1  0.5355770000000  0.4571410000000  0.4692020000000 1.0
C      1  0.5366270000000  0.4668630000000  0.5741960000000 1.0
C      1  0.4929170000000  0.4728170000000  0.4905480000000 1.0
C      1  0.4753520000000  0.5665030000000  0.5084800000000 1.0
C      1  0.4677170000000  0.4863460000000  0.5079110000000 1.0
C      1  0.5280260000000  0.4641830000000  0.4415870000000 1.0
C      1  0.4774570000000  0.5211570000000  0.4683080000000 1.0
C      1  0.5149150000000  0.5283720000000  0.5055670000000 1.0
C      1  0.4754160000000  0.5204010000000  0.5640860000000 1.0
C      1  0.5423270000000  0.5387400000000  0.5387810000000 1.0
C      1  0.4543920000000  0.4888320000000  0.4636780000000 1.0
C      1  0.4637020000000  0.5473040000000  0.4760230000000 1.0
C      1  0.5387100000000  0.5157250000000  0.5227080000000 1.0
C      1  0.5226020000000  0.4397030000000  0.4852250000000 1.0
C      1  0.5576390000000  0.4634140000000  0.5894730000000 1.0
C      1  0.4338860000000  0.4953670000000  0.5271940000000 1.0
C      1  0.5145210000000  0.4704920000000  0.5581230000000 1.0
C      1  0.4462080000000  0.4471490000000  0.5084880000000 1.0
C      1  0.5163600000000  0.4755530000000  0.5281160000000 1.0
C      1  0.5650390000000  0.5407220000000  0.4662860000000 1.0
C      1  0.5192560000000  0.5103320000000  0.4329590000000 1.0
C      1  0.4415860000000  0.4685020000000  0.5322520000000 1.0
C      1  0.4483130000000  0.5001060000000  0.4898090000000 1.0
C      1  0.5729800000000  0.4759480000000  0.5069940000000 1.0
C      1  0.4938670000000  0.4914640000000  0.4255220000000 1.0
C      1  0.4340090000000  0.4382620000000  0.4865780000000 1.0
END
