TITL C-2778428-5639-908 0.0008891260520071 125000 -606.87537630772 0 0 103 (C1) n - 1
REM
REM in /home/nfs/bkarasulu/CARBON/AIRSS/Generating-Clusters/REBO/Only-C1/SD-CG/HFTN-CG
REM
REM
REM
REM
REM
REM ./C.cell (11c1c37f851c82e70ff6c80c92926a4b)
REM
REM compiler GCC version 9.2.1 20190827 (Red Hat 9.2.1-1)
REM options -cpp -mtune=generic -march=x86-64 -g -O0 -fpre-include=/usr/include/finclude/math-vector-fortran.h
REM seed 1812198004 -852363064 1704779032 1329796556 688320936 -138316107 1013763912 -761282150 -1544060577 2059869493 594635252 -1719197311 101647235 -1674108524 1589835588 1628196872 -2009448131 -2072962713 -911086249 1615747385 -752165334 -290155925 -1808572849 -641348420 -750963507 -641688417 785951491 1900319349 468176124 1231940662 -900138488 1839883494 -1512115003
REM
CELL 1.54180   50.00000   50.00000   50.00000   90.00000   90.00000   90.00000
LATT -1
SFAC C  
C      1  0.5176830000000  0.4802850000000  0.4259290000000 1.0
C      1  0.5744660000000  0.4709170000000  0.5201860000000 1.0
C      1  0.4722440000000  0.5248570000000  0.5904560000000 1.0
C      1  0.4396990000000  0.4602130000000  0.4228750000000 1.0
C      1  0.5361830000000  0.5367750000000  0.4225500000000 1.0
C      1  0.5774440000000  0.4817580000000  0.4782250000000 1.0
C      1  0.5625170000000  0.4518900000000  0.5013730000000 1.0
C      1  0.5177000000000  0.4524050000000  0.4357620000000 1.0
C      1  0.5604920000000  0.4629980000000  0.5454210000000 1.0
C      1  0.4994740000000  0.4832380000000  0.4757350000000 1.0
C      1  0.4744400000000  0.5816740000000  0.4283980000000 1.0
C      1  0.4314600000000  0.5137060000000  0.5693570000000 1.0
C      1  0.4155400000000  0.4835080000000  0.5028100000000 1.0
C      1  0.4307450000000  0.5055440000000  0.4456300000000 1.0
C      1  0.4513160000000  0.4881060000000  0.4865320000000 1.0
C      1  0.4943880000000  0.5294650000000  0.5305430000000 1.0
C      1  0.5005790000000  0.5167160000000  0.5904310000000 1.0
C      1  0.5092940000000  0.5531190000000  0.4883290000000 1.0
C      1  0.4596080000000  0.4669600000000  0.5679670000000 1.0
C      1  0.5705510000000  0.5574820000000  0.4415800000000 1.0
C      1  0.5135220000000  0.5643440000000  0.5665540000000 1.0
C      1  0.4866800000000  0.5488550000000  0.5087900000000 1.0
C      1  0.5428870000000  0.5109160000000  0.5196930000000 1.0
C      1  0.4997260000000  0.5848370000000  0.5462530000000 1.0
C      1  0.5096510000000  0.4450140000000  0.5514500000000 1.0
C      1  0.5559500000000  0.5688660000000  0.4967480000000 1.0
C      1  0.4916750000000  0.4932810000000  0.4261160000000 1.0
C      1  0.5810150000000  0.4995360000000  0.5187450000000 1.0
C      1  0.4229090000000  0.4944480000000  0.5491140000000 1.0
C      1  0.5419160000000  0.5180710000000  0.4805470000000 1.0
C      1  0.4905310000000  0.4665270000000  0.5669790000000 1.0
C      1  0.4680390000000  0.5117030000000  0.5276970000000 1.0
C      1  0.4680960000000  0.5422080000000  0.5678850000000 1.0
C      1  0.5086780000000  0.5248700000000  0.4772390000000 1.0
C      1  0.4537060000000  0.5472050000000  0.4995720000000 1.0
C      1  0.4485090000000  0.5072670000000  0.5920040000000 1.0
C      1  0.5375060000000  0.4431350000000  0.4550000000000 1.0
C      1  0.4652610000000  0.4103330000000  0.4996820000000 1.0
C      1  0.4477860000000  0.4376530000000  0.4624900000000 1.0
C      1  0.5443280000000  0.4267570000000  0.5123960000000 1.0
C      1  0.4606180000000  0.4624570000000  0.4907880000000 1.0
C      1  0.5228490000000  0.5346080000000  0.5768320000000 1.0
C      1  0.5107660000000  0.5498270000000  0.4388370000000 1.0
C      1  0.4936680000000  0.4148780000000  0.5473700000000 1.0
C      1  0.5417940000000  0.4936590000000  0.4254060000000 1.0
C      1  0.5339390000000  0.4588150000000  0.5337570000000 1.0
C      1  0.4779440000000  0.5772020000000  0.5254340000000 1.0
C      1  0.4663080000000  0.5402650000000  0.4552330000000 1.0
C      1  0.5087960000000  0.5974460000000  0.4901840000000 1.0
C      1  0.5118230000000  0.4874890000000  0.5505460000000 1.0
C      1  0.5149270000000  0.5916870000000  0.5212500000000 1.0
C      1  0.5779810000000  0.4701590000000  0.4522540000000 1.0
C      1  0.4942690000000  0.4376030000000  0.4291430000000 1.0
C      1  0.4524300000000  0.4790390000000  0.5933390000000 1.0
C      1  0.5643230000000  0.5420490000000  0.4875570000000 1.0
C      1  0.5285400000000  0.5678850000000  0.5084990000000 1.0
C      1  0.5050020000000  0.4880580000000  0.5895070000000 1.0
C      1  0.4285450000000  0.4567960000000  0.5180250000000 1.0
C      1  0.4183040000000  0.5055040000000  0.5220000000000 1.0
C      1  0.5216410000000  0.4210050000000  0.5297070000000 1.0
C      1  0.4923080000000  0.4135890000000  0.5130490000000 1.0
C      1  0.5832210000000  0.5136950000000  0.4880640000000 1.0
C      1  0.4672380000000  0.4994630000000  0.4111720000000 1.0
C      1  0.4338430000000  0.5306440000000  0.5193920000000 1.0
C      1  0.4248970000000  0.4915200000000  0.4715450000000 1.0
C      1  0.5724260000000  0.4879860000000  0.4310660000000 1.0
C      1  0.4479020000000  0.5300330000000  0.5483180000000 1.0
C      1  0.5305620000000  0.4740510000000  0.5105660000000 1.0
C      1  0.4648240000000  0.5791390000000  0.4957930000000 1.0
C      1  0.4849230000000  0.4543820000000  0.5214870000000 1.0
C      1  0.4862650000000  0.4572950000000  0.4817750000000 1.0
C      1  0.5288890000000  0.5716290000000  0.4675950000000 1.0
C      1  0.4918380000000  0.5466840000000  0.5547070000000 1.0
C      1  0.4625010000000  0.5145510000000  0.4968550000000 1.0
C      1  0.4850430000000  0.5653710000000  0.4494140000000 1.0
C      1  0.5277900000000  0.5232150000000  0.4515540000000 1.0
C      1  0.4860250000000  0.4856220000000  0.5291300000000 1.0
C      1  0.5635440000000  0.5166620000000  0.5405930000000 1.0
C      1  0.5631310000000  0.5191660000000  0.4335570000000 1.0
C      1  0.5406010000000  0.5963830000000  0.4836270000000 1.0
C      1  0.4671750000000  0.4437890000000  0.4286140000000 1.0
C      1  0.5171840000000  0.5109610000000  0.5312220000000 1.0
C      1  0.4864560000000  0.5838420000000  0.4768940000000 1.0
C      1  0.4441500000000  0.4324720000000  0.5360690000000 1.0
C      1  0.4782840000000  0.4903110000000  0.4537210000000 1.0
C      1  0.4710040000000  0.4354850000000  0.5386860000000 1.0
C      1  0.4418450000000  0.4906070000000  0.4227280000000 1.0
C      1  0.4607320000000  0.4120680000000  0.4702310000000 1.0
C      1  0.5055730000000  0.4839250000000  0.5042590000000 1.0
C      1  0.4579390000000  0.4676380000000  0.4512470000000 1.0
C      1  0.5486320000000  0.5255120000000  0.5646460000000 1.0
C      1  0.4411210000000  0.5325730000000  0.4475560000000 1.0
C      1  0.4385660000000  0.4699540000000  0.5478600000000 1.0
C      1  0.5511280000000  0.4907920000000  0.4938010000000 1.0
C      1  0.4435170000000  0.4364610000000  0.4965170000000 1.0
C      1  0.5344510000000  0.4417260000000  0.4846170000000 1.0
C      1  0.5651080000000  0.4450830000000  0.4484100000000 1.0
C      1  0.5785370000000  0.5313310000000  0.4591280000000 1.0
C      1  0.5578610000000  0.4722820000000  0.5717930000000 1.0
C      1  0.5325510000000  0.4823610000000  0.5771560000000 1.0
C      1  0.5058140000000  0.4401940000000  0.4984400000000 1.0
C      1  0.5457340000000  0.5679030000000  0.4454520000000 1.0
C      1  0.4802040000000  0.5177740000000  0.4709820000000 1.0
END
