TITL C-2778424-3986-517 -0.00159572771853717 125000 -526.17942879321 0 0 91 (C1) n - 1
REM
REM in /home/nfs/bkarasulu/CARBON/AIRSS/Generating-Clusters/REBO/Only-C1/SD-CG/HFTN-CG
REM
REM
REM
REM
REM
REM ./C.cell (11c1c37f851c82e70ff6c80c92926a4b)
REM
REM compiler GCC version 9.2.1 20190827 (Red Hat 9.2.1-1)
REM options -cpp -mtune=generic -march=x86-64 -g -O0 -fpre-include=/usr/include/finclude/math-vector-fortran.h
REM seed -1936943932 -473311537 -859540012 1117312694 1665598062 -1377099432 -1481104042 -1051092456 1131874304 -1016982447 1701881170 -1692767735 1867254918 -744872732 -1789034088 -1419062661 -1556870994 -294471337 2142336486 40351372 -484201892 2044830164 2065038610 -966420667 51892844 834931877 731328790 -1763616732 -496619712 -467114988 821830098 1777998192 1151594263
REM
CELL 1.54180   50.00000   50.00000   50.00000   90.00000   90.00000   90.00000
LATT -1
SFAC C  
C      1  0.4825400000000  0.4574440000000  0.4924090000000 1.0
C      1  0.5118030000000  0.4661300000000  0.4838730000000 1.0
C      1  0.5716640000000  0.4403480000000  0.4878450000000 1.0
C      1  0.5698940000000  0.4529010000000  0.5410090000000 1.0
C      1  0.5136520000000  0.4710820000000  0.4522280000000 1.0
C      1  0.4374150000000  0.5155000000000  0.5575240000000 1.0
C      1  0.4303550000000  0.4976470000000  0.5307050000000 1.0
C      1  0.4583400000000  0.4245930000000  0.4704250000000 1.0
C      1  0.5601590000000  0.5090610000000  0.4240620000000 1.0
C      1  0.4854420000000  0.4307440000000  0.5036070000000 1.0
C      1  0.5544320000000  0.4302260000000  0.4680700000000 1.0
C      1  0.4848370000000  0.5443880000000  0.5310120000000 1.0
C      1  0.3976030000000  0.5245870000000  0.5063300000000 1.0
C      1  0.4999990000000  0.5872890000000  0.4680580000000 1.0
C      1  0.5609130000000  0.5187160000000  0.4799700000000 1.0
C      1  0.5173890000000  0.5032280000000  0.3995940000000 1.0
C      1  0.5229050000000  0.4644510000000  0.5686910000000 1.0
C      1  0.4872850000000  0.4971750000000  0.4667320000000 1.0
C      1  0.5159090000000  0.5056080000000  0.4501540000000 1.0
C      1  0.4737670000000  0.5186150000000  0.4163730000000 1.0
C      1  0.4577590000000  0.5540370000000  0.4422070000000 1.0
C      1  0.4496680000000  0.4514350000000  0.5141490000000 1.0
C      1  0.5860630000000  0.4651910000000  0.4845770000000 1.0
C      1  0.4865810000000  0.4925340000000  0.5233540000000 1.0
C      1  0.5048960000000  0.5379250000000  0.4520100000000 1.0
C      1  0.5125450000000  0.4464020000000  0.5346160000000 1.0
C      1  0.5198790000000  0.4904710000000  0.5908110000000 1.0
C      1  0.5250050000000  0.4242400000000  0.4741030000000 1.0
C      1  0.4604630000000  0.4573730000000  0.5462100000000 1.0
C      1  0.4464840000000  0.4822940000000  0.5556860000000 1.0
C      1  0.5385440000000  0.5406210000000  0.5424480000000 1.0
C      1  0.5045300000000  0.5513190000000  0.5102910000000 1.0
C      1  0.4346280000000  0.5567810000000  0.5237420000000 1.0
C      1  0.4488420000000  0.5260240000000  0.5271420000000 1.0
C      1  0.4660620000000  0.5327480000000  0.4979520000000 1.0
C      1  0.5189610000000  0.5278860000000  0.5586330000000 1.0
C      1  0.4520180000000  0.5052470000000  0.4328160000000 1.0
C      1  0.4814520000000  0.5417660000000  0.4316890000000 1.0
C      1  0.4653160000000  0.5641240000000  0.5115380000000 1.0
C      1  0.5299900000000  0.5601950000000  0.5240090000000 1.0
C      1  0.4383460000000  0.5300330000000  0.4816440000000 1.0
C      1  0.5615270000000  0.5250820000000  0.5355000000000 1.0
C      1  0.5834690000000  0.4764690000000  0.4567210000000 1.0
C      1  0.4715250000000  0.5855450000000  0.5445990000000 1.0
C      1  0.5203670000000  0.4996500000000  0.5032620000000 1.0
C      1  0.5303800000000  0.5807440000000  0.5022360000000 1.0
C      1  0.5038220000000  0.5933380000000  0.4967650000000 1.0
C      1  0.5098700000000  0.4706430000000  0.5180880000000 1.0
C      1  0.5793690000000  0.4791950000000  0.5366530000000 1.0
C      1  0.5408310000000  0.4426050000000  0.5513790000000 1.0
C      1  0.4884210000000  0.5079400000000  0.4950440000000 1.0
C      1  0.4950350000000  0.5454220000000  0.4827950000000 1.0
C      1  0.4454090000000  0.4465820000000  0.4825240000000 1.0
C      1  0.5622140000000  0.5499220000000  0.4830800000000 1.0
C      1  0.4893700000000  0.4305820000000  0.5493490000000 1.0
C      1  0.5381930000000  0.4487110000000  0.4454430000000 1.0
C      1  0.4893800000000  0.4594650000000  0.5642970000000 1.0
C      1  0.5450950000000  0.4904990000000  0.5679460000000 1.0
C      1  0.5383010000000  0.4999130000000  0.4745270000000 1.0
C      1  0.5516630000000  0.4714540000000  0.4645860000000 1.0
C      1  0.4720600000000  0.5344540000000  0.5587230000000 1.0
C      1  0.4606550000000  0.4808630000000  0.5041170000000 1.0
C      1  0.5258520000000  0.5212870000000  0.5845450000000 1.0
C      1  0.4935780000000  0.5097760000000  0.5484640000000 1.0
C      1  0.4089300000000  0.4992220000000  0.5087650000000 1.0
C      1  0.5415200000000  0.5684040000000  0.4777790000000 1.0
C      1  0.4528090000000  0.5806350000000  0.4469060000000 1.0
C      1  0.4390360000000  0.5312030000000  0.4505700000000 1.0
C      1  0.4553890000000  0.5628210000000  0.5500760000000 1.0
C      1  0.4297880000000  0.4989630000000  0.4583470000000 1.0
C      1  0.4432300000000  0.4682650000000  0.4653590000000 1.0
C      1  0.4830430000000  0.5903100000000  0.5159420000000 1.0
C      1  0.5189780000000  0.5666530000000  0.4590520000000 1.0
C      1  0.5324200000000  0.4233500000000  0.5233620000000 1.0
C      1  0.5123900000000  0.4202300000000  0.4993630000000 1.0
C      1  0.4375350000000  0.4975670000000  0.4915260000000 1.0
C      1  0.4906240000000  0.5077600000000  0.3971010000000 1.0
C      1  0.5531210000000  0.4947080000000  0.5109630000000 1.0
C      1  0.5327380000000  0.5060500000000  0.4228870000000 1.0
C      1  0.5830690000000  0.4843140000000  0.5066410000000 1.0
C      1  0.4639830000000  0.5051030000000  0.5744050000000 1.0
C      1  0.5563990000000  0.4413380000000  0.5147020000000 1.0
C      1  0.4661650000000  0.4844860000000  0.4527850000000 1.0
C      1  0.4919080000000  0.4887290000000  0.5751210000000 1.0
C      1  0.5432450000000  0.4669300000000  0.4965840000000 1.0
C      1  0.4656040000000  0.4272880000000  0.5294070000000 1.0
C      1  0.5640710000000  0.4997880000000  0.5497180000000 1.0
C      1  0.4168860000000  0.5438280000000  0.5002430000000 1.0
C      1  0.5065080000000  0.4376630000000  0.4518140000000 1.0
C      1  0.4790550000000  0.4254870000000  0.4529260000000 1.0
C      1  0.5708400000000  0.5303830000000  0.5087150000000 1.0
END
