TITL C-2778424-3986-131 0.238536736509662 125000 -175.598982352221 0 0 32 (C1) n - 1
REM
REM in /home/nfs/bkarasulu/CARBON/AIRSS/Generating-Clusters/REBO/Only-C1/SD-CG/HFTN-CG
REM
REM
REM
REM
REM
REM ./C.cell (11c1c37f851c82e70ff6c80c92926a4b)
REM
REM compiler GCC version 9.2.1 20190827 (Red Hat 9.2.1-1)
REM options -cpp -mtune=generic -march=x86-64 -g -O0 -fpre-include=/usr/include/finclude/math-vector-fortran.h
REM seed 592762716 -933532844 -711051583 -1370829044 858153334 -981398215 1494029774 -1223686819 1026809159 1220754315 2101417069 1730305170 -1335292945 -991389226 -1784468531 337529824 1858213665 824048272 -1753864209 431834163 -997004371 -1142475303 1732952786 -1063651497 1939556354 1225829186 -259115907 -786347422 1489366109 1895325492 53550397 -703957641 1524554570
REM
CELL 1.54180   50.00000   50.00000   50.00000   90.00000   90.00000   90.00000
LATT -1
SFAC C  
C      1  0.5947510000000  0.5390300000000  0.4838860000000 1.0
C      1  0.4575080000000  0.5181460000000  0.5649750000000 1.0
C      1  0.4522750000000  0.4861700000000  0.5232460000000 1.0
C      1  0.5187450000000  0.4593090000000  0.5028300000000 1.0
C      1  0.4696490000000  0.4557550000000  0.4752810000000 1.0
C      1  0.5476980000000  0.5428460000000  0.5506270000000 1.0
C      1  0.5978240000000  0.4809910000000  0.4796660000000 1.0
C      1  0.5466230000000  0.4636760000000  0.4952650000000 1.0
C      1  0.5029340000000  0.5402000000000  0.5779690000000 1.0
C      1  0.5399230000000  0.5458890000000  0.4816550000000 1.0
C      1  0.4461830000000  0.5280880000000  0.4856750000000 1.0
C      1  0.4885250000000  0.5550510000000  0.4736150000000 1.0
C      1  0.4479410000000  0.5021650000000  0.5455960000000 1.0
C      1  0.4389400000000  0.4776060000000  0.4476880000000 1.0
C      1  0.5034710000000  0.4849310000000  0.5077140000000 1.0
C      1  0.4521730000000  0.4787300000000  0.4724820000000 1.0
C      1  0.4683500000000  0.4398100000000  0.4511850000000 1.0
C      1  0.5637700000000  0.5359280000000  0.4976580000000 1.0
C      1  0.4845220000000  0.5000790000000  0.5042780000000 1.0
C      1  0.4539000000000  0.4997360000000  0.4942590000000 1.0
C      1  0.5062910000000  0.4293100000000  0.5069550000000 1.0
C      1  0.5680010000000  0.4774880000000  0.4893570000000 1.0
C      1  0.4270480000000  0.4700880000000  0.4183080000000 1.0
C      1  0.4828030000000  0.4513430000000  0.5011780000000 1.0
C      1  0.5152100000000  0.5529560000000  0.4750470000000 1.0
C      1  0.4629380000000  0.5476300000000  0.4774790000000 1.0
C      1  0.5605350000000  0.5398000000000  0.5276010000000 1.0
C      1  0.4775600000000  0.5315400000000  0.5767990000000 1.0
C      1  0.4666150000000  0.4626300000000  0.5238370000000 1.0
C      1  0.4494830000000  0.4507510000000  0.4318620000000 1.0
C      1  0.5800360000000  0.5087070000000  0.4875340000000 1.0
C      1  0.5277750000000  0.5436210000000  0.5684920000000 1.0
END
