TITL C-2778435-5768-1020 -7.31045470124519e-05 125000 -293.319135996019 0 0 51 (C1) n - 1
REM
REM in /home/nfs/bkarasulu/CARBON/AIRSS/Generating-Clusters/REBO/Only-C1/SD-CG/HFTN-CG
REM
REM
REM
REM
REM
REM ./C.cell (11c1c37f851c82e70ff6c80c92926a4b)
REM
REM compiler GCC version 9.2.1 20190827 (Red Hat 9.2.1-1)
REM options -cpp -mtune=generic -march=x86-64 -g -O0 -fpre-include=/usr/include/finclude/math-vector-fortran.h
REM seed 2136949128 -928573789 -278418519 1181303508 -392342588 600863305 1368839484 633370596 -43575889 -1887824846 -1817735482 1092796508 264715070 1669591647 659851738 27725618 -1220051191 1530618118 927843736 448383306 -1791680012 -1382252344 -1732342853 -1082602445 1995192055 388130033 -1376707564 629106765 1685077092 -789894953 -495056616 528741892 2069612173
REM
CELL 1.54180   50.00000   50.00000   50.00000   90.00000   90.00000   90.00000
LATT -1
SFAC C  
C      1  0.4780780000000  0.4821500000000  0.4451040000000 1.0
C      1  0.4652180000000  0.5226440000000  0.4773030000000 1.0
C      1  0.4897210000000  0.5492510000000  0.4378800000000 1.0
C      1  0.4442510000000  0.5130720000000  0.5286930000000 1.0
C      1  0.4577450000000  0.4686020000000  0.5198600000000 1.0
C      1  0.4970440000000  0.5622120000000  0.4626710000000 1.0
C      1  0.5071050000000  0.4943340000000  0.5948070000000 1.0
C      1  0.5103120000000  0.4441310000000  0.5367440000000 1.0
C      1  0.5074840000000  0.5223280000000  0.5017520000000 1.0
C      1  0.5391160000000  0.5830380000000  0.5330280000000 1.0
C      1  0.5121040000000  0.5661640000000  0.4922730000000 1.0
C      1  0.5590350000000  0.5319760000000  0.4663740000000 1.0
C      1  0.5518810000000  0.5133210000000  0.5191140000000 1.0
C      1  0.4652660000000  0.4657160000000  0.5486700000000 1.0
C      1  0.5049960000000  0.4442310000000  0.5069620000000 1.0
C      1  0.4640890000000  0.4970060000000  0.5151960000000 1.0
C      1  0.5085480000000  0.4998820000000  0.5456000000000 1.0
C      1  0.4460630000000  0.4528100000000  0.4228530000000 1.0
C      1  0.5044520000000  0.5255550000000  0.4324980000000 1.0
C      1  0.4957370000000  0.4960680000000  0.5703390000000 1.0
C      1  0.5323950000000  0.5205330000000  0.4513040000000 1.0
C      1  0.4716910000000  0.5510480000000  0.5213150000000 1.0
C      1  0.5662890000000  0.5022320000000  0.4974250000000 1.0
C      1  0.4786710000000  0.5359000000000  0.4986380000000 1.0
C      1  0.4869490000000  0.4470280000000  0.5527750000000 1.0
C      1  0.4545780000000  0.5173920000000  0.5555530000000 1.0
C      1  0.4414230000000  0.5299620000000  0.4666630000000 1.0
C      1  0.4804680000000  0.4995750000000  0.4692840000000 1.0
C      1  0.4559880000000  0.4512910000000  0.4965290000000 1.0
C      1  0.5320580000000  0.5371700000000  0.5111080000000 1.0
C      1  0.5049450000000  0.4251530000000  0.4799100000000 1.0
C      1  0.4673100000000  0.4917470000000  0.5646780000000 1.0
C      1  0.5033820000000  0.4951830000000  0.4857150000000 1.0
C      1  0.5150850000000  0.4716990000000  0.4957210000000 1.0
C      1  0.5045000000000  0.4956050000000  0.4375760000000 1.0
C      1  0.4773020000000  0.4328800000000  0.4946520000000 1.0
C      1  0.5215080000000  0.5442560000000  0.4716030000000 1.0
C      1  0.5317160000000  0.4883780000000  0.4540140000000 1.0
C      1  0.5353500000000  0.4587270000000  0.5405870000000 1.0
C      1  0.5374990000000  0.4926510000000  0.5391520000000 1.0
C      1  0.4707580000000  0.5419990000000  0.5529510000000 1.0
C      1  0.5425780000000  0.4736760000000  0.5117190000000 1.0
C      1  0.4919630000000  0.5044660000000  0.5228560000000 1.0
C      1  0.5511520000000  0.4788880000000  0.4800840000000 1.0
C      1  0.5567460000000  0.5403380000000  0.4900540000000 1.0
C      1  0.4958700000000  0.5597990000000  0.5400810000000 1.0
C      1  0.4556560000000  0.4649080000000  0.4452070000000 1.0
C      1  0.5207910000000  0.5644950000000  0.5232280000000 1.0
C      1  0.5375250000000  0.4561710000000  0.4594060000000 1.0
C      1  0.5241890000000  0.4331210000000  0.4611930000000 1.0
C      1  0.4454190000000  0.4592410000000  0.4712980000000 1.0
END
