TITL C-2778433-5640-1465 -0.000346503693008268 125000 -839.392220513029 0 0 141 (C1) n - 1
REM
REM in /home/nfs/bkarasulu/CARBON/AIRSS/Generating-Clusters/REBO/Only-C1/SD-CG/HFTN-CG
REM
REM
REM
REM
REM
REM ./C.cell (11c1c37f851c82e70ff6c80c92926a4b)
REM
REM compiler GCC version 9.2.1 20190827 (Red Hat 9.2.1-1)
REM options -cpp -mtune=generic -march=x86-64 -g -O0 -fpre-include=/usr/include/finclude/math-vector-fortran.h
REM seed 1012968969 -1491739348 1496362223 -1486482679 -2104536688 1832249434 2091481408 -13232533 2116759551 1547241856 -863356868 2147372556 1199443062 312937275 304399672 -1022544853 -1285815163 -1102865599 1016053540 1288913165 -1449762744 -151648619 1400205114 119180956 1517280026 -281285278 1934197038 -323295764 -1970255197 1889267052 1963630965 -1971300455 -1017069698
REM
CELL 1.54180   50.00000   50.00000   50.00000   90.00000   90.00000   90.00000
LATT -1
SFAC C  
C      1  0.5883230000000  0.4980620000000  0.4798190000000 1.0
C      1  0.4317850000000  0.5074410000000  0.5748240000000 1.0
C      1  0.5008130000000  0.5429440000000  0.4174940000000 1.0
C      1  0.5818640000000  0.5571550000000  0.4661780000000 1.0
C      1  0.4108280000000  0.5392420000000  0.4680320000000 1.0
C      1  0.4312030000000  0.5617480000000  0.4539070000000 1.0
C      1  0.5116370000000  0.4943240000000  0.5049270000000 1.0
C      1  0.5081380000000  0.4084920000000  0.5408370000000 1.0
C      1  0.4948550000000  0.5318880000000  0.5480260000000 1.0
C      1  0.4714760000000  0.5993590000000  0.5413870000000 1.0
C      1  0.5803210000000  0.5018570000000  0.5684420000000 1.0
C      1  0.5190460000000  0.5347880000000  0.4394260000000 1.0
C      1  0.5257190000000  0.5434930000000  0.5849830000000 1.0
C      1  0.5404350000000  0.5085290000000  0.4385260000000 1.0
C      1  0.4425760000000  0.5582150000000  0.4823500000000 1.0
C      1  0.5471720000000  0.5838430000000  0.5114700000000 1.0
C      1  0.5725830000000  0.5377850000000  0.4448260000000 1.0
C      1  0.4187450000000  0.5471470000000  0.5213660000000 1.0
C      1  0.5177530000000  0.5789880000000  0.5508870000000 1.0
C      1  0.4549340000000  0.4640340000000  0.5195930000000 1.0
C      1  0.5443060000000  0.5754380000000  0.5387580000000 1.0
C      1  0.5061050000000  0.5126220000000  0.4584830000000 1.0
C      1  0.4526170000000  0.5820850000000  0.4934090000000 1.0
C      1  0.4176090000000  0.4813990000000  0.4745740000000 1.0
C      1  0.5704970000000  0.4521830000000  0.5536480000000 1.0
C      1  0.5498730000000  0.5392900000000  0.5709950000000 1.0
C      1  0.4563130000000  0.4509110000000  0.5795290000000 1.0
C      1  0.5370160000000  0.5476630000000  0.4895240000000 1.0
C      1  0.4840870000000  0.4329020000000  0.5785030000000 1.0
C      1  0.4216820000000  0.4600580000000  0.4958200000000 1.0
C      1  0.4187390000000  0.4990410000000  0.5038170000000 1.0
C      1  0.4967160000000  0.5886310000000  0.5341290000000 1.0
C      1  0.4709670000000  0.5538410000000  0.4282030000000 1.0
C      1  0.4486160000000  0.5928720000000  0.5188120000000 1.0
C      1  0.4753120000000  0.5172580000000  0.4681760000000 1.0
C      1  0.4422010000000  0.5532940000000  0.4295610000000 1.0
C      1  0.4790350000000  0.4742570000000  0.4396650000000 1.0
C      1  0.5612210000000  0.4267040000000  0.4565210000000 1.0
C      1  0.4829560000000  0.4260080000000  0.5481200000000 1.0
C      1  0.5077000000000  0.4788850000000  0.4097170000000 1.0
C      1  0.5140370000000  0.4346150000000  0.4300540000000 1.0
C      1  0.5409850000000  0.4163530000000  0.4406610000000 1.0
C      1  0.4859390000000  0.5470850000000  0.4579740000000 1.0
C      1  0.4363150000000  0.4782270000000  0.5799300000000 1.0
C      1  0.5869040000000  0.5494140000000  0.5397160000000 1.0
C      1  0.4739290000000  0.5523530000000  0.5119270000000 1.0
C      1  0.5202270000000  0.5116170000000  0.4853150000000 1.0
C      1  0.4131120000000  0.5129730000000  0.5547330000000 1.0
C      1  0.5099880000000  0.5664030000000  0.5759750000000 1.0
C      1  0.5499880000000  0.4939090000000  0.4655820000000 1.0
C      1  0.4454800000000  0.5821910000000  0.5493480000000 1.0
C      1  0.5416570000000  0.4794940000000  0.4114700000000 1.0
C      1  0.5349130000000  0.5765420000000  0.4624100000000 1.0
C      1  0.5783180000000  0.5080400000000  0.4509850000000 1.0
C      1  0.5432250000000  0.5552890000000  0.4422830000000 1.0
C      1  0.4699720000000  0.5125040000000  0.5235010000000 1.0
C      1  0.4552000000000  0.4582820000000  0.4212680000000 1.0
C      1  0.4978740000000  0.5176890000000  0.3999460000000 1.0
C      1  0.5294740000000  0.4627360000000  0.4385740000000 1.0
C      1  0.5070170000000  0.4457540000000  0.5086470000000 1.0
C      1  0.5070280000000  0.3931640000000  0.5104770000000 1.0
C      1  0.4720170000000  0.5088070000000  0.3984490000000 1.0
C      1  0.5493600000000  0.4763490000000  0.5603100000000 1.0
C      1  0.4690470000000  0.4033930000000  0.5037590000000 1.0
C      1  0.4550420000000  0.4357260000000  0.5358700000000 1.0
C      1  0.5148030000000  0.5098180000000  0.5572920000000 1.0
C      1  0.4301020000000  0.5291200000000  0.4216450000000 1.0
C      1  0.4969790000000  0.4710660000000  0.4928630000000 1.0
C      1  0.5486230000000  0.4716110000000  0.5265730000000 1.0
C      1  0.4863930000000  0.4455520000000  0.4229490000000 1.0
C      1  0.5176550000000  0.4406900000000  0.5801830000000 1.0
C      1  0.4059890000000  0.5548700000000  0.4978940000000 1.0
C      1  0.4610640000000  0.4865840000000  0.4645360000000 1.0
C      1  0.4448310000000  0.4591640000000  0.4524430000000 1.0
C      1  0.4750330000000  0.4838450000000  0.5333860000000 1.0
C      1  0.4974980000000  0.4284600000000  0.4658940000000 1.0
C      1  0.5300800000000  0.5390210000000  0.5175850000000 1.0
C      1  0.5096310000000  0.5584610000000  0.4773690000000 1.0
C      1  0.4353910000000  0.4834400000000  0.4227890000000 1.0
C      1  0.4844390000000  0.4960630000000  0.5637220000000 1.0
C      1  0.5560730000000  0.4297310000000  0.5445380000000 1.0
C      1  0.5302090000000  0.5110520000000  0.4053110000000 1.0
C      1  0.5732510000000  0.4809130000000  0.5124520000000 1.0
C      1  0.5490240000000  0.5102830000000  0.5581210000000 1.0
C      1  0.5321560000000  0.4711600000000  0.5845910000000 1.0
C      1  0.4783560000000  0.5324460000000  0.5920480000000 1.0
C      1  0.4452840000000  0.5072960000000  0.4093280000000 1.0
C      1  0.4946130000000  0.5763850000000  0.4190400000000 1.0
C      1  0.4243660000000  0.4732810000000  0.5253440000000 1.0
C      1  0.5409080000000  0.4644250000000  0.4768330000000 1.0
C      1  0.5698430000000  0.4340720000000  0.4857200000000 1.0
C      1  0.4934020000000  0.4639550000000  0.5852490000000 1.0
C      1  0.5510270000000  0.5197970000000  0.4856190000000 1.0
C      1  0.5909770000000  0.4740350000000  0.5554510000000 1.0
C      1  0.4635350000000  0.5261850000000  0.4953580000000 1.0
C      1  0.5065300000000  0.4875870000000  0.4418290000000 1.0
C      1  0.5238580000000  0.5967500000000  0.5008650000000 1.0
C      1  0.4672340000000  0.4731100000000  0.4921970000000 1.0
C      1  0.5061260000000  0.4712720000000  0.5544420000000 1.0
C      1  0.4633750000000  0.5321450000000  0.5477270000000 1.0
C      1  0.5496770000000  0.5211860000000  0.5278880000000 1.0
C      1  0.5664410000000  0.4813170000000  0.4335400000000 1.0
C      1  0.4478810000000  0.4197480000000  0.5111560000000 1.0
C      1  0.4350130000000  0.4570590000000  0.5533300000000 1.0
C      1  0.5040730000000  0.5452890000000  0.5248050000000 1.0
C      1  0.4128320000000  0.5201610000000  0.5278450000000 1.0
C      1  0.4194760000000  0.4907330000000  0.4477060000000 1.0
C      1  0.4971350000000  0.4206860000000  0.4953830000000 1.0
C      1  0.5550760000000  0.4244950000000  0.5122810000000 1.0
C      1  0.5312670000000  0.4236370000000  0.5579870000000 1.0
C      1  0.4468660000000  0.5553580000000  0.5325540000000 1.0
C      1  0.5101050000000  0.5978300000000  0.4712190000000 1.0
C      1  0.4344530000000  0.4350240000000  0.4911620000000 1.0
C      1  0.4666620000000  0.4171600000000  0.4571210000000 1.0
C      1  0.5380940000000  0.4511020000000  0.5059740000000 1.0
C      1  0.5598510000000  0.5705910000000  0.4847460000000 1.0
C      1  0.5364340000000  0.4015230000000  0.5229510000000 1.0
C      1  0.4770210000000  0.5942250000000  0.4788470000000 1.0
C      1  0.5106190000000  0.4561810000000  0.4662190000000 1.0
C      1  0.4860240000000  0.3834430000000  0.4863050000000 1.0
C      1  0.5073850000000  0.5209030000000  0.5948680000000 1.0
C      1  0.5184840000000  0.4937650000000  0.5943120000000 1.0
C      1  0.5110050000000  0.4046570000000  0.4459530000000 1.0
C      1  0.4892390000000  0.5805890000000  0.4511940000000 1.0
C      1  0.4552020000000  0.5233890000000  0.5756610000000 1.0
C      1  0.5752890000000  0.5136530000000  0.5074790000000 1.0
C      1  0.5808090000000  0.4654820000000  0.4852650000000 1.0
C      1  0.5236030000000  0.4888530000000  0.5325200000000 1.0
C      1  0.5964520000000  0.5250710000000  0.5277520000000 1.0
C      1  0.6030930000000  0.5042990000000  0.5464940000000 1.0
C      1  0.4678420000000  0.4824510000000  0.5881450000000 1.0
C      1  0.4455400000000  0.4339740000000  0.4650560000000 1.0
C      1  0.5662620000000  0.4590190000000  0.4551230000000 1.0
C      1  0.4835690000000  0.5615270000000  0.5869860000000 1.0
C      1  0.5624380000000  0.5576770000000  0.5523510000000 1.0
C      1  0.4908740000000  0.4532390000000  0.5333970000000 1.0
C      1  0.4327120000000  0.5261880000000  0.4905530000000 1.0
C      1  0.4132670000000  0.5190320000000  0.4435050000000 1.0
C      1  0.5523790000000  0.5337600000000  0.4175330000000 1.0
C      1  0.4846420000000  0.3914460000000  0.4591300000000 1.0
C      1  0.4954410000000  0.5770570000000  0.5020890000000 1.0
END
