TITL C-2778430-5657-716 -0.00647197477260879 125000 -612.956422537972 0 0 104 (C1) n - 1
REM
REM in /home/nfs/bkarasulu/CARBON/AIRSS/Generating-Clusters/REBO/Only-C1/SD-CG/HFTN-CG
REM
REM
REM
REM
REM
REM ./C.cell (11c1c37f851c82e70ff6c80c92926a4b)
REM
REM compiler GCC version 9.2.1 20190827 (Red Hat 9.2.1-1)
REM options -cpp -mtune=generic -march=x86-64 -g -O0 -fpre-include=/usr/include/finclude/math-vector-fortran.h
REM seed 1652939072 1278281059 585663837 8228796 -625178933 592429633 1633808004 546802876 -1481141367 -1779133853 -1950388869 -1856943700 -1415135320 -878363296 -1404012626 378502169 -1604499239 -2044496081 775830716 -792230225 272909556 -741638007 -788414523 -1011628679 1786133164 1665394537 -2034525473 1775636995 502985559 270581318 -451051015 -1295523371 926242231
REM
CELL 1.54180   50.00000   50.00000   50.00000   90.00000   90.00000   90.00000
LATT -1
SFAC C  
C      1  0.4752110000000  0.5288270000000  0.4696550000000 1.0
C      1  0.5194880000000  0.4569040000000  0.4464700000000 1.0
C      1  0.4629220000000  0.5896240000000  0.5288830000000 1.0
C      1  0.5266340000000  0.5646240000000  0.4682660000000 1.0
C      1  0.5097520000000  0.5692100000000  0.4414410000000 1.0
C      1  0.4382600000000  0.4938970000000  0.5438700000000 1.0
C      1  0.4600480000000  0.5395050000000  0.5178540000000 1.0
C      1  0.4594080000000  0.5166560000000  0.5419540000000 1.0
C      1  0.5487200000000  0.5511920000000  0.5583300000000 1.0
C      1  0.5826210000000  0.5034660000000  0.5171940000000 1.0
C      1  0.5340560000000  0.5161700000000  0.5277110000000 1.0
C      1  0.5008830000000  0.4505270000000  0.5106020000000 1.0
C      1  0.4903620000000  0.5118480000000  0.6074240000000 1.0
C      1  0.5072900000000  0.5456110000000  0.4264000000000 1.0
C      1  0.5342280000000  0.5097170000000  0.4062880000000 1.0
C      1  0.4441370000000  0.4576610000000  0.4481370000000 1.0
C      1  0.4968310000000  0.4650610000000  0.4254710000000 1.0
C      1  0.4820420000000  0.4300270000000  0.4602120000000 1.0
C      1  0.4643520000000  0.4140340000000  0.5069910000000 1.0
C      1  0.5759560000000  0.5104710000000  0.5581120000000 1.0
C      1  0.5319380000000  0.5343740000000  0.5774040000000 1.0
C      1  0.5336010000000  0.5713210000000  0.5455880000000 1.0
C      1  0.4477440000000  0.5446900000000  0.5551590000000 1.0
C      1  0.4212090000000  0.5233670000000  0.4798820000000 1.0
C      1  0.4719820000000  0.4937660000000  0.5981260000000 1.0
C      1  0.4711740000000  0.5618480000000  0.4343000000000 1.0
C      1  0.5130160000000  0.5262210000000  0.5092380000000 1.0
C      1  0.4785550000000  0.4820810000000  0.4557260000000 1.0
C      1  0.4658470000000  0.4725850000000  0.5808340000000 1.0
C      1  0.4475690000000  0.4711820000000  0.5585140000000 1.0
C      1  0.5058580000000  0.5985970000000  0.5021790000000 1.0
C      1  0.5106900000000  0.4931780000000  0.5785140000000 1.0
C      1  0.5743290000000  0.5365970000000  0.4761670000000 1.0
C      1  0.4378210000000  0.4400380000000  0.4712960000000 1.0
C      1  0.4956340000000  0.5057170000000  0.4680300000000 1.0
C      1  0.5312750000000  0.5127570000000  0.4562860000000 1.0
C      1  0.5151310000000  0.4107100000000  0.4310560000000 1.0
C      1  0.4721830000000  0.4302140000000  0.5556230000000 1.0
C      1  0.4565330000000  0.5702500000000  0.4926400000000 1.0
C      1  0.5214710000000  0.4738300000000  0.5005630000000 1.0
C      1  0.5453710000000  0.4666070000000  0.5633150000000 1.0
C      1  0.5558460000000  0.5447760000000  0.5105310000000 1.0
C      1  0.4383020000000  0.4861690000000  0.4496890000000 1.0
C      1  0.5879360000000  0.4643220000000  0.4795950000000 1.0
C      1  0.4904930000000  0.5855580000000  0.5237770000000 1.0
C      1  0.4271450000000  0.5558860000000  0.5021360000000 1.0
C      1  0.4160500000000  0.5252890000000  0.5120430000000 1.0
C      1  0.4523140000000  0.5274000000000  0.4903840000000 1.0
C      1  0.5341330000000  0.5950500000000  0.5084930000000 1.0
C      1  0.5770990000000  0.5026900000000  0.4776110000000 1.0
C      1  0.5021770000000  0.5881480000000  0.4752250000000 1.0
C      1  0.4191180000000  0.4984630000000  0.5231760000000 1.0
C      1  0.5140220000000  0.4944910000000  0.4048800000000 1.0
C      1  0.4501670000000  0.4460700000000  0.5454130000000 1.0
C      1  0.5249950000000  0.4967140000000  0.4831520000000 1.0
C      1  0.5336400000000  0.5297780000000  0.4292240000000 1.0
C      1  0.5275020000000  0.4101030000000  0.4598200000000 1.0
C      1  0.5687450000000  0.5351090000000  0.5404940000000 1.0
C      1  0.4536090000000  0.5075030000000  0.4371890000000 1.0
C      1  0.5684480000000  0.4766260000000  0.4597550000000 1.0
C      1  0.4204420000000  0.4786090000000  0.4984580000000 1.0
C      1  0.4478420000000  0.4410220000000  0.5162430000000 1.0
C      1  0.4849770000000  0.5863320000000  0.4475490000000 1.0
C      1  0.4261980000000  0.4489840000000  0.4962170000000 1.0
C      1  0.4983630000000  0.4309660000000  0.4237710000000 1.0
C      1  0.4904080000000  0.4969990000000  0.4274150000000 1.0
C      1  0.5449490000000  0.4677900000000  0.4486060000000 1.0
C      1  0.5356880000000  0.4633260000000  0.5361800000000 1.0
C      1  0.5415610000000  0.4479730000000  0.5107350000000 1.0
C      1  0.5122500000000  0.5542050000000  0.4967050000000 1.0
C      1  0.5173270000000  0.5174100000000  0.5954410000000 1.0
C      1  0.5468900000000  0.5423180000000  0.4584320000000 1.0
C      1  0.5099420000000  0.4348930000000  0.4623530000000 1.0
C      1  0.4678220000000  0.4693440000000  0.4780700000000 1.0
C      1  0.4553660000000  0.5477910000000  0.4546980000000 1.0
C      1  0.4788520000000  0.5287470000000  0.4285360000000 1.0
C      1  0.5557230000000  0.4989000000000  0.5257210000000 1.0
C      1  0.5495420000000  0.5175080000000  0.4909330000000 1.0
C      1  0.5390520000000  0.5681600000000  0.5061010000000 1.0
C      1  0.5181590000000  0.4631940000000  0.5814890000000 1.0
C      1  0.5140070000000  0.5342700000000  0.5482770000000 1.0
C      1  0.5060950000000  0.5013490000000  0.5517960000000 1.0
C      1  0.5831210000000  0.4381560000000  0.4889650000000 1.0
C      1  0.4611560000000  0.4222620000000  0.4777040000000 1.0
C      1  0.5856840000000  0.5327430000000  0.5083570000000 1.0
C      1  0.5573480000000  0.4290410000000  0.4966160000000 1.0
C      1  0.5123400000000  0.4829010000000  0.5318140000000 1.0
C      1  0.4818790000000  0.5536590000000  0.4958190000000 1.0
C      1  0.4702020000000  0.4469300000000  0.4351210000000 1.0
C      1  0.5974610000000  0.4855000000000  0.4987850000000 1.0
C      1  0.4206430000000  0.4944040000000  0.4707540000000 1.0
C      1  0.5461570000000  0.4082560000000  0.4806200000000 1.0
C      1  0.4436330000000  0.5659380000000  0.5301340000000 1.0
C      1  0.5113470000000  0.4400070000000  0.5576090000000 1.0
C      1  0.4918580000000  0.5100720000000  0.5008150000000 1.0
C      1  0.5043710000000  0.4319860000000  0.5319750000000 1.0
C      1  0.4696400000000  0.5008830000000  0.5145940000000 1.0
C      1  0.4308320000000  0.5522420000000  0.4682010000000 1.0
C      1  0.4749330000000  0.4519260000000  0.5007110000000 1.0
C      1  0.5055800000000  0.5648820000000  0.5372660000000 1.0
C      1  0.4815660000000  0.4118650000000  0.5315990000000 1.0
C      1  0.5652050000000  0.4867390000000  0.5664450000000 1.0
C      1  0.4870640000000  0.4493310000000  0.5788610000000 1.0
C      1  0.4526560000000  0.4850810000000  0.4992190000000 1.0
END
