TITL C-2778429-3646-210 -0.0927038139463085 125000 -977.560772106075 0 0 169 (C1) n - 1
REM
REM in /home/nfs/bkarasulu/CARBON/AIRSS/Generating-Clusters/REBO/Only-C1/SD-CG/HFTN-CG
REM
REM
REM
REM
REM
REM ./C.cell (11c1c37f851c82e70ff6c80c92926a4b)
REM
REM compiler GCC version 9.2.1 20190827 (Red Hat 9.2.1-1)
REM options -cpp -mtune=generic -march=x86-64 -g -O0 -fpre-include=/usr/include/finclude/math-vector-fortran.h
REM seed -602572576 825127566 1941271543 -195041243 763025006 -2046591702 1230738145 1831067573 -40598709 -1409647906 1315037260 -663523266 -1587013871 -155702672 -118381263 393336591 1665124842 1181317833 -999318288 1986550260 2072340859 1434255785 597344618 -678679249 -764370126 -2027197099 2118934909 38577568 -760789822 -466508957 -1108500580 -697202818 -1136120422
REM
CELL 1.54180   50.00000   50.00000   50.00000   90.00000   90.00000   90.00000
LATT -1
SFAC C  
C      1  0.5351220000000  0.4105560000000  0.5753440000000 1.0
C      1  0.5459310000000  0.5091300000000  0.5504850000000 1.0
C      1  0.4212140000000  0.4474550000000  0.5475360000000 1.0
C      1  0.3895410000000  0.5060640000000  0.5108810000000 1.0
C      1  0.4212100000000  0.5295390000000  0.5046450000000 1.0
C      1  0.4435580000000  0.5148030000000  0.4344360000000 1.0
C      1  0.5003090000000  0.5279060000000  0.3957860000000 1.0
C      1  0.4650190000000  0.4048740000000  0.4879310000000 1.0
C      1  0.4563170000000  0.4400580000000  0.4366560000000 1.0
C      1  0.5132060000000  0.5132620000000  0.6041180000000 1.0
C      1  0.4615770000000  0.5469810000000  0.5502090000000 1.0
C      1  0.5580910000000  0.4409050000000  0.3956230000000 1.0
C      1  0.5616740000000  0.4648730000000  0.4654790000000 1.0
C      1  0.4419140000000  0.5494630000000  0.3891960000000 1.0
C      1  0.5797630000000  0.5291220000000  0.5554200000000 1.0
C      1  0.5418890000000  0.5743170000000  0.5158040000000 1.0
C      1  0.4062780000000  0.4950370000000  0.4555550000000 1.0
C      1  0.4593510000000  0.5806940000000  0.5713540000000 1.0
C      1  0.5689130000000  0.5701660000000  0.5362030000000 1.0
C      1  0.4770020000000  0.4157700000000  0.4606200000000 1.0
C      1  0.5207360000000  0.5522170000000  0.4069320000000 1.0
C      1  0.4253410000000  0.5472200000000  0.4537980000000 1.0
C      1  0.5460660000000  0.4743050000000  0.5970460000000 1.0
C      1  0.5218100000000  0.5407520000000  0.5478040000000 1.0
C      1  0.4769690000000  0.6013680000000  0.4658430000000 1.0
C      1  0.5430020000000  0.5726490000000  0.4840290000000 1.0
C      1  0.5386030000000  0.4724520000000  0.4896370000000 1.0
C      1  0.4688130000000  0.4428120000000  0.4765470000000 1.0
C      1  0.5246140000000  0.4375990000000  0.5280300000000 1.0
C      1  0.4702280000000  0.5788940000000  0.5044640000000 1.0
C      1  0.5464470000000  0.5552930000000  0.4272220000000 1.0
C      1  0.5875650000000  0.4727630000000  0.5027270000000 1.0
C      1  0.4867070000000  0.4556590000000  0.4358890000000 1.0
C      1  0.5551890000000  0.4966540000000  0.4628200000000 1.0
C      1  0.5091740000000  0.4796740000000  0.4270260000000 1.0
C      1  0.4527460000000  0.4039590000000  0.5453570000000 1.0
C      1  0.5636640000000  0.5467620000000  0.4619180000000 1.0
C      1  0.4266330000000  0.5020900000000  0.4965180000000 1.0
C      1  0.5138240000000  0.4296830000000  0.5764110000000 1.0
C      1  0.5846640000000  0.4816780000000  0.4201010000000 1.0
C      1  0.5387590000000  0.5409790000000  0.5222880000000 1.0
C      1  0.4591990000000  0.5181610000000  0.5238960000000 1.0
C      1  0.4655930000000  0.4607460000000  0.4023200000000 1.0
C      1  0.5557000000000  0.4510220000000  0.5529670000000 1.0
C      1  0.4721120000000  0.4129700000000  0.4272530000000 1.0
C      1  0.5883500000000  0.4385200000000  0.4963660000000 1.0
C      1  0.4140130000000  0.4641930000000  0.4621000000000 1.0
C      1  0.5671740000000  0.4263090000000  0.3744530000000 1.0
C      1  0.4188300000000  0.5270970000000  0.5731480000000 1.0
C      1  0.4563050000000  0.5521440000000  0.4786060000000 1.0
C      1  0.6213330000000  0.4639790000000  0.5287340000000 1.0
C      1  0.4840940000000  0.5870800000000  0.4365340000000 1.0
C      1  0.5616930000000  0.4228840000000  0.4981330000000 1.0
C      1  0.5677340000000  0.5749140000000  0.4438790000000 1.0
C      1  0.4069790000000  0.4990900000000  0.5310990000000 1.0
C      1  0.5324090000000  0.5632560000000  0.5891980000000 1.0
C      1  0.4360670000000  0.5713370000000  0.4852530000000 1.0
C      1  0.4139540000000  0.5575600000000  0.4958920000000 1.0
C      1  0.4411980000000  0.5798930000000  0.5432120000000 1.0
C      1  0.5797540000000  0.4991290000000  0.5317360000000 1.0
C      1  0.5528650000000  0.5329830000000  0.5737700000000 1.0
C      1  0.5065870000000  0.4233270000000  0.4514430000000 1.0
C      1  0.4962320000000  0.5183190000000  0.5090040000000 1.0
C      1  0.5291580000000  0.4031040000000  0.4604480000000 1.0
C      1  0.5208390000000  0.4872910000000  0.5943620000000 1.0
C      1  0.5480200000000  0.6081120000000  0.5114450000000 1.0
C      1  0.4595590000000  0.4794810000000  0.5488530000000 1.0
C      1  0.4922730000000  0.5681550000000  0.4851350000000 1.0
C      1  0.5065200000000  0.4323670000000  0.4209850000000 1.0
C      1  0.5922230000000  0.4549980000000  0.4679980000000 1.0
C      1  0.4487030000000  0.4475250000000  0.5129450000000 1.0
C      1  0.5339870000000  0.5086130000000  0.4391290000000 1.0
C      1  0.5982110000000  0.5446330000000  0.5040170000000 1.0
C      1  0.5313780000000  0.5338810000000  0.5981300000000 1.0
C      1  0.4648160000000  0.5130170000000  0.4523740000000 1.0
C      1  0.4960270000000  0.4636140000000  0.5186000000000 1.0
C      1  0.5285930000000  0.4868980000000  0.4061910000000 1.0
C      1  0.5201200000000  0.5730580000000  0.5593310000000 1.0
C      1  0.4696460000000  0.4720920000000  0.5977180000000 1.0
C      1  0.6093030000000  0.4922150000000  0.5208690000000 1.0
C      1  0.4698670000000  0.3872490000000  0.5317270000000 1.0
C      1  0.4279450000000  0.4361060000000  0.4508820000000 1.0
C      1  0.5503560000000  0.4215540000000  0.5264560000000 1.0
C      1  0.4269620000000  0.4797020000000  0.5506850000000 1.0
C      1  0.4924130000000  0.5445510000000  0.5621590000000 1.0
C      1  0.4167910000000  0.4559090000000  0.5172950000000 1.0
C      1  0.4698280000000  0.4797770000000  0.5232280000000 1.0
C      1  0.4310000000000  0.4864090000000  0.4337160000000 1.0
C      1  0.5120120000000  0.4781030000000  0.4594720000000 1.0
C      1  0.4792230000000  0.5486650000000  0.6089940000000 1.0
C      1  0.4774410000000  0.4463010000000  0.6054790000000 1.0
C      1  0.5618940000000  0.5265990000000  0.4374500000000 1.0
C      1  0.4528210000000  0.5280630000000  0.5736740000000 1.0
C      1  0.4835870000000  0.4000580000000  0.5098010000000 1.0
C      1  0.4747250000000  0.4414190000000  0.5330890000000 1.0
C      1  0.5570280000000  0.5882330000000  0.4668380000000 1.0
C      1  0.4541240000000  0.6023480000000  0.5221580000000 1.0
C      1  0.4574680000000  0.4851010000000  0.4119230000000 1.0
C      1  0.5074280000000  0.5720860000000  0.5157040000000 1.0
C      1  0.4635020000000  0.5038360000000  0.5952120000000 1.0
C      1  0.4080060000000  0.5277880000000  0.4624980000000 1.0
C      1  0.5320250000000  0.5449150000000  0.4742320000000 1.0
C      1  0.4673260000000  0.4278810000000  0.5616690000000 1.0
C      1  0.5438940000000  0.4418190000000  0.4794830000000 1.0
C      1  0.5007120000000  0.5119590000000  0.4320420000000 1.0
C      1  0.5307010000000  0.5195210000000  0.4067820000000 1.0
C      1  0.5188430000000  0.5673390000000  0.4438610000000 1.0
C      1  0.5276930000000  0.4697130000000  0.5194580000000 1.0
C      1  0.5481270000000  0.4951580000000  0.5208090000000 1.0
C      1  0.4478890000000  0.5539320000000  0.4398060000000 1.0
C      1  0.5737860000000  0.4616170000000  0.4063320000000 1.0
C      1  0.5929190000000  0.4886830000000  0.4726950000000 1.0
C      1  0.5218970000000  0.4536430000000  0.5573630000000 1.0
C      1  0.5823930000000  0.5012470000000  0.4435410000000 1.0
C      1  0.5253370000000  0.6083600000000  0.4860330000000 1.0
C      1  0.3902720000000  0.5098420000000  0.4821780000000 1.0
C      1  0.4508820000000  0.5378720000000  0.4124080000000 1.0
C      1  0.4791070000000  0.4838530000000  0.4528980000000 1.0
C      1  0.4775890000000  0.4769610000000  0.5693070000000 1.0
C      1  0.6025650000000  0.4440080000000  0.5258830000000 1.0
C      1  0.5481510000000  0.4022460000000  0.4764710000000 1.0
C      1  0.4191490000000  0.4250780000000  0.4777770000000 1.0
C      1  0.5154560000000  0.4472580000000  0.4689930000000 1.0
C      1  0.4418910000000  0.4577690000000  0.4812100000000 1.0
C      1  0.4982570000000  0.4238580000000  0.5194670000000 1.0
C      1  0.4899570000000  0.5182790000000  0.4698210000000 1.0
C      1  0.4858220000000  0.5207440000000  0.6083040000000 1.0
C      1  0.5061060000000  0.5965530000000  0.5471840000000 1.0
C      1  0.4687200000000  0.5297140000000  0.4932580000000 1.0
C      1  0.5744640000000  0.4966320000000  0.5648060000000 1.0
C      1  0.5638580000000  0.4708420000000  0.5762680000000 1.0
C      1  0.5559940000000  0.4179450000000  0.5570340000000 1.0
C      1  0.4918780000000  0.4581280000000  0.4873230000000 1.0
C      1  0.4302970000000  0.5192520000000  0.5420050000000 1.0
C      1  0.4791150000000  0.5701620000000  0.5346350000000 1.0
C      1  0.5035570000000  0.5781240000000  0.4156510000000 1.0
C      1  0.5683760000000  0.5379560000000  0.4907710000000 1.0
C      1  0.5719410000000  0.4560110000000  0.5280360000000 1.0
C      1  0.5217870000000  0.4990740000000  0.4844910000000 1.0
C      1  0.4352460000000  0.5496890000000  0.5287630000000 1.0
C      1  0.5530270000000  0.5645100000000  0.5618160000000 1.0
C      1  0.4754750000000  0.5630310000000  0.4557060000000 1.0
C      1  0.4535250000000  0.4941250000000  0.5031770000000 1.0
C      1  0.5092980000000  0.5901050000000  0.4672580000000 1.0
C      1  0.5077050000000  0.4797010000000  0.5668150000000 1.0
C      1  0.5144480000000  0.5077890000000  0.5551680000000 1.0
C      1  0.4362500000000  0.4980680000000  0.5753980000000 1.0
C      1  0.4518600000000  0.4681510000000  0.4507240000000 1.0
C      1  0.5330090000000  0.4354110000000  0.4069300000000 1.0
C      1  0.4362050000000  0.4322700000000  0.5681050000000 1.0
C      1  0.5097210000000  0.5367310000000  0.4536790000000 1.0
C      1  0.5253860000000  0.5276880000000  0.4987450000000 1.0
C      1  0.4766510000000  0.5618480000000  0.5839540000000 1.0
C      1  0.5966320000000  0.5111950000000  0.4975700000000 1.0
C      1  0.4751190000000  0.5141260000000  0.4102470000000 1.0
C      1  0.4866910000000  0.4295530000000  0.5841880000000 1.0
C      1  0.4744600000000  0.6004530000000  0.5495100000000 1.0
C      1  0.4385850000000  0.4131530000000  0.4952710000000 1.0
C      1  0.4903580000000  0.4908870000000  0.4902740000000 1.0
C      1  0.4888460000000  0.5198200000000  0.5394070000000 1.0
C      1  0.4010630000000  0.4425340000000  0.4924810000000 1.0
C      1  0.4776120000000  0.4348050000000  0.4033040000000 1.0
C      1  0.5928260000000  0.5622060000000  0.5250570000000 1.0
C      1  0.4088520000000  0.4762720000000  0.4929000000000 1.0
C      1  0.5159620000000  0.6045470000000  0.5185910000000 1.0
C      1  0.4333810000000  0.4211230000000  0.5279300000000 1.0
C      1  0.4512650000000  0.6003220000000  0.4881100000000 1.0
C      1  0.5675250000000  0.5299460000000  0.5241930000000 1.0
C      1  0.5628760000000  0.5057260000000  0.4927900000000 1.0
END
