TITL C-2778437-8639-1468 -0.00954024972497889 125000 -1146.02091484135 0 0 200 (C1) n - 1
REM
REM in /home/nfs/bkarasulu/CARBON/AIRSS/Generating-Clusters/REBO/Only-C1/SD-CG/HFTN-CG
REM
REM
REM
REM
REM
REM ./C.cell (11c1c37f851c82e70ff6c80c92926a4b)
REM
REM compiler GCC version 9.2.1 20190827 (Red Hat 9.2.1-1)
REM options -cpp -mtune=generic -march=x86-64 -g -O0 -fpre-include=/usr/include/finclude/math-vector-fortran.h
REM seed -1678838620 -313684218 1869256641 -840520479 1874948922 743649911 -1937923607 -706346522 329994869 1365573890 -1374058307 -978687531 -1435948553 -1190061358 1548853729 -1304764291 246641177 2028569062 -1745479711 803395215 -1194240504 -1113786845 -289204955 1341221331 -966529156 825449014 -172648151 -2136509753 -358486712 -812605729 1157123508 -826080208 -1004931362
REM
CELL 1.54180   50.00000   50.00000   50.00000   90.00000   90.00000   90.00000
LATT -1
SFAC C  
C      1  0.5212410000000  0.4237310000000  0.4962440000000 1.0
C      1  0.4240230000000  0.5358890000000  0.5199190000000 1.0
C      1  0.6044670000000  0.5191620000000  0.4825430000000 1.0
C      1  0.5056270000000  0.5106930000000  0.5554120000000 1.0
C      1  0.5013140000000  0.6045550000000  0.5417760000000 1.0
C      1  0.4502810000000  0.5448670000000  0.5881810000000 1.0
C      1  0.4016310000000  0.4624160000000  0.4924260000000 1.0
C      1  0.4191970000000  0.4589510000000  0.5601700000000 1.0
C      1  0.5444040000000  0.4516920000000  0.4795690000000 1.0
C      1  0.5725060000000  0.4804280000000  0.4757940000000 1.0
C      1  0.4278420000000  0.5911850000000  0.4818810000000 1.0
C      1  0.5717390000000  0.4269270000000  0.5237950000000 1.0
C      1  0.4753020000000  0.3914820000000  0.4960370000000 1.0
C      1  0.5103340000000  0.5060590000000  0.4359420000000 1.0
C      1  0.4743270000000  0.5640940000000  0.5628700000000 1.0
C      1  0.4745070000000  0.4408200000000  0.4527760000000 1.0
C      1  0.5820180000000  0.4532450000000  0.4579840000000 1.0
C      1  0.5036780000000  0.3821140000000  0.5436920000000 1.0
C      1  0.4294750000000  0.5850500000000  0.5423960000000 1.0
C      1  0.5073470000000  0.5504970000000  0.5028460000000 1.0
C      1  0.5414880000000  0.5284040000000  0.5943970000000 1.0
C      1  0.5386650000000  0.4301230000000  0.4550190000000 1.0
C      1  0.4500600000000  0.4092740000000  0.4506930000000 1.0
C      1  0.5988170000000  0.5064830000000  0.5362190000000 1.0
C      1  0.6038200000000  0.4974250000000  0.5038060000000 1.0
C      1  0.5964760000000  0.4927950000000  0.4277030000000 1.0
C      1  0.4544650000000  0.5993150000000  0.4632530000000 1.0
C      1  0.4446260000000  0.5432620000000  0.4186040000000 1.0
C      1  0.5627130000000  0.4968830000000  0.5035110000000 1.0
C      1  0.5383220000000  0.5837760000000  0.4247430000000 1.0
C      1  0.4762950000000  0.4157210000000  0.5573690000000 1.0
C      1  0.4015520000000  0.5773250000000  0.4983770000000 1.0
C      1  0.5460170000000  0.5915190000000  0.5206470000000 1.0
C      1  0.5262900000000  0.3846790000000  0.4989090000000 1.0
C      1  0.6058730000000  0.4748860000000  0.4546920000000 1.0
C      1  0.5293670000000  0.5583750000000  0.5911840000000 1.0
C      1  0.4637640000000  0.5033760000000  0.5482490000000 1.0
C      1  0.6059700000000  0.5256280000000  0.4266040000000 1.0
C      1  0.4476390000000  0.4538210000000  0.4624310000000 1.0
C      1  0.4221690000000  0.4965040000000  0.4282720000000 1.0
C      1  0.4371530000000  0.4986540000000  0.5894320000000 1.0
C      1  0.4151630000000  0.5076580000000  0.5650520000000 1.0
C      1  0.4688350000000  0.5413310000000  0.4996140000000 1.0
C      1  0.5823530000000  0.5462220000000  0.5013590000000 1.0
C      1  0.4414890000000  0.5689680000000  0.5652930000000 1.0
C      1  0.5159510000000  0.4522580000000  0.5919340000000 1.0
C      1  0.4288260000000  0.4198660000000  0.4717340000000 1.0
C      1  0.4541990000000  0.4285410000000  0.5736970000000 1.0
C      1  0.5179970000000  0.4449440000000  0.5188490000000 1.0
C      1  0.5075730000000  0.3951310000000  0.4729500000000 1.0
C      1  0.4161960000000  0.4326760000000  0.5007060000000 1.0
C      1  0.5396850000000  0.4835640000000  0.4737470000000 1.0
C      1  0.5329810000000  0.6073090000000  0.4864310000000 1.0
C      1  0.5057470000000  0.4808570000000  0.5232620000000 1.0
C      1  0.5966230000000  0.4449230000000  0.5090940000000 1.0
C      1  0.5177000000000  0.6097380000000  0.5158630000000 1.0
C      1  0.5822380000000  0.4311610000000  0.4826850000000 1.0
C      1  0.5732390000000  0.5240720000000  0.4357730000000 1.0
C      1  0.5694900000000  0.4399740000000  0.4316990000000 1.0
C      1  0.4560420000000  0.4181360000000  0.4892360000000 1.0
C      1  0.5005410000000  0.4324020000000  0.5600270000000 1.0
C      1  0.4612430000000  0.5112170000000  0.4924480000000 1.0
C      1  0.5211310000000  0.4574150000000  0.4451850000000 1.0
C      1  0.4521090000000  0.4534950000000  0.4178920000000 1.0
C      1  0.4909420000000  0.5216110000000  0.6118610000000 1.0
C      1  0.5418700000000  0.4096920000000  0.5433650000000 1.0
C      1  0.4891960000000  0.4878650000000  0.6110580000000 1.0
C      1  0.5753640000000  0.5278400000000  0.4667520000000 1.0
C      1  0.5524290000000  0.4703710000000  0.5990980000000 1.0
C      1  0.4689490000000  0.4701780000000  0.5487960000000 1.0
C      1  0.4369420000000  0.4192200000000  0.5242380000000 1.0
C      1  0.5034370000000  0.5362090000000  0.5860350000000 1.0
C      1  0.4730200000000  0.4710090000000  0.4371540000000 1.0
C      1  0.4632810000000  0.5176500000000  0.5932940000000 1.0
C      1  0.4875690000000  0.4656790000000  0.5778880000000 1.0
C      1  0.4093770000000  0.5148270000000  0.5039830000000 1.0
C      1  0.5547710000000  0.5410990000000  0.5461790000000 1.0
C      1  0.4472830000000  0.5792040000000  0.5146460000000 1.0
C      1  0.5422230000000  0.4480910000000  0.4198880000000 1.0
C      1  0.4747430000000  0.5481540000000  0.4689950000000 1.0
C      1  0.4307520000000  0.4662870000000  0.5870070000000 1.0
C      1  0.5088790000000  0.6025130000000  0.4643000000000 1.0
C      1  0.5251650000000  0.5081780000000  0.4633330000000 1.0
C      1  0.5177110000000  0.4195940000000  0.5825420000000 1.0
C      1  0.4671570000000  0.4082760000000  0.5311550000000 1.0
C      1  0.5558510000000  0.4701370000000  0.5384510000000 1.0
C      1  0.5361560000000  0.5054100000000  0.4055240000000 1.0
C      1  0.5456040000000  0.5545430000000  0.4673140000000 1.0
C      1  0.5228380000000  0.5381270000000  0.5575980000000 1.0
C      1  0.4773720000000  0.6179090000000  0.5444320000000 1.0
C      1  0.4611450000000  0.4418500000000  0.5018510000000 1.0
C      1  0.6060010000000  0.5395030000000  0.5327820000000 1.0
C      1  0.4562500000000  0.5899820000000  0.4357790000000 1.0
C      1  0.5459260000000  0.5027150000000  0.5396650000000 1.0
C      1  0.5521650000000  0.3995560000000  0.5154610000000 1.0
C      1  0.5099540000000  0.5868180000000  0.4392860000000 1.0
C      1  0.4415440000000  0.5542460000000  0.5014740000000 1.0
C      1  0.5347780000000  0.5034380000000  0.5721360000000 1.0
C      1  0.4852150000000  0.6077140000000  0.5053790000000 1.0
C      1  0.4956310000000  0.4806820000000  0.3887520000000 1.0
C      1  0.4865770000000  0.5026240000000  0.4713620000000 1.0
C      1  0.5662330000000  0.4958150000000  0.4175770000000 1.0
C      1  0.4295180000000  0.5223590000000  0.4318970000000 1.0
C      1  0.4008950000000  0.5325990000000  0.4780200000000 1.0
C      1  0.3897450000000  0.4881640000000  0.5120230000000 1.0
C      1  0.4242010000000  0.5572610000000  0.4723270000000 1.0
C      1  0.5270840000000  0.5475940000000  0.4446400000000 1.0
C      1  0.5712970000000  0.4880490000000  0.5866010000000 1.0
C      1  0.5216700000000  0.5107270000000  0.6115560000000 1.0
C      1  0.4531670000000  0.4945870000000  0.5198520000000 1.0
C      1  0.5014950000000  0.4738550000000  0.4677000000000 1.0
C      1  0.4281250000000  0.4671750000000  0.4378340000000 1.0
C      1  0.5517620000000  0.4195760000000  0.4905500000000 1.0
C      1  0.6011680000000  0.4733090000000  0.5277590000000 1.0
C      1  0.4884490000000  0.4997390000000  0.5788150000000 1.0
C      1  0.4407740000000  0.5280290000000  0.5427270000000 1.0
C      1  0.6022440000000  0.4693610000000  0.4881420000000 1.0
C      1  0.4414590000000  0.5058940000000  0.4662280000000 1.0
C      1  0.4677480000000  0.4763590000000  0.3980080000000 1.0
C      1  0.3931430000000  0.5051190000000  0.5413620000000 1.0
C      1  0.4502140000000  0.4230510000000  0.4262400000000 1.0
C      1  0.5221910000000  0.4787670000000  0.6109160000000 1.0
C      1  0.4721200000000  0.5349190000000  0.5491820000000 1.0
C      1  0.5447390000000  0.5306000000000  0.4216540000000 1.0
C      1  0.5693160000000  0.5264220000000  0.5182490000000 1.0
C      1  0.4464600000000  0.5376600000000  0.4579830000000 1.0
C      1  0.5361600000000  0.5592330000000  0.5162420000000 1.0
C      1  0.5685060000000  0.4162110000000  0.4552900000000 1.0
C      1  0.5065250000000  0.5221000000000  0.4885650000000 1.0
C      1  0.5579320000000  0.5760830000000  0.5465680000000 1.0
C      1  0.5019630000000  0.4765960000000  0.4280320000000 1.0
C      1  0.5064810000000  0.5131080000000  0.5214820000000 1.0
C      1  0.4981350000000  0.4555810000000  0.4933340000000 1.0
C      1  0.5187000000000  0.4608680000000  0.3890250000000 1.0
C      1  0.4825350000000  0.5197330000000  0.4421770000000 1.0
C      1  0.3859720000000  0.5600970000000  0.4835680000000 1.0
C      1  0.4748630000000  0.3955100000000  0.4621640000000 1.0
C      1  0.4964850000000  0.4279500000000  0.4731260000000 1.0
C      1  0.4781050000000  0.4777780000000  0.5050670000000 1.0
C      1  0.4261990000000  0.6046010000000  0.5134440000000 1.0
C      1  0.4649000000000  0.5044420000000  0.4095210000000 1.0
C      1  0.5007020000000  0.4482160000000  0.4107230000000 1.0
C      1  0.4787480000000  0.6086470000000  0.4743160000000 1.0
C      1  0.5695820000000  0.5194330000000  0.5854230000000 1.0
C      1  0.5840640000000  0.5565040000000  0.5395600000000 1.0
C      1  0.5349670000000  0.4727950000000  0.5634730000000 1.0
C      1  0.4033810000000  0.4678990000000  0.5318780000000 1.0
C      1  0.4592150000000  0.4767770000000  0.6037780000000 1.0
C      1  0.6156090000000  0.5451310000000  0.5005850000000 1.0
C      1  0.5710630000000  0.5659000000000  0.4552490000000 1.0
C      1  0.4249460000000  0.5391790000000  0.5685700000000 1.0
C      1  0.4866940000000  0.5519800000000  0.5268150000000 1.0
C      1  0.4645660000000  0.4466430000000  0.5926800000000 1.0
C      1  0.5580120000000  0.4544820000000  0.5090620000000 1.0
C      1  0.5057380000000  0.5062960000000  0.4016130000000 1.0
C      1  0.4729870000000  0.5459380000000  0.4292470000000 1.0
C      1  0.5216110000000  0.3984400000000  0.5597150000000 1.0
C      1  0.4132520000000  0.5684750000000  0.4426330000000 1.0
C      1  0.4970680000000  0.5689850000000  0.5863350000000 1.0
C      1  0.5684160000000  0.4365950000000  0.5562240000000 1.0
C      1  0.5457110000000  0.5255280000000  0.4814630000000 1.0
C      1  0.5352420000000  0.5737850000000  0.4865890000000 1.0
C      1  0.5229410000000  0.4210930000000  0.4286030000000 1.0
C      1  0.4809230000000  0.4455430000000  0.5279240000000 1.0
C      1  0.4581920000000  0.6107550000000  0.5212910000000 1.0
C      1  0.5470510000000  0.4453780000000  0.5790160000000 1.0
C      1  0.4144350000000  0.4496980000000  0.4639900000000 1.0
C      1  0.4105230000000  0.5661970000000  0.5234750000000 1.0
C      1  0.6118000000000  0.5076190000000  0.4548880000000 1.0
C      1  0.4118640000000  0.4371730000000  0.5346290000000 1.0
C      1  0.5366660000000  0.5249860000000  0.5145580000000 1.0
C      1  0.5013080000000  0.3976910000000  0.4405250000000 1.0
C      1  0.5943480000000  0.5565940000000  0.4731900000000 1.0
C      1  0.4313760000000  0.5803760000000  0.4257880000000 1.0
C      1  0.5245370000000  0.5565580000000  0.4125980000000 1.0
C      1  0.4246360000000  0.4854240000000  0.4961220000000 1.0
C      1  0.4898320000000  0.4263550000000  0.4293560000000 1.0
C      1  0.5640600000000  0.5822670000000  0.4342270000000 1.0
C      1  0.4594270000000  0.4981150000000  0.4424820000000 1.0
C      1  0.4943930000000  0.5578040000000  0.4061280000000 1.0
C      1  0.5082280000000  0.4645690000000  0.5514040000000 1.0
C      1  0.5381260000000  0.4405940000000  0.5403950000000 1.0
C      1  0.5026320000000  0.5819430000000  0.4913880000000 1.0
C      1  0.4911330000000  0.4174150000000  0.5110010000000 1.0
C      1  0.4812630000000  0.5842900000000  0.4231260000000 1.0
C      1  0.3947310000000  0.4868480000000  0.4557150000000 1.0
C      1  0.5634150000000  0.6031050000000  0.4971220000000 1.0
C      1  0.5015120000000  0.5751990000000  0.5472070000000 1.0
C      1  0.4496640000000  0.4693160000000  0.4894220000000 1.0
C      1  0.4968600000000  0.5576270000000  0.4485220000000 1.0
C      1  0.5338250000000  0.4791550000000  0.5066210000000 1.0
C      1  0.5748540000000  0.5037210000000  0.5562420000000 1.0
C      1  0.4505530000000  0.4424710000000  0.5431720000000 1.0
C      1  0.4283590000000  0.4866030000000  0.5416960000000 1.0
C      1  0.5911990000000  0.4547490000000  0.5490460000000 1.0
C      1  0.5457960000000  0.4736340000000  0.4017800000000 1.0
C      1  0.5302390000000  0.5695060000000  0.5599330000000 1.0
C      1  0.4836400000000  0.5276480000000  0.3960770000000 1.0
C      1  0.5007780000000  0.3790950000000  0.5149750000000 1.0
C      1  0.4104140000000  0.5056350000000  0.4652750000000 1.0
END
