TITL C-2778427-5640-198 0.00444741839714556 125000 -757.281549572925 0 0 134 (C1) n - 1
REM
REM in /home/nfs/bkarasulu/CARBON/AIRSS/Generating-Clusters/REBO/Only-C1/SD-CG/HFTN-CG
REM
REM
REM
REM
REM
REM ./C.cell (11c1c37f851c82e70ff6c80c92926a4b)
REM
REM compiler GCC version 9.2.1 20190827 (Red Hat 9.2.1-1)
REM options -cpp -mtune=generic -march=x86-64 -g -O0 -fpre-include=/usr/include/finclude/math-vector-fortran.h
REM seed -1737447489 106754491 -677116289 482579143 1156872224 1626647498 -1095648785 -794158560 1610858209 487365690 -1931567910 -1850267055 -1151682514 -18020958 -124774242 1866614 215319920 1411251969 176546770 2089067565 -333342557 -809530781 -1209745869 1591622619 -610389324 -2007473178 -99138404 -151298505 1364157551 215067120 -1967366566 1733141844 558491500
REM
CELL 1.54180   50.00000   50.00000   50.00000   90.00000   90.00000   90.00000
LATT -1
SFAC C  
C      1  0.5008780000000  0.4177640000000  0.4419180000000 1.0
C      1  0.5119000000000  0.4050720000000  0.5182540000000 1.0
C      1  0.4284050000000  0.4578580000000  0.4795710000000 1.0
C      1  0.5043650000000  0.3943110000000  0.4649340000000 1.0
C      1  0.4813580000000  0.5106440000000  0.4077560000000 1.0
C      1  0.5492750000000  0.5312700000000  0.5814340000000 1.0
C      1  0.4948670000000  0.5350550000000  0.5932400000000 1.0
C      1  0.4991770000000  0.4546740000000  0.4904540000000 1.0
C      1  0.4445110000000  0.4654590000000  0.5473310000000 1.0
C      1  0.5743720000000  0.4495620000000  0.5280780000000 1.0
C      1  0.5699950000000  0.4955540000000  0.4289510000000 1.0
C      1  0.4265190000000  0.4415750000000  0.5385290000000 1.0
C      1  0.4236230000000  0.5557530000000  0.5452090000000 1.0
C      1  0.4606080000000  0.4838960000000  0.5950470000000 1.0
C      1  0.5570730000000  0.5492180000000  0.4478070000000 1.0
C      1  0.5028160000000  0.4875080000000  0.4534660000000 1.0
C      1  0.5021930000000  0.5833240000000  0.5112150000000 1.0
C      1  0.4637200000000  0.4304500000000  0.5665150000000 1.0
C      1  0.4999430000000  0.5941010000000  0.5494430000000 1.0
C      1  0.4531180000000  0.4168450000000  0.5062660000000 1.0
C      1  0.5586830000000  0.5181520000000  0.5016690000000 1.0
C      1  0.4488550000000  0.5670650000000  0.4934170000000 1.0
C      1  0.4175750000000  0.4825040000000  0.5012140000000 1.0
C      1  0.5256680000000  0.5465330000000  0.5707590000000 1.0
C      1  0.5167100000000  0.4905490000000  0.4907970000000 1.0
C      1  0.4541610000000  0.5293770000000  0.4163880000000 1.0
C      1  0.5285660000000  0.4257390000000  0.4606870000000 1.0
C      1  0.5500150000000  0.5693650000000  0.4939090000000 1.0
C      1  0.4944760000000  0.5453800000000  0.4502670000000 1.0
C      1  0.5459680000000  0.5335220000000  0.4234400000000 1.0
C      1  0.4786920000000  0.5461070000000  0.4255990000000 1.0
C      1  0.4250390000000  0.5237300000000  0.5570410000000 1.0
C      1  0.6001000000000  0.4845790000000  0.4822270000000 1.0
C      1  0.5498970000000  0.4331150000000  0.4863680000000 1.0
C      1  0.5730340000000  0.4594630000000  0.4673190000000 1.0
C      1  0.4684610000000  0.5631000000000  0.5177080000000 1.0
C      1  0.5778870000000  0.4940880000000  0.5404010000000 1.0
C      1  0.4375200000000  0.4759570000000  0.4519910000000 1.0
C      1  0.4630690000000  0.5326440000000  0.5841010000000 1.0
C      1  0.4749920000000  0.5919760000000  0.5303610000000 1.0
C      1  0.5073470000000  0.5507020000000  0.5015030000000 1.0
C      1  0.4106270000000  0.5305240000000  0.5264080000000 1.0
C      1  0.4686100000000  0.5056980000000  0.4449620000000 1.0
C      1  0.5429600000000  0.4392830000000  0.5593160000000 1.0
C      1  0.4290290000000  0.5084490000000  0.4456930000000 1.0
C      1  0.4849490000000  0.5580090000000  0.4796810000000 1.0
C      1  0.5404540000000  0.5066770000000  0.5981120000000 1.0
C      1  0.5081920000000  0.5074580000000  0.5999490000000 1.0
C      1  0.4880460000000  0.4840390000000  0.4258910000000 1.0
C      1  0.4797370000000  0.4030680000000  0.5209250000000 1.0
C      1  0.5864660000000  0.5195840000000  0.4730770000000 1.0
C      1  0.4460430000000  0.5816600000000  0.5449900000000 1.0
C      1  0.4563400000000  0.4857160000000  0.4788270000000 1.0
C      1  0.5353490000000  0.4772190000000  0.5156920000000 1.0
C      1  0.5603880000000  0.5484430000000  0.5380440000000 1.0
C      1  0.5011510000000  0.4445920000000  0.4606660000000 1.0
C      1  0.5512200000000  0.5410370000000  0.4803540000000 1.0
C      1  0.5049710000000  0.4880910000000  0.5289280000000 1.0
C      1  0.4557600000000  0.4636760000000  0.4282630000000 1.0
C      1  0.4120950000000  0.4985070000000  0.5291650000000 1.0
C      1  0.5792900000000  0.4261930000000  0.4704410000000 1.0
C      1  0.4458550000000  0.5078060000000  0.5792270000000 1.0
C      1  0.5188540000000  0.5710190000000  0.5620830000000 1.0
C      1  0.5021660000000  0.4343380000000  0.5312830000000 1.0
C      1  0.5522090000000  0.5713380000000  0.5222120000000 1.0
C      1  0.4514050000000  0.4954260000000  0.4166750000000 1.0
C      1  0.5571320000000  0.4366790000000  0.4474150000000 1.0
C      1  0.4765240000000  0.4668130000000  0.4598810000000 1.0
C      1  0.4771980000000  0.4694350000000  0.5360070000000 1.0
C      1  0.5392750000000  0.5013260000000  0.4147240000000 1.0
C      1  0.4156430000000  0.5320500000000  0.4648360000000 1.0
C      1  0.5568840000000  0.4308060000000  0.5157090000000 1.0
C      1  0.5890490000000  0.4826260000000  0.4514430000000 1.0
C      1  0.4545630000000  0.5433520000000  0.5386150000000 1.0
C      1  0.4830280000000  0.5207120000000  0.4921520000000 1.0
C      1  0.4835970000000  0.4908830000000  0.6086630000000 1.0
C      1  0.5029880000000  0.4621940000000  0.4100740000000 1.0
C      1  0.4299920000000  0.4903900000000  0.5552760000000 1.0
C      1  0.5170130000000  0.5252160000000  0.5371190000000 1.0
C      1  0.5286600000000  0.4761440000000  0.4447680000000 1.0
C      1  0.4424020000000  0.5905670000000  0.4696230000000 1.0
C      1  0.4604260000000  0.4449860000000  0.4820560000000 1.0
C      1  0.4627650000000  0.4582960000000  0.5818200000000 1.0
C      1  0.5405350000000  0.5758890000000  0.4483410000000 1.0
C      1  0.4861840000000  0.5480490000000  0.5631610000000 1.0
C      1  0.5115020000000  0.3938390000000  0.4886380000000 1.0
C      1  0.5634020000000  0.4659290000000  0.5533450000000 1.0
C      1  0.5502560000000  0.4916260000000  0.4518080000000 1.0
C      1  0.5624760000000  0.4969160000000  0.4775760000000 1.0
C      1  0.4610420000000  0.5659340000000  0.4554020000000 1.0
C      1  0.4911930000000  0.5813320000000  0.4490280000000 1.0
C      1  0.4953210000000  0.5496980000000  0.5335770000000 1.0
C      1  0.4303050000000  0.4378420000000  0.5071450000000 1.0
C      1  0.5078670000000  0.5181070000000  0.4576490000000 1.0
C      1  0.4777090000000  0.4453980000000  0.5119280000000 1.0
C      1  0.4434070000000  0.4683570000000  0.5146760000000 1.0
C      1  0.4922830000000  0.4217270000000  0.5601080000000 1.0
C      1  0.5189310000000  0.5489060000000  0.4175880000000 1.0
C      1  0.5223170000000  0.5240080000000  0.4860980000000 1.0
C      1  0.5131910000000  0.4417310000000  0.5727000000000 1.0
C      1  0.5623140000000  0.4715820000000  0.4970430000000 1.0
C      1  0.4465100000000  0.5362150000000  0.4894620000000 1.0
C      1  0.5864800000000  0.5007840000000  0.5092080000000 1.0
C      1  0.5101320000000  0.5172550000000  0.4234640000000 1.0
C      1  0.4730090000000  0.5897240000000  0.4847800000000 1.0
C      1  0.5359650000000  0.5856190000000  0.4745230000000 1.0
C      1  0.4841890000000  0.4814140000000  0.4959780000000 1.0
C      1  0.4895910000000  0.4609000000000  0.5656310000000 1.0
C      1  0.5445120000000  0.5256240000000  0.5264600000000 1.0
C      1  0.5265150000000  0.4748360000000  0.4001580000000 1.0
C      1  0.4143290000000  0.5361160000000  0.4973180000000 1.0
C      1  0.4407400000000  0.5413030000000  0.4436880000000 1.0
C      1  0.5170250000000  0.5729650000000  0.4322360000000 1.0
C      1  0.5383160000000  0.4175010000000  0.5334810000000 1.0
C      1  0.5527020000000  0.4935230000000  0.5698630000000 1.0
C      1  0.4618690000000  0.4943230000000  0.5172930000000 1.0
C      1  0.5248480000000  0.4548190000000  0.5369700000000 1.0
C      1  0.5348780000000  0.4529410000000  0.4323670000000 1.0
C      1  0.5279910000000  0.5846980000000  0.5330150000000 1.0
C      1  0.5162100000000  0.5137170000000  0.5674290000000 1.0
C      1  0.5257080000000  0.4848000000000  0.5535410000000 1.0
C      1  0.5296190000000  0.4599050000000  0.4811340000000 1.0
C      1  0.4553690000000  0.5602370000000  0.5684190000000 1.0
C      1  0.4648760000000  0.4293340000000  0.4538690000000 1.0
C      1  0.4269500000000  0.5029530000000  0.4792110000000 1.0
C      1  0.4666290000000  0.5222780000000  0.4672450000000 1.0
C      1  0.5851240000000  0.5403980000000  0.4591960000000 1.0
C      1  0.4581910000000  0.4168640000000  0.5399860000000 1.0
C      1  0.5056680000000  0.5919970000000  0.4783680000000 1.0
C      1  0.4814420000000  0.4413430000000  0.4263860000000 1.0
C      1  0.4958980000000  0.5147970000000  0.5146050000000 1.0
C      1  0.5687520000000  0.5214020000000  0.5573370000000 1.0
C      1  0.5928200000000  0.4670790000000  0.5104920000000 1.0
C      1  0.4521720000000  0.5216040000000  0.5174470000000 1.0
END
