TITL C-2778434-4341-565 -0.00172334707789927 125000 -1142.56679314213 0 0 195 (C1) n - 1
REM
REM in /home/nfs/bkarasulu/CARBON/AIRSS/Generating-Clusters/REBO/Only-C1/SD-CG/HFTN-CG
REM
REM
REM
REM
REM
REM ./C.cell (11c1c37f851c82e70ff6c80c92926a4b)
REM
REM compiler GCC version 9.2.1 20190827 (Red Hat 9.2.1-1)
REM options -cpp -mtune=generic -march=x86-64 -g -O0 -fpre-include=/usr/include/finclude/math-vector-fortran.h
REM seed -1380517915 -1111125118 1973244523 -6052631 -1051278640 1624345467 -55311789 -152263869 2021274995 833427138 -491395373 -1077265235 435162643 499794816 1354953883 483301590 -495876234 850927767 707895237 -1344988408 733128703 -533655447 1556848344 1513457584 -416001257 147221709 416441858 891685512 366618101 1590335984 -1430405790 -1982962898 384250773
REM
CELL 1.54180   50.00000   50.00000   50.00000   90.00000   90.00000   90.00000
LATT -1
SFAC C  
C      1  0.5289360000000  0.5360270000000  0.6046950000000 1.0
C      1  0.5194230000000  0.5619950000000  0.4244200000000 1.0
C      1  0.3893790000000  0.4949780000000  0.4358140000000 1.0
C      1  0.4199480000000  0.5414740000000  0.4248220000000 1.0
C      1  0.4365470000000  0.5273680000000  0.5731600000000 1.0
C      1  0.5412560000000  0.4367350000000  0.5761270000000 1.0
C      1  0.4726650000000  0.4063170000000  0.5029850000000 1.0
C      1  0.4528840000000  0.3918070000000  0.5159340000000 1.0
C      1  0.4442090000000  0.4107550000000  0.4630590000000 1.0
C      1  0.5578800000000  0.5545960000000  0.4844350000000 1.0
C      1  0.5473100000000  0.4363860000000  0.4824960000000 1.0
C      1  0.4905570000000  0.4817490000000  0.5349830000000 1.0
C      1  0.4499540000000  0.5395490000000  0.5476330000000 1.0
C      1  0.5869080000000  0.4952520000000  0.4424310000000 1.0
C      1  0.4932310000000  0.4388840000000  0.5830830000000 1.0
C      1  0.5404730000000  0.5197190000000  0.4463080000000 1.0
C      1  0.4492580000000  0.4635120000000  0.5656980000000 1.0
C      1  0.5631060000000  0.5703340000000  0.5107420000000 1.0
C      1  0.5036100000000  0.5504390000000  0.6070320000000 1.0
C      1  0.5481430000000  0.5510530000000  0.5874510000000 1.0
C      1  0.4389880000000  0.4084350000000  0.5495120000000 1.0
C      1  0.5459600000000  0.4714580000000  0.5175100000000 1.0
C      1  0.5432380000000  0.4055980000000  0.5074030000000 1.0
C      1  0.4891480000000  0.5297830000000  0.5652250000000 1.0
C      1  0.3844890000000  0.4917680000000  0.4897440000000 1.0
C      1  0.5171280000000  0.5419810000000  0.4490550000000 1.0
C      1  0.5478210000000  0.4909400000000  0.4067560000000 1.0
C      1  0.5205090000000  0.4580650000000  0.4381550000000 1.0
C      1  0.5211400000000  0.4716130000000  0.5465590000000 1.0
C      1  0.5201360000000  0.5695140000000  0.4695740000000 1.0
C      1  0.5825810000000  0.4247330000000  0.4552330000000 1.0
C      1  0.4230750000000  0.4353770000000  0.5138480000000 1.0
C      1  0.4716100000000  0.4070020000000  0.5502360000000 1.0
C      1  0.5226230000000  0.4705080000000  0.4005170000000 1.0
C      1  0.5762780000000  0.4980270000000  0.5274910000000 1.0
C      1  0.5134810000000  0.4043640000000  0.5453930000000 1.0
C      1  0.5077040000000  0.4844240000000  0.6055320000000 1.0
C      1  0.4877260000000  0.4337950000000  0.5532810000000 1.0
C      1  0.4795240000000  0.5206840000000  0.4296000000000 1.0
C      1  0.5723790000000  0.4554780000000  0.5081280000000 1.0
C      1  0.5640730000000  0.4802180000000  0.4305570000000 1.0
C      1  0.4477360000000  0.4548710000000  0.4128090000000 1.0
C      1  0.4409970000000  0.5564850000000  0.5216970000000 1.0
C      1  0.4324260000000  0.4955650000000  0.3906560000000 1.0
C      1  0.5964960000000  0.5690350000000  0.5156700000000 1.0
C      1  0.4691800000000  0.4705220000000  0.4249850000000 1.0
C      1  0.4632070000000  0.5442580000000  0.4363700000000 1.0
C      1  0.5010350000000  0.4304090000000  0.4434600000000 1.0
C      1  0.4569480000000  0.5716270000000  0.5549710000000 1.0
C      1  0.5464110000000  0.5246340000000  0.5287380000000 1.0
C      1  0.4262490000000  0.5227060000000  0.4952100000000 1.0
C      1  0.4971980000000  0.6157890000000  0.4744570000000 1.0
C      1  0.5338500000000  0.4777680000000  0.5765140000000 1.0
C      1  0.4421020000000  0.4638970000000  0.4939040000000 1.0
C      1  0.4795520000000  0.6040960000000  0.5272390000000 1.0
C      1  0.5532320000000  0.4057370000000  0.4759530000000 1.0
C      1  0.5399880000000  0.4158510000000  0.4129850000000 1.0
C      1  0.5521040000000  0.4972940000000  0.5469910000000 1.0
C      1  0.4841520000000  0.5888210000000  0.4340640000000 1.0
C      1  0.5059480000000  0.6044200000000  0.5474920000000 1.0
C      1  0.5071320000000  0.5961100000000  0.4527090000000 1.0
C      1  0.4479650000000  0.5475640000000  0.4064730000000 1.0
C      1  0.4709830000000  0.5649430000000  0.4895710000000 1.0
C      1  0.4147260000000  0.4450660000000  0.4844420000000 1.0
C      1  0.3978090000000  0.5330070000000  0.4587200000000 1.0
C      1  0.5920870000000  0.5232710000000  0.4286780000000 1.0
C      1  0.4118130000000  0.5132880000000  0.4705400000000 1.0
C      1  0.4924170000000  0.5743440000000  0.5893720000000 1.0
C      1  0.3891390000000  0.5446340000000  0.4983850000000 1.0
C      1  0.4177760000000  0.4734890000000  0.5437430000000 1.0
C      1  0.3832430000000  0.4653250000000  0.5789600000000 1.0
C      1  0.4974600000000  0.5441030000000  0.4901880000000 1.0
C      1  0.5789170000000  0.5547520000000  0.4317560000000 1.0
C      1  0.4700990000000  0.4584230000000  0.5410220000000 1.0
C      1  0.4414980000000  0.5111830000000  0.4393960000000 1.0
C      1  0.4729800000000  0.4649400000000  0.4864250000000 1.0
C      1  0.4308680000000  0.5920840000000  0.4855080000000 1.0
C      1  0.5744150000000  0.5242120000000  0.5089220000000 1.0
C      1  0.5425910000000  0.4470370000000  0.4161580000000 1.0
C      1  0.5394530000000  0.5533130000000  0.4001840000000 1.0
C      1  0.4414780000000  0.4586020000000  0.5264730000000 1.0
C      1  0.4932050000000  0.6119670000000  0.5006750000000 1.0
C      1  0.4857190000000  0.3819780000000  0.4740800000000 1.0
C      1  0.5899550000000  0.4320420000000  0.4836260000000 1.0
C      1  0.5375500000000  0.4174360000000  0.5541190000000 1.0
C      1  0.5178610000000  0.4541230000000  0.5930790000000 1.0
C      1  0.5641040000000  0.5267970000000  0.4656880000000 1.0
C      1  0.3798260000000  0.4816290000000  0.4579360000000 1.0
C      1  0.4964030000000  0.4587640000000  0.4159330000000 1.0
C      1  0.4399120000000  0.4967440000000  0.5675460000000 1.0
C      1  0.4823790000000  0.4923860000000  0.4730770000000 1.0
C      1  0.5037760000000  0.4070210000000  0.5126790000000 1.0
C      1  0.5147820000000  0.4997060000000  0.5611720000000 1.0
C      1  0.6076970000000  0.4762100000000  0.4518760000000 1.0
C      1  0.5174730000000  0.5041640000000  0.3969890000000 1.0
C      1  0.5572320000000  0.5718780000000  0.4182420000000 1.0
C      1  0.3888730000000  0.4594710000000  0.4797720000000 1.0
C      1  0.4944620000000  0.5469440000000  0.5376760000000 1.0
C      1  0.5431770000000  0.5945300000000  0.4697910000000 1.0
C      1  0.5177800000000  0.5675130000000  0.5040770000000 1.0
C      1  0.4425390000000  0.5153760000000  0.4055940000000 1.0
C      1  0.4074710000000  0.5384850000000  0.5695720000000 1.0
C      1  0.4883570000000  0.3846890000000  0.5326820000000 1.0
C      1  0.4159210000000  0.5031110000000  0.5173330000000 1.0
C      1  0.5814440000000  0.5009040000000  0.4753650000000 1.0
C      1  0.4639020000000  0.5708860000000  0.5830550000000 1.0
C      1  0.5159780000000  0.4479300000000  0.4759250000000 1.0
C      1  0.4204840000000  0.4237190000000  0.4632890000000 1.0
C      1  0.4987620000000  0.4905810000000  0.5030650000000 1.0
C      1  0.3906590000000  0.5151210000000  0.5322170000000 1.0
C      1  0.4218870000000  0.4132370000000  0.5292890000000 1.0
C      1  0.4518000000000  0.4297770000000  0.5702300000000 1.0
C      1  0.4751660000000  0.5556030000000  0.5213380000000 1.0
C      1  0.4563080000000  0.5864930000000  0.4753130000000 1.0
C      1  0.5717060000000  0.5382760000000  0.5677410000000 1.0
C      1  0.5781970000000  0.4736730000000  0.5879430000000 1.0
C      1  0.5956660000000  0.5273760000000  0.5464830000000 1.0
C      1  0.5292310000000  0.4360590000000  0.5112730000000 1.0
C      1  0.5382400000000  0.3963160000000  0.4282640000000 1.0
C      1  0.4809750000000  0.4878410000000  0.5947660000000 1.0
C      1  0.5992360000000  0.4643720000000  0.4800410000000 1.0
C      1  0.4096270000000  0.5115620000000  0.4272780000000 1.0
C      1  0.4322460000000  0.4765740000000  0.5926650000000 1.0
C      1  0.5362640000000  0.4729370000000  0.4717030000000 1.0
C      1  0.5223460000000  0.5302310000000  0.5656710000000 1.0
C      1  0.5008110000000  0.4002790000000  0.4592910000000 1.0
C      1  0.3812950000000  0.5178000000000  0.5038670000000 1.0
C      1  0.6034190000000  0.5388000000000  0.5094310000000 1.0
C      1  0.5279170000000  0.5060760000000  0.6056050000000 1.0
C      1  0.6000480000000  0.4841970000000  0.5743830000000 1.0
C      1  0.5451870000000  0.5228530000000  0.3952620000000 1.0
C      1  0.4524000000000  0.5439780000000  0.5943820000000 1.0
C      1  0.5706710000000  0.4860690000000  0.4975190000000 1.0
C      1  0.6106030000000  0.4868970000000  0.4987510000000 1.0
C      1  0.5464950000000  0.5952030000000  0.5038470000000 1.0
C      1  0.4673090000000  0.4424630000000  0.5959040000000 1.0
C      1  0.4929400000000  0.3711090000000  0.5015650000000 1.0
C      1  0.5369160000000  0.5878070000000  0.4382960000000 1.0
C      1  0.5294610000000  0.4884500000000  0.4974010000000 1.0
C      1  0.4984790000000  0.4507160000000  0.5041030000000 1.0
C      1  0.4557350000000  0.5912510000000  0.5342040000000 1.0
C      1  0.4837770000000  0.4391810000000  0.4691050000000 1.0
C      1  0.4610100000000  0.4691570000000  0.6033010000000 1.0
C      1  0.4181200000000  0.4846800000000  0.4886680000000 1.0
C      1  0.6085400000000  0.5180920000000  0.4853340000000 1.0
C      1  0.5637830000000  0.4651230000000  0.5458820000000 1.0
C      1  0.5128060000000  0.6299070000000  0.5571630000000 1.0
C      1  0.4077360000000  0.5599400000000  0.5215150000000 1.0
C      1  0.5688580000000  0.4483630000000  0.4363400000000 1.0
C      1  0.5561800000000  0.4936280000000  0.5956680000000 1.0
C      1  0.5645260000000  0.4524470000000  0.5733950000000 1.0
C      1  0.4600040000000  0.5908070000000  0.4477190000000 1.0
C      1  0.4922920000000  0.5697010000000  0.4152290000000 1.0
C      1  0.5301520000000  0.5622450000000  0.5613130000000 1.0
C      1  0.4849940000000  0.4277520000000  0.4149450000000 1.0
C      1  0.5313820000000  0.3912050000000  0.4582400000000 1.0
C      1  0.5598780000000  0.5278360000000  0.4230820000000 1.0
C      1  0.5758830000000  0.5536490000000  0.5376870000000 1.0
C      1  0.5581490000000  0.6187530000000  0.4848790000000 1.0
C      1  0.4936980000000  0.5214410000000  0.4033690000000 1.0
C      1  0.4088120000000  0.4713120000000  0.5704930000000 1.0
C      1  0.4692020000000  0.4943750000000  0.4436550000000 1.0
C      1  0.4579830000000  0.4282000000000  0.4093190000000 1.0
C      1  0.5275370000000  0.5489630000000  0.5309110000000 1.0
C      1  0.3967890000000  0.5400800000000  0.5445190000000 1.0
C      1  0.4286590000000  0.5860040000000  0.5146030000000 1.0
C      1  0.6140000000000  0.5096900000000  0.5239510000000 1.0
C      1  0.4858350000000  0.5162060000000  0.5136150000000 1.0
C      1  0.4404990000000  0.4974890000000  0.5354520000000 1.0
C      1  0.5430400000000  0.5146610000000  0.4990140000000 1.0
C      1  0.5581240000000  0.4145050000000  0.5334440000000 1.0
C      1  0.4807880000000  0.5363940000000  0.5938180000000 1.0
C      1  0.5214450000000  0.3873400000000  0.4908990000000 1.0
C      1  0.4416140000000  0.5390290000000  0.4590000000000 1.0
C      1  0.5671710000000  0.4588030000000  0.4687210000000 1.0
C      1  0.4298890000000  0.4689180000000  0.3961370000000 1.0
C      1  0.4540070000000  0.5362020000000  0.4902880000000 1.0
C      1  0.5979550000000  0.5333340000000  0.4593700000000 1.0
C      1  0.5936870000000  0.4545100000000  0.5332960000000 1.0
C      1  0.4110530000000  0.5847010000000  0.4680600000000 1.0
C      1  0.4150770000000  0.5592730000000  0.4519770000000 1.0
C      1  0.4571250000000  0.5201260000000  0.5204800000000 1.0
C      1  0.5088510000000  0.4461960000000  0.5345080000000 1.0
C      1  0.4823650000000  0.4981640000000  0.5638820000000 1.0
C      1  0.4958730000000  0.5217270000000  0.4660730000000 1.0
C      1  0.4668100000000  0.4168610000000  0.4781960000000 1.0
C      1  0.5092850000000  0.5825380000000  0.5678780000000 1.0
C      1  0.5300970000000  0.5359240000000  0.4843600000000 1.0
C      1  0.4797880000000  0.5492170000000  0.4005740000000 1.0
C      1  0.5841190000000  0.4262600000000  0.5167330000000 1.0
C      1  0.6016040000000  0.4843240000000  0.5430250000000 1.0
C      1  0.5173630000000  0.5970490000000  0.5170870000000 1.0
C      1  0.5502530000000  0.5145910000000  0.5718380000000 1.0
C      1  0.5347810000000  0.4884180000000  0.4444810000000 1.0
C      1  0.5815380000000  0.5621630000000  0.4631660000000 1.0
END
