TITL C-2778422-5617-175 0.00156434614472914 125000 -836.741052580139 0 0 143 (C1) n - 1
REM
REM in /home/nfs/bkarasulu/CARBON/AIRSS/Generating-Clusters/REBO/Only-C1/SD-CG/HFTN-CG
REM
REM
REM
REM
REM
REM ./C.cell (11c1c37f851c82e70ff6c80c92926a4b)
REM
REM compiler GCC version 9.2.1 20190827 (Red Hat 9.2.1-1)
REM options -cpp -mtune=generic -march=x86-64 -g -O0 -fpre-include=/usr/include/finclude/math-vector-fortran.h
REM seed -370487570 -998247382 -1061587030 1971557784 2039182759 2053408430 1336813662 1853203318 -1901398756 -33817168 -1154499810 -662757322 -1163038424 256196040 1801671233 456304855 -1889245398 749594608 -30149894 8351604 1594307105 1834263056 468824166 -1767067042 -443574452 1109605894 1353301553 1496819705 -1079984709 1918839919 808965751 -868966647 1239080204
REM
CELL 1.54180   50.00000   50.00000   50.00000   90.00000   90.00000   90.00000
LATT -1
SFAC C  
C      1  0.5070760000000  0.4495590000000  0.4784540000000 1.0
C      1  0.5311620000000  0.5153170000000  0.4118890000000 1.0
C      1  0.5201310000000  0.5877440000000  0.4425290000000 1.0
C      1  0.5114500000000  0.5147040000000  0.5602560000000 1.0
C      1  0.5203620000000  0.5903020000000  0.5077610000000 1.0
C      1  0.5749170000000  0.4405080000000  0.5406950000000 1.0
C      1  0.5377430000000  0.5476100000000  0.4202710000000 1.0
C      1  0.4382920000000  0.5218410000000  0.4354930000000 1.0
C      1  0.5019520000000  0.5197510000000  0.4387730000000 1.0
C      1  0.5895760000000  0.5040970000000  0.5448070000000 1.0
C      1  0.5604940000000  0.4253760000000  0.5185120000000 1.0
C      1  0.4765010000000  0.5376420000000  0.4283060000000 1.0
C      1  0.5720410000000  0.4554980000000  0.4473660000000 1.0
C      1  0.5426590000000  0.4414910000000  0.4427690000000 1.0
C      1  0.4372760000000  0.4508680000000  0.4485020000000 1.0
C      1  0.4873820000000  0.4137740000000  0.5058720000000 1.0
C      1  0.4968030000000  0.4930340000000  0.6018180000000 1.0
C      1  0.4666440000000  0.5176360000000  0.5744530000000 1.0
C      1  0.5969030000000  0.4680810000000  0.4969150000000 1.0
C      1  0.4343260000000  0.5922190000000  0.5180860000000 1.0
C      1  0.5238430000000  0.4036920000000  0.4815890000000 1.0
C      1  0.5203830000000  0.5517540000000  0.5272150000000 1.0
C      1  0.4531600000000  0.4174580000000  0.4855820000000 1.0
C      1  0.5261380000000  0.5052360000000  0.5960490000000 1.0
C      1  0.5608740000000  0.5511000000000  0.4452060000000 1.0
C      1  0.5638580000000  0.4619330000000  0.5655740000000 1.0
C      1  0.5019260000000  0.4364830000000  0.4204850000000 1.0
C      1  0.5895040000000  0.4762230000000  0.5490840000000 1.0
C      1  0.5680430000000  0.5576810000000  0.4997080000000 1.0
C      1  0.4658700000000  0.5086140000000  0.4206110000000 1.0
C      1  0.4837050000000  0.4813020000000  0.4282630000000 1.0
C      1  0.5149710000000  0.4763070000000  0.5232990000000 1.0
C      1  0.5039830000000  0.4205020000000  0.4701680000000 1.0
C      1  0.5483290000000  0.4906160000000  0.5766480000000 1.0
C      1  0.4703990000000  0.5823760000000  0.5490480000000 1.0
C      1  0.5633200000000  0.5181240000000  0.4961610000000 1.0
C      1  0.5240320000000  0.5356890000000  0.5815210000000 1.0
C      1  0.5358080000000  0.4475090000000  0.5415560000000 1.0
C      1  0.4882670000000  0.4640510000000  0.5278900000000 1.0
C      1  0.4760640000000  0.5636550000000  0.4992250000000 1.0
C      1  0.4847090000000  0.5042670000000  0.5124070000000 1.0
C      1  0.4614590000000  0.3973190000000  0.5107830000000 1.0
C      1  0.4751970000000  0.5127490000000  0.5438060000000 1.0
C      1  0.5993290000000  0.4969830000000  0.4934930000000 1.0
C      1  0.5179330000000  0.4271740000000  0.5277000000000 1.0
C      1  0.5013760000000  0.5779580000000  0.5554620000000 1.0
C      1  0.4459690000000  0.4880620000000  0.4945650000000 1.0
C      1  0.4777470000000  0.4645200000000  0.4760410000000 1.0
C      1  0.4514280000000  0.6009130000000  0.5394890000000 1.0
C      1  0.5227150000000  0.4512000000000  0.5042330000000 1.0
C      1  0.4317240000000  0.4375080000000  0.5037280000000 1.0
C      1  0.5605920000000  0.5024640000000  0.4230590000000 1.0
C      1  0.5416060000000  0.5171810000000  0.5152480000000 1.0
C      1  0.4979190000000  0.4931460000000  0.5705110000000 1.0
C      1  0.4531370000000  0.4460200000000  0.4715730000000 1.0
C      1  0.5485670000000  0.3997050000000  0.5051080000000 1.0
C      1  0.5503520000000  0.4806910000000  0.4692480000000 1.0
C      1  0.5226460000000  0.5278100000000  0.4548680000000 1.0
C      1  0.5464670000000  0.5767580000000  0.4591860000000 1.0
C      1  0.5547560000000  0.4480420000000  0.4964660000000 1.0
C      1  0.4798040000000  0.5253590000000  0.4715220000000 1.0
C      1  0.5987940000000  0.5114960000000  0.5186780000000 1.0
C      1  0.5273650000000  0.4645700000000  0.4581680000000 1.0
C      1  0.5182230000000  0.5691040000000  0.4199710000000 1.0
C      1  0.4823250000000  0.4407840000000  0.5085510000000 1.0
C      1  0.5203290000000  0.5564170000000  0.4673300000000 1.0
C      1  0.5292930000000  0.4809680000000  0.4115860000000 1.0
C      1  0.5446740000000  0.5872470000000  0.5201420000000 1.0
C      1  0.4259590000000  0.5621980000000  0.5175590000000 1.0
C      1  0.4411780000000  0.5479680000000  0.5696920000000 1.0
C      1  0.4989910000000  0.5558470000000  0.5794220000000 1.0
C      1  0.4023950000000  0.5180580000000  0.5028010000000 1.0
C      1  0.4975560000000  0.4058600000000  0.5446490000000 1.0
C      1  0.4423720000000  0.5183100000000  0.5430560000000 1.0
C      1  0.4720760000000  0.5944040000000  0.4866320000000 1.0
C      1  0.4226710000000  0.5638850000000  0.4627560000000 1.0
C      1  0.5057530000000  0.4652270000000  0.4150520000000 1.0
C      1  0.5253900000000  0.4177570000000  0.5912010000000 1.0
C      1  0.5163230000000  0.3975720000000  0.5124250000000 1.0
C      1  0.4602240000000  0.5918070000000  0.4487670000000 1.0
C      1  0.4690500000000  0.4048530000000  0.5401650000000 1.0
C      1  0.4114340000000  0.4943160000000  0.5497450000000 1.0
C      1  0.4748660000000  0.5655470000000  0.4442230000000 1.0
C      1  0.5786890000000  0.4542810000000  0.4788360000000 1.0
C      1  0.5646310000000  0.5162760000000  0.5610830000000 1.0
C      1  0.4428350000000  0.6007710000000  0.4922660000000 1.0
C      1  0.4547920000000  0.4605890000000  0.5084940000000 1.0
C      1  0.4118350000000  0.5474620000000  0.4905750000000 1.0
C      1  0.4079330000000  0.4960080000000  0.4853590000000 1.0
C      1  0.4642140000000  0.4897260000000  0.5913150000000 1.0
C      1  0.4985050000000  0.4813820000000  0.4562410000000 1.0
C      1  0.5576250000000  0.4694710000000  0.4197730000000 1.0
C      1  0.5145140000000  0.5870940000000  0.4804320000000 1.0
C      1  0.4366080000000  0.4826490000000  0.4425970000000 1.0
C      1  0.5506400000000  0.4990920000000  0.5378120000000 1.0
C      1  0.5165940000000  0.5027430000000  0.5066770000000 1.0
C      1  0.4576610000000  0.4285420000000  0.5517440000000 1.0
C      1  0.5298230000000  0.4781120000000  0.5521850000000 1.0
C      1  0.5961610000000  0.4589010000000  0.5249250000000 1.0
C      1  0.4976730000000  0.5113690000000  0.4073930000000 1.0
C      1  0.5655610000000  0.3778960000000  0.5028600000000 1.0
C      1  0.5026290000000  0.4354590000000  0.5782950000000 1.0
C      1  0.5354480000000  0.4450730000000  0.5739310000000 1.0
C      1  0.4453910000000  0.5496320000000  0.4923090000000 1.0
C      1  0.5740520000000  0.4895900000000  0.4496950000000 1.0
C      1  0.4520880000000  0.5117290000000  0.5118420000000 1.0
C      1  0.5322520000000  0.5696400000000  0.5622020000000 1.0
C      1  0.4763040000000  0.4256900000000  0.4321760000000 1.0
C      1  0.4266200000000  0.4690450000000  0.5461350000000 1.0
C      1  0.5901470000000  0.5085190000000  0.4685540000000 1.0
C      1  0.4578010000000  0.4741980000000  0.5388620000000 1.0
C      1  0.5103540000000  0.5287630000000  0.5363460000000 1.0
C      1  0.5748450000000  0.5374740000000  0.4730920000000 1.0
C      1  0.4891410000000  0.5539840000000  0.4700860000000 1.0
C      1  0.5541170000000  0.4690290000000  0.5223030000000 1.0
C      1  0.5526580000000  0.5565640000000  0.5295810000000 1.0
C      1  0.5494930000000  0.5209290000000  0.4471210000000 1.0
C      1  0.4187380000000  0.4676280000000  0.4941970000000 1.0
C      1  0.4228990000000  0.5056520000000  0.4606070000000 1.0
C      1  0.4220100000000  0.5436350000000  0.5418110000000 1.0
C      1  0.5590830000000  0.4877630000000  0.4950350000000 1.0
C      1  0.4594590000000  0.4913840000000  0.4661100000000 1.0
C      1  0.4489300000000  0.5232880000000  0.4738540000000 1.0
C      1  0.4043650000000  0.5165550000000  0.5319340000000 1.0
C      1  0.4380120000000  0.4991410000000  0.5709300000000 1.0
C      1  0.4720020000000  0.5464540000000  0.5834310000000 1.0
C      1  0.5626320000000  0.5821490000000  0.4848890000000 1.0
C      1  0.4961240000000  0.5017430000000  0.4802830000000 1.0
C      1  0.4745780000000  0.4721120000000  0.5644420000000 1.0
C      1  0.4552180000000  0.4703680000000  0.4193050000000 1.0
C      1  0.4987610000000  0.5744560000000  0.5221790000000 1.0
C      1  0.4522150000000  0.4396180000000  0.4238450000000 1.0
C      1  0.4369860000000  0.5889950000000  0.4653520000000 1.0
C      1  0.4921100000000  0.5982920000000  0.4591870000000 1.0
C      1  0.5502170000000  0.5435900000000  0.5610480000000 1.0
C      1  0.4909460000000  0.5635900000000  0.4151370000000 1.0
C      1  0.4768870000000  0.4161100000000  0.4606010000000 1.0
C      1  0.4780360000000  0.4427520000000  0.5678820000000 1.0
C      1  0.4596620000000  0.5561470000000  0.5467200000000 1.0
C      1  0.4301840000000  0.5480890000000  0.4399750000000 1.0
C      1  0.5266670000000  0.4249190000000  0.4286560000000 1.0
C      1  0.4692500000000  0.5394760000000  0.5226280000000 1.0
C      1  0.4355500000000  0.4410310000000  0.5373890000000 1.0
END
