TITL C-2778433-5640-1328 -0.000790548172094043 125000 -287.575369988562 0 0 51 (C1) n - 1
REM
REM in /home/nfs/bkarasulu/CARBON/AIRSS/Generating-Clusters/REBO/Only-C1/SD-CG/HFTN-CG
REM
REM
REM
REM
REM
REM ./C.cell (11c1c37f851c82e70ff6c80c92926a4b)
REM
REM compiler GCC version 9.2.1 20190827 (Red Hat 9.2.1-1)
REM options -cpp -mtune=generic -march=x86-64 -g -O0 -fpre-include=/usr/include/finclude/math-vector-fortran.h
REM seed 1894927188 1636653135 -691248688 -524905157 -1172271879 1573035830 -377860468 -1831502475 2116311790 235685643 -1168678450 -205752530 -715035142 1500797967 252278124 488216540 306045394 -175349519 582841989 965876169 -638421966 1465687932 1096860001 -907809478 290361660 -608204118 -1428807965 -1762592153 -816216897 1411220638 1919338901 -1771021858 -212785941
REM
CELL 1.54180   50.00000   50.00000   50.00000   90.00000   90.00000   90.00000
LATT -1
SFAC C  
C      1  0.5071580000000  0.4890540000000  0.4399150000000 1.0
C      1  0.5167350000000  0.4585570000000  0.4281940000000 1.0
C      1  0.4342450000000  0.5118050000000  0.4833260000000 1.0
C      1  0.4720290000000  0.5087450000000  0.5531570000000 1.0
C      1  0.5367450000000  0.5575390000000  0.5114440000000 1.0
C      1  0.5026100000000  0.5667190000000  0.4802330000000 1.0
C      1  0.4699590000000  0.4273220000000  0.5121010000000 1.0
C      1  0.4504360000000  0.5370860000000  0.4678230000000 1.0
C      1  0.4788520000000  0.4482970000000  0.4659160000000 1.0
C      1  0.4682330000000  0.5206620000000  0.4460190000000 1.0
C      1  0.4850360000000  0.4416480000000  0.5304500000000 1.0
C      1  0.4863500000000  0.5257950000000  0.5149290000000 1.0
C      1  0.5087350000000  0.4476170000000  0.4594800000000 1.0
C      1  0.5434200000000  0.4861900000000  0.4814040000000 1.0
C      1  0.5172390000000  0.5337680000000  0.5533440000000 1.0
C      1  0.5463160000000  0.5472080000000  0.4848970000000 1.0
C      1  0.4968530000000  0.5177900000000  0.4469730000000 1.0
C      1  0.4778680000000  0.4879250000000  0.5067780000000 1.0
C      1  0.4672790000000  0.5606760000000  0.5120760000000 1.0
C      1  0.4799060000000  0.5134100000000  0.4835490000000 1.0
C      1  0.4687700000000  0.4302030000000  0.4849760000000 1.0
C      1  0.4567410000000  0.5265360000000  0.5297500000000 1.0
C      1  0.4533150000000  0.4742480000000  0.5261950000000 1.0
C      1  0.4775920000000  0.5475360000000  0.4826930000000 1.0
C      1  0.5119150000000  0.5730520000000  0.5076590000000 1.0
C      1  0.5001870000000  0.5115060000000  0.5495970000000 1.0
C      1  0.5828210000000  0.4968030000000  0.5361910000000 1.0
C      1  0.5090150000000  0.4585230000000  0.5183120000000 1.0
C      1  0.5132940000000  0.5244880000000  0.5021110000000 1.0
C      1  0.5431150000000  0.4636650000000  0.5382720000000 1.0
C      1  0.5124540000000  0.4740390000000  0.4891590000000 1.0
C      1  0.5446410000000  0.5158920000000  0.4799960000000 1.0
C      1  0.5067360000000  0.4919240000000  0.5243300000000 1.0
C      1  0.5328520000000  0.4723320000000  0.4550030000000 1.0
C      1  0.5175400000000  0.4668540000000  0.5571370000000 1.0
C      1  0.5351930000000  0.4366240000000  0.5190380000000 1.0
C      1  0.5361160000000  0.5084440000000  0.5204060000000 1.0
C      1  0.4882060000000  0.5735620000000  0.5241850000000 1.0
C      1  0.4894900000000  0.4615440000000  0.5530620000000 1.0
C      1  0.4662880000000  0.4799860000000  0.5522130000000 1.0
C      1  0.4932640000000  0.4856710000000  0.4701640000000 1.0
C      1  0.4499960000000  0.4985220000000  0.4579260000000 1.0
C      1  0.4431960000000  0.5398670000000  0.5012600000000 1.0
C      1  0.4462890000000  0.5011930000000  0.5098060000000 1.0
C      1  0.5149500000000  0.5287200000000  0.4688630000000 1.0
C      1  0.5575960000000  0.4911610000000  0.5319150000000 1.0
C      1  0.5263460000000  0.5593510000000  0.4631610000000 1.0
C      1  0.5275680000000  0.4432610000000  0.4864470000000 1.0
C      1  0.5360320000000  0.5382030000000  0.5319420000000 1.0
C      1  0.5481610000000  0.4643700000000  0.5041820000000 1.0
C      1  0.4643190000000  0.4741080000000  0.4620370000000 1.0
END
