TITL C-2778426-5645-1360 0.00131153526373092 125000 -801.971961429386 0 0 140 (C1) n - 1
REM
REM in /home/nfs/bkarasulu/CARBON/AIRSS/Generating-Clusters/REBO/Only-C1/SD-CG/HFTN-CG
REM
REM
REM
REM
REM
REM ./C.cell (11c1c37f851c82e70ff6c80c92926a4b)
REM
REM compiler GCC version 9.2.1 20190827 (Red Hat 9.2.1-1)
REM options -cpp -mtune=generic -march=x86-64 -g -O0 -fpre-include=/usr/include/finclude/math-vector-fortran.h
REM seed 2044366245 140540504 -571382853 2058288735 -469551393 1714284320 -1707163014 87887577 1725288433 -54723277 -547848681 -1428281784 2130624613 -799351838 1930890961 -120425908 2080554237 284543331 1707021086 -2048163496 -997956128 1299707918 -1597496694 -2145384328 -1561068451 -530452239 2112277475 -59262023 -271136824 879367204 -1445838104 1699582601 -544417871
REM
CELL 1.54180   50.00000   50.00000   50.00000   90.00000   90.00000   90.00000
LATT -1
SFAC C  
C      1  0.5204510000000  0.4563030000000  0.5759010000000 1.0
C      1  0.4878430000000  0.5360150000000  0.5947960000000 1.0
C      1  0.4750320000000  0.3979940000000  0.4821030000000 1.0
C      1  0.5001070000000  0.5350080000000  0.4340270000000 1.0
C      1  0.4720720000000  0.5139860000000  0.3979780000000 1.0
C      1  0.5299370000000  0.4608040000000  0.4099840000000 1.0
C      1  0.4642950000000  0.4590100000000  0.5792360000000 1.0
C      1  0.5664820000000  0.4036490000000  0.4964800000000 1.0
C      1  0.5622190000000  0.5858640000000  0.4790690000000 1.0
C      1  0.4842190000000  0.4082590000000  0.4559290000000 1.0
C      1  0.5074540000000  0.4352120000000  0.4122330000000 1.0
C      1  0.4334860000000  0.5796690000000  0.5344790000000 1.0
C      1  0.5100370000000  0.5376580000000  0.4888590000000 1.0
C      1  0.5607900000000  0.4500220000000  0.5499600000000 1.0
C      1  0.4491110000000  0.5149100000000  0.4196370000000 1.0
C      1  0.4298240000000  0.4268990000000  0.5053530000000 1.0
C      1  0.4834250000000  0.4053460000000  0.5085760000000 1.0
C      1  0.4964890000000  0.4395870000000  0.4929450000000 1.0
C      1  0.4620340000000  0.5626070000000  0.4692720000000 1.0
C      1  0.4888970000000  0.4856540000000  0.4826670000000 1.0
C      1  0.5162500000000  0.5200640000000  0.6002980000000 1.0
C      1  0.4865990000000  0.4836380000000  0.4288950000000 1.0
C      1  0.4798140000000  0.4277930000000  0.4307590000000 1.0
C      1  0.4995100000000  0.4362200000000  0.5483940000000 1.0
C      1  0.5096740000000  0.5323840000000  0.5407690000000 1.0
C      1  0.4598300000000  0.4868160000000  0.5508780000000 1.0
C      1  0.4459250000000  0.5694170000000  0.5647950000000 1.0
C      1  0.4342890000000  0.5571290000000  0.4597570000000 1.0
C      1  0.4311840000000  0.5341370000000  0.4375380000000 1.0
C      1  0.4767450000000  0.5408810000000  0.4834610000000 1.0
C      1  0.5553020000000  0.4340500000000  0.4730930000000 1.0
C      1  0.5903040000000  0.4742540000000  0.4864510000000 1.0
C      1  0.5857380000000  0.4789920000000  0.5541150000000 1.0
C      1  0.4625000000000  0.5163810000000  0.5393180000000 1.0
C      1  0.6095480000000  0.5150870000000  0.4992440000000 1.0
C      1  0.4460650000000  0.5331240000000  0.5190460000000 1.0
C      1  0.5466600000000  0.5208460000000  0.6046500000000 1.0
C      1  0.4690100000000  0.4509800000000  0.4816110000000 1.0
C      1  0.5493690000000  0.4644510000000  0.4381000000000 1.0
C      1  0.5385650000000  0.4036110000000  0.4837280000000 1.0
C      1  0.5003370000000  0.5674480000000  0.5033530000000 1.0
C      1  0.5668500000000  0.5315090000000  0.5602850000000 1.0
C      1  0.5022540000000  0.5109650000000  0.5182630000000 1.0
C      1  0.5044910000000  0.4917430000000  0.6098700000000 1.0
C      1  0.4315750000000  0.4837950000000  0.4979570000000 1.0
C      1  0.5088120000000  0.4179370000000  0.4747710000000 1.0
C      1  0.4906140000000  0.4788180000000  0.5878960000000 1.0
C      1  0.4844660000000  0.5836050000000  0.4551100000000 1.0
C      1  0.5274050000000  0.4528380000000  0.4691470000000 1.0
C      1  0.5191600000000  0.5093420000000  0.4723060000000 1.0
C      1  0.5188870000000  0.4870030000000  0.4226730000000 1.0
C      1  0.5965820000000  0.5015730000000  0.4781180000000 1.0
C      1  0.4736900000000  0.4350470000000  0.5178720000000 1.0
C      1  0.4495590000000  0.4319560000000  0.5400120000000 1.0
C      1  0.4385810000000  0.4455610000000  0.4890110000000 1.0
C      1  0.5905290000000  0.5020970000000  0.5721250000000 1.0
C      1  0.4614750000000  0.4788790000000  0.4990690000000 1.0
C      1  0.4804680000000  0.5593960000000  0.4339870000000 1.0
C      1  0.4993440000000  0.4651620000000  0.4597930000000 1.0
C      1  0.5264600000000  0.5398830000000  0.4475890000000 1.0
C      1  0.5349740000000  0.4171540000000  0.4530310000000 1.0
C      1  0.4384450000000  0.4538820000000  0.5579220000000 1.0
C      1  0.4818740000000  0.4558320000000  0.4108810000000 1.0
C      1  0.4764320000000  0.5104530000000  0.4381990000000 1.0
C      1  0.4547020000000  0.5540470000000  0.4255650000000 1.0
C      1  0.4725860000000  0.4525320000000  0.4495780000000 1.0
C      1  0.5034840000000  0.5137420000000  0.4090130000000 1.0
C      1  0.5509570000000  0.5602130000000  0.4352820000000 1.0
C      1  0.5502810000000  0.4288470000000  0.5282930000000 1.0
C      1  0.4921770000000  0.5592110000000  0.5445090000000 1.0
C      1  0.5137130000000  0.4668190000000  0.4963840000000 1.0
C      1  0.4896390000000  0.4850010000000  0.3951150000000 1.0
C      1  0.5551910000000  0.4795400000000  0.5402750000000 1.0
C      1  0.4314790000000  0.5039660000000  0.5611050000000 1.0
C      1  0.5140770000000  0.5920560000000  0.4557930000000 1.0
C      1  0.4856790000000  0.5139950000000  0.4682310000000 1.0
C      1  0.4415660000000  0.4989190000000  0.4553950000000 1.0
C      1  0.5504830000000  0.5568390000000  0.5528000000000 1.0
C      1  0.4777940000000  0.5454700000000  0.5166610000000 1.0
C      1  0.4359420000000  0.5369820000000  0.5679490000000 1.0
C      1  0.4715660000000  0.5796010000000  0.5533520000000 1.0
C      1  0.5279790000000  0.5412890000000  0.5151170000000 1.0
C      1  0.4043190000000  0.4851700000000  0.4518740000000 1.0
C      1  0.4329900000000  0.4472900000000  0.4496610000000 1.0
C      1  0.4779270000000  0.5015260000000  0.5175190000000 1.0
C      1  0.4214420000000  0.4764750000000  0.5502010000000 1.0
C      1  0.5057400000000  0.3969870000000  0.5226200000000 1.0
C      1  0.4299030000000  0.5164710000000  0.5013320000000 1.0
C      1  0.5802100000000  0.4238220000000  0.5025730000000 1.0
C      1  0.5048440000000  0.6119980000000  0.5267590000000 1.0
C      1  0.4090380000000  0.4788120000000  0.4254390000000 1.0
C      1  0.4705420000000  0.4653070000000  0.5336360000000 1.0
C      1  0.4042540000000  0.5276560000000  0.4844050000000 1.0
C      1  0.5809840000000  0.5362160000000  0.5232650000000 1.0
C      1  0.5316110000000  0.5731250000000  0.5150860000000 1.0
C      1  0.4770940000000  0.5275680000000  0.5633880000000 1.0
C      1  0.4119440000000  0.5155750000000  0.4570370000000 1.0
C      1  0.5282020000000  0.5029390000000  0.5038010000000 1.0
C      1  0.5703740000000  0.5614670000000  0.4637030000000 1.0
C      1  0.5261360000000  0.4818520000000  0.5310110000000 1.0
C      1  0.3991190000000  0.5043400000000  0.5086970000000 1.0
C      1  0.4468620000000  0.5944360000000  0.5106210000000 1.0
C      1  0.5514520000000  0.5368140000000  0.4672780000000 1.0
C      1  0.4681460000000  0.5994990000000  0.5336920000000 1.0
C      1  0.4608190000000  0.4917590000000  0.5844540000000 1.0
C      1  0.5325370000000  0.4920240000000  0.4501220000000 1.0
C      1  0.5349760000000  0.4345220000000  0.4300580000000 1.0
C      1  0.4296300000000  0.4910750000000  0.4122800000000 1.0
C      1  0.4734660000000  0.4347560000000  0.5601930000000 1.0
C      1  0.5015820000000  0.4604650000000  0.5323070000000 1.0
C      1  0.5667890000000  0.4529030000000  0.5105430000000 1.0
C      1  0.6044920000000  0.5039200000000  0.5239780000000 1.0
C      1  0.4283700000000  0.5492530000000  0.5371120000000 1.0
C      1  0.5679100000000  0.5167530000000  0.5887470000000 1.0
C      1  0.4425640000000  0.4244550000000  0.4382660000000 1.0
C      1  0.5223260000000  0.5941850000000  0.5379390000000 1.0
C      1  0.5738540000000  0.5140430000000  0.4614690000000 1.0
C      1  0.5576200000000  0.4884920000000  0.4686840000000 1.0
C      1  0.5894820000000  0.4735710000000  0.5206360000000 1.0
C      1  0.5720530000000  0.4586960000000  0.4630670000000 1.0
C      1  0.5995700000000  0.5234500000000  0.5489920000000 1.0
C      1  0.5404600000000  0.5859520000000  0.4551120000000 1.0
C      1  0.4651470000000  0.5925100000000  0.4819470000000 1.0
C      1  0.4106010000000  0.4792960000000  0.5240070000000 1.0
C      1  0.5116060000000  0.4851350000000  0.5617910000000 1.0
C      1  0.5678370000000  0.5639430000000  0.5292550000000 1.0
C      1  0.5735000000000  0.5346500000000  0.4343690000000 1.0
C      1  0.4123650000000  0.5570490000000  0.4773550000000 1.0
C      1  0.5362580000000  0.4376620000000  0.5639770000000 1.0
C      1  0.4488410000000  0.4743950000000  0.4478610000000 1.0
C      1  0.4185550000000  0.4672710000000  0.4729290000000 1.0
C      1  0.5597420000000  0.5813610000000  0.5064520000000 1.0
C      1  0.4572160000000  0.5220490000000  0.5898430000000 1.0
C      1  0.5528480000000  0.5223650000000  0.5106160000000 1.0
C      1  0.5087210000000  0.5157630000000  0.5678630000000 1.0
C      1  0.5472620000000  0.4677960000000  0.4929610000000 1.0
C      1  0.5229600000000  0.4156710000000  0.5413630000000 1.0
C      1  0.5240820000000  0.5673650000000  0.5537030000000 1.0
C      1  0.5649890000000  0.5083720000000  0.5366940000000 1.0
C      1  0.4861960000000  0.5960650000000  0.5054200000000 1.0
END
