TITL C-2778426-5645-550 0.00176458222358582 125000 -554.866138308873 0 0 97 (C1) n - 1
REM
REM in /home/nfs/bkarasulu/CARBON/AIRSS/Generating-Clusters/REBO/Only-C1/SD-CG/HFTN-CG
REM
REM
REM
REM
REM
REM ./C.cell (11c1c37f851c82e70ff6c80c92926a4b)
REM
REM compiler GCC version 9.2.1 20190827 (Red Hat 9.2.1-1)
REM options -cpp -mtune=generic -march=x86-64 -g -O0 -fpre-include=/usr/include/finclude/math-vector-fortran.h
REM seed 1777014148 959121399 492405436 1278613166 -1330526466 169463241 -858377781 -1815343020 -1962098101 -753760436 -572993367 -1241206888 -1299390621 1813337182 1457578520 668367380 -422969089 -1062921541 1142892292 1069415255 -1832759351 1640244058 -1343816488 -1062627416 -862867409 1540710111 -287728508 -744885887 935294283 396823221 931781568 898487441 -1650794018
REM
CELL 1.54180   50.00000   50.00000   50.00000   90.00000   90.00000   90.00000
LATT -1
SFAC C  
C      1  0.4903880000000  0.5170810000000  0.4493470000000 1.0
C      1  0.5102170000000  0.5402570000000  0.5712070000000 1.0
C      1  0.5691390000000  0.5221070000000  0.5275360000000 1.0
C      1  0.4095000000000  0.4815000000000  0.5165280000000 1.0
C      1  0.5846220000000  0.4434230000000  0.5141550000000 1.0
C      1  0.4582000000000  0.4948750000000  0.5644590000000 1.0
C      1  0.5092520000000  0.4972450000000  0.4038850000000 1.0
C      1  0.5204450000000  0.4753380000000  0.4540040000000 1.0
C      1  0.4739420000000  0.4934890000000  0.4767430000000 1.0
C      1  0.4828790000000  0.4477870000000  0.5380150000000 1.0
C      1  0.5466300000000  0.4487880000000  0.5550410000000 1.0
C      1  0.5462590000000  0.5670940000000  0.5498990000000 1.0
C      1  0.4933310000000  0.5633220000000  0.4463060000000 1.0
C      1  0.5504660000000  0.4197320000000  0.5386350000000 1.0
C      1  0.5314980000000  0.5404800000000  0.5114420000000 1.0
C      1  0.4740070000000  0.5447040000000  0.5552690000000 1.0
C      1  0.4791820000000  0.4582990000000  0.5077990000000 1.0
C      1  0.5037240000000  0.5749120000000  0.5259630000000 1.0
C      1  0.4105630000000  0.4999210000000  0.4584450000000 1.0
C      1  0.5168490000000  0.4412260000000  0.5408450000000 1.0
C      1  0.5469230000000  0.5033950000000  0.5662160000000 1.0
C      1  0.5083070000000  0.4710570000000  0.5761800000000 1.0
C      1  0.4591910000000  0.5163560000000  0.5188130000000 1.0
C      1  0.5783220000000  0.4649730000000  0.4960240000000 1.0
C      1  0.5024260000000  0.5236610000000  0.4046340000000 1.0
C      1  0.4588740000000  0.4432410000000  0.4902610000000 1.0
C      1  0.4654960000000  0.4168680000000  0.4511020000000 1.0
C      1  0.4566000000000  0.4653790000000  0.5479870000000 1.0
C      1  0.4655840000000  0.5226360000000  0.4695240000000 1.0
C      1  0.4306690000000  0.5515710000000  0.4777860000000 1.0
C      1  0.5022130000000  0.4723710000000  0.4144170000000 1.0
C      1  0.4321080000000  0.4512700000000  0.5041590000000 1.0
C      1  0.4145250000000  0.5323930000000  0.5007630000000 1.0
C      1  0.4916120000000  0.4844130000000  0.4510070000000 1.0
C      1  0.4317940000000  0.4859160000000  0.4491280000000 1.0
C      1  0.5220770000000  0.4446600000000  0.4558000000000 1.0
C      1  0.5240280000000  0.4966210000000  0.5905760000000 1.0
C      1  0.4565260000000  0.5665840000000  0.4940580000000 1.0
C      1  0.4723430000000  0.4717820000000  0.4284590000000 1.0
C      1  0.4549910000000  0.4468360000000  0.4400080000000 1.0
C      1  0.4409960000000  0.5362780000000  0.4553590000000 1.0
C      1  0.5873930000000  0.5919910000000  0.4934690000000 1.0
C      1  0.4727950000000  0.4884540000000  0.5061300000000 1.0
C      1  0.5833380000000  0.4779740000000  0.4706470000000 1.0
C      1  0.4942770000000  0.5175920000000  0.5509390000000 1.0
C      1  0.5367010000000  0.5825200000000  0.4894030000000 1.0
C      1  0.4518140000000  0.4954760000000  0.4313810000000 1.0
C      1  0.5613360000000  0.4944240000000  0.4625930000000 1.0
C      1  0.4960740000000  0.4123910000000  0.4875990000000 1.0
C      1  0.5475790000000  0.4259610000000  0.4616620000000 1.0
C      1  0.5371220000000  0.4845460000000  0.4296120000000 1.0
C      1  0.5466510000000  0.5622570000000  0.5221070000000 1.0
C      1  0.5101850000000  0.5063290000000  0.4963460000000 1.0
C      1  0.4552200000000  0.5237930000000  0.4311090000000 1.0
C      1  0.4798150000000  0.4890610000000  0.5390140000000 1.0
C      1  0.4388300000000  0.5125180000000  0.5459470000000 1.0
C      1  0.5805720000000  0.5441410000000  0.5119480000000 1.0
C      1  0.5775060000000  0.4488450000000  0.5428140000000 1.0
C      1  0.4845720000000  0.5385390000000  0.4262230000000 1.0
C      1  0.5416510000000  0.5443580000000  0.4433620000000 1.0
C      1  0.5057790000000  0.4462080000000  0.4287190000000 1.0
C      1  0.5175530000000  0.4931070000000  0.5514250000000 1.0
C      1  0.5170960000000  0.5445830000000  0.4869500000000 1.0
C      1  0.4846150000000  0.5759280000000  0.4768800000000 1.0
C      1  0.4138650000000  0.4698910000000  0.4845500000000 1.0
C      1  0.4402800000000  0.4588770000000  0.4660050000000 1.0
C      1  0.4709140000000  0.4181520000000  0.4787060000000 1.0
C      1  0.5630530000000  0.5501690000000  0.5655460000000 1.0
C      1  0.5170910000000  0.5688700000000  0.5564840000000 1.0
C      1  0.5641680000000  0.4213260000000  0.5134610000000 1.0
C      1  0.5678070000000  0.5736190000000  0.5003110000000 1.0
C      1  0.5188670000000  0.4339950000000  0.4880780000000 1.0
C      1  0.4421570000000  0.5444920000000  0.5147510000000 1.0
C      1  0.5451210000000  0.5162820000000  0.4524620000000 1.0
C      1  0.5251080000000  0.4852520000000  0.5192030000000 1.0
C      1  0.5116070000000  0.4548040000000  0.5112970000000 1.0
C      1  0.5099550000000  0.5826850000000  0.4966250000000 1.0
C      1  0.5491140000000  0.4198170000000  0.4901570000000 1.0
C      1  0.4758090000000  0.5080280000000  0.5870800000000 1.0
C      1  0.4477340000000  0.5426480000000  0.5464630000000 1.0
C      1  0.5414700000000  0.4710640000000  0.5745090000000 1.0
C      1  0.5210710000000  0.5584300000000  0.4574560000000 1.0
C      1  0.5017520000000  0.5175510000000  0.5901530000000 1.0
C      1  0.5661740000000  0.5232860000000  0.5562830000000 1.0
C      1  0.4967690000000  0.4452560000000  0.5672090000000 1.0
C      1  0.4142050000000  0.5109430000000  0.5271970000000 1.0
C      1  0.4825810000000  0.4308290000000  0.4287470000000 1.0
C      1  0.5160710000000  0.5196650000000  0.4655630000000 1.0
C      1  0.4840460000000  0.5555330000000  0.5112180000000 1.0
C      1  0.5535860000000  0.4756810000000  0.5035300000000 1.0
C      1  0.4314280000000  0.4618870000000  0.5321180000000 1.0
C      1  0.4060580000000  0.5028090000000  0.4897490000000 1.0
C      1  0.4849400000000  0.5428130000000  0.4794770000000 1.0
C      1  0.4908570000000  0.5231830000000  0.5133810000000 1.0
C      1  0.5429500000000  0.5151910000000  0.5173720000000 1.0
C      1  0.4849720000000  0.5690720000000  0.5605950000000 1.0
C      1  0.5332460000000  0.4870650000000  0.4802000000000 1.0
END
