TITL C-2778430-5657-282 -0.00189734180934602 125000 -794.570231617392 0 0 136 (C1) n - 1
REM
REM in /home/nfs/bkarasulu/CARBON/AIRSS/Generating-Clusters/REBO/Only-C1/SD-CG/HFTN-CG
REM
REM
REM
REM
REM
REM ./C.cell (11c1c37f851c82e70ff6c80c92926a4b)
REM
REM compiler GCC version 9.2.1 20190827 (Red Hat 9.2.1-1)
REM options -cpp -mtune=generic -march=x86-64 -g -O0 -fpre-include=/usr/include/finclude/math-vector-fortran.h
REM seed -563955070 1682829218 2010688974 464621240 -880655613 1792278289 -874979132 1449281580 -11745823 945362118 -1264308877 1750685116 -1187567901 -586258765 -901860013 195454008 -311436027 627457218 -913533673 -542759562 65572195 1799714668 1602026111 -107166531 -435852560 793431200 -457472449 -1076997616 -967668913 834502625 1799623327 948530107 -663473466
REM
CELL 1.54180   50.00000   50.00000   50.00000   90.00000   90.00000   90.00000
LATT -1
SFAC C  
C      1  0.3983720000000  0.5060570000000  0.4681120000000 1.0
C      1  0.4778790000000  0.5212180000000  0.5504030000000 1.0
C      1  0.5385440000000  0.4682270000000  0.4100100000000 1.0
C      1  0.4066770000000  0.4645950000000  0.4992080000000 1.0
C      1  0.5319110000000  0.5805200000000  0.5330960000000 1.0
C      1  0.5020730000000  0.5938680000000  0.4868370000000 1.0
C      1  0.5297390000000  0.5123280000000  0.4295170000000 1.0
C      1  0.5458110000000  0.4513720000000  0.5012830000000 1.0
C      1  0.6080370000000  0.5074880000000  0.5347000000000 1.0
C      1  0.5003270000000  0.5561130000000  0.4472450000000 1.0
C      1  0.4486500000000  0.4486010000000  0.5319700000000 1.0
C      1  0.5443610000000  0.5619770000000  0.4347420000000 1.0
C      1  0.4692040000000  0.4997190000000  0.5324720000000 1.0
C      1  0.5211840000000  0.5203410000000  0.5471700000000 1.0
C      1  0.5570440000000  0.5026130000000  0.4912630000000 1.0
C      1  0.6010860000000  0.4814730000000  0.5188710000000 1.0
C      1  0.5375320000000  0.4757790000000  0.4832180000000 1.0
C      1  0.5188020000000  0.4490680000000  0.5306900000000 1.0
C      1  0.5536280000000  0.5754320000000  0.4620100000000 1.0
C      1  0.4827710000000  0.5851230000000  0.5624240000000 1.0
C      1  0.5112090000000  0.4489740000000  0.4185210000000 1.0
C      1  0.4718410000000  0.5688630000000  0.4462330000000 1.0
C      1  0.4230270000000  0.4554670000000  0.5465700000000 1.0
C      1  0.5564990000000  0.4617940000000  0.5286050000000 1.0
C      1  0.5337510000000  0.4859940000000  0.4506910000000 1.0
C      1  0.4923090000000  0.4894350000000  0.5094200000000 1.0
C      1  0.5743300000000  0.5244810000000  0.4504220000000 1.0
C      1  0.5162780000000  0.4151100000000  0.5623060000000 1.0
C      1  0.4092480000000  0.5100050000000  0.5149960000000 1.0
C      1  0.5216550000000  0.4643760000000  0.5845340000000 1.0
C      1  0.5054140000000  0.4816590000000  0.4783800000000 1.0
C      1  0.4706300000000  0.5154360000000  0.4710620000000 1.0
C      1  0.4467420000000  0.5134520000000  0.5024960000000 1.0
C      1  0.4648640000000  0.5554500000000  0.4180050000000 1.0
C      1  0.4434550000000  0.4303910000000  0.5044550000000 1.0
C      1  0.5785350000000  0.4818140000000  0.5419790000000 1.0
C      1  0.5876580000000  0.5078040000000  0.5585330000000 1.0
C      1  0.4992100000000  0.4648660000000  0.5516950000000 1.0
C      1  0.5767390000000  0.4796580000000  0.4767070000000 1.0
C      1  0.5602400000000  0.4251970000000  0.4853430000000 1.0
C      1  0.5017270000000  0.4870590000000  0.4449410000000 1.0
C      1  0.5426940000000  0.4384040000000  0.4165820000000 1.0
C      1  0.5373200000000  0.4186590000000  0.5126320000000 1.0
C      1  0.5442870000000  0.5363940000000  0.5539060000000 1.0
C      1  0.4775650000000  0.4861350000000  0.5960740000000 1.0
C      1  0.4932390000000  0.4123660000000  0.5371130000000 1.0
C      1  0.4771640000000  0.5365900000000  0.5807150000000 1.0
C      1  0.5244360000000  0.5032020000000  0.3973890000000 1.0
C      1  0.5929620000000  0.4652160000000  0.4974930000000 1.0
C      1  0.4884720000000  0.4573230000000  0.5887510000000 1.0
C      1  0.5084640000000  0.5395430000000  0.5870730000000 1.0
C      1  0.5843950000000  0.4390030000000  0.5034860000000 1.0
C      1  0.4482430000000  0.5625980000000  0.4700490000000 1.0
C      1  0.4750450000000  0.4534720000000  0.5105400000000 1.0
C      1  0.4212250000000  0.4431300000000  0.5756470000000 1.0
C      1  0.4872280000000  0.4671550000000  0.4135060000000 1.0
C      1  0.4750910000000  0.4239570000000  0.4431230000000 1.0
C      1  0.4827540000000  0.5957090000000  0.5358570000000 1.0
C      1  0.5213270000000  0.4795170000000  0.5220610000000 1.0
C      1  0.4362560000000  0.4863030000000  0.5872650000000 1.0
C      1  0.6160840000000  0.5331020000000  0.5259960000000 1.0
C      1  0.5029620000000  0.4260460000000  0.4399880000000 1.0
C      1  0.4588710000000  0.5047720000000  0.4238570000000 1.0
C      1  0.4286750000000  0.4582790000000  0.5948600000000 1.0
C      1  0.4903960000000  0.4351040000000  0.5629070000000 1.0
C      1  0.5322320000000  0.5968150000000  0.4713160000000 1.0
C      1  0.6021820000000  0.5564690000000  0.5279120000000 1.0
C      1  0.5192850000000  0.4127300000000  0.4597080000000 1.0
C      1  0.5779500000000  0.5659760000000  0.5351220000000 1.0
C      1  0.4624460000000  0.5624670000000  0.5273130000000 1.0
C      1  0.4329910000000  0.4979860000000  0.4394130000000 1.0
C      1  0.4366450000000  0.5002900000000  0.5308330000000 1.0
C      1  0.5077030000000  0.5288670000000  0.4641550000000 1.0
C      1  0.4253650000000  0.5376200000000  0.5074280000000 1.0
C      1  0.5667810000000  0.5289040000000  0.4804930000000 1.0
C      1  0.5002170000000  0.4406900000000  0.5099150000000 1.0
C      1  0.4212280000000  0.4480020000000  0.4511400000000 1.0
C      1  0.5302200000000  0.5067000000000  0.5095840000000 1.0
C      1  0.4834130000000  0.5499870000000  0.5435580000000 1.0
C      1  0.5802950000000  0.5571240000000  0.4513920000000 1.0
C      1  0.5507930000000  0.5618940000000  0.5417910000000 1.0
C      1  0.5058870000000  0.5341280000000  0.4254620000000 1.0
C      1  0.4713910000000  0.5870640000000  0.4755160000000 1.0
C      1  0.4290280000000  0.5442850000000  0.5575550000000 1.0
C      1  0.4231940000000  0.5485970000000  0.4788290000000 1.0
C      1  0.5041840000000  0.5611470000000  0.5649110000000 1.0
C      1  0.5602830000000  0.4647230000000  0.4522620000000 1.0
C      1  0.5753620000000  0.4948230000000  0.4459560000000 1.0
C      1  0.4058140000000  0.5331320000000  0.4640540000000 1.0
C      1  0.4748860000000  0.4722500000000  0.4863210000000 1.0
C      1  0.4002780000000  0.4923760000000  0.4948640000000 1.0
C      1  0.5676580000000  0.4239260000000  0.5245370000000 1.0
C      1  0.5289500000000  0.5763610000000  0.4169500000000 1.0
C      1  0.4659610000000  0.4153180000000  0.5183520000000 1.0
C      1  0.4012560000000  0.4542540000000  0.5243470000000 1.0
C      1  0.4326560000000  0.5165000000000  0.5671160000000 1.0
C      1  0.5475230000000  0.4193130000000  0.4600070000000 1.0
C      1  0.5196110000000  0.5187430000000  0.4823290000000 1.0
C      1  0.6033540000000  0.5679750000000  0.4446450000000 1.0
C      1  0.5061210000000  0.5846140000000  0.5174410000000 1.0
C      1  0.4294410000000  0.4495460000000  0.4838480000000 1.0
C      1  0.5130410000000  0.4032800000000  0.5109280000000 1.0
C      1  0.5074750000000  0.4000820000000  0.4835360000000 1.0
C      1  0.4495590000000  0.5673800000000  0.4001000000000 1.0
C      1  0.5464200000000  0.4900920000000  0.5420470000000 1.0
C      1  0.5020500000000  0.5562840000000  0.5000920000000 1.0
C      1  0.5356490000000  0.4384100000000  0.5764890000000 1.0
C      1  0.5506250000000  0.5346170000000  0.4333510000000 1.0
C      1  0.4374420000000  0.5640850000000  0.5762140000000 1.0
C      1  0.4532180000000  0.4368090000000  0.4499750000000 1.0
C      1  0.4773760000000  0.5252570000000  0.5031170000000 1.0
C      1  0.4655960000000  0.5652760000000  0.5787930000000 1.0
C      1  0.4536540000000  0.4658080000000  0.4658450000000 1.0
C      1  0.4760830000000  0.5477500000000  0.4796750000000 1.0
C      1  0.5195750000000  0.4891320000000  0.5607720000000 1.0
C      1  0.4610350000000  0.4618970000000  0.4171160000000 1.0
C      1  0.5665390000000  0.5240620000000  0.5669520000000 1.0
C      1  0.4359070000000  0.5519040000000  0.5309570000000 1.0
C      1  0.5611690000000  0.5552180000000  0.4863910000000 1.0
C      1  0.4729410000000  0.4698960000000  0.5382850000000 1.0
C      1  0.5189830000000  0.5164870000000  0.5987760000000 1.0
C      1  0.5454910000000  0.4374230000000  0.5466700000000 1.0
C      1  0.4705090000000  0.4907280000000  0.4511310000000 1.0
C      1  0.4163600000000  0.4793050000000  0.4607180000000 1.0
C      1  0.4777550000000  0.5264550000000  0.4129240000000 1.0
C      1  0.5561760000000  0.4374840000000  0.4409750000000 1.0
C      1  0.5155480000000  0.5673510000000  0.4711870000000 1.0
C      1  0.4672900000000  0.5867280000000  0.5087920000000 1.0
C      1  0.4375170000000  0.4671260000000  0.4292820000000 1.0
C      1  0.5061260000000  0.5285400000000  0.5186240000000 1.0
C      1  0.4262550000000  0.4850600000000  0.5554940000000 1.0
C      1  0.4963280000000  0.4977080000000  0.4131790000000 1.0
C      1  0.4595200000000  0.5108850000000  0.5873330000000 1.0
C      1  0.4389920000000  0.5023070000000  0.4726100000000 1.0
C      1  0.5574610000000  0.4857390000000  0.4184910000000 1.0
C      1  0.5075990000000  0.4906610000000  0.5987980000000 1.0
END
