TITL C-2778437-8639-399 -0.00304165854162948 125000 -866.554096162911 0 0 152 (C1) n - 1
REM
REM in /home/nfs/bkarasulu/CARBON/AIRSS/Generating-Clusters/REBO/Only-C1/SD-CG/HFTN-CG
REM
REM
REM
REM
REM
REM ./C.cell (11c1c37f851c82e70ff6c80c92926a4b)
REM
REM compiler GCC version 9.2.1 20190827 (Red Hat 9.2.1-1)
REM options -cpp -mtune=generic -march=x86-64 -g -O0 -fpre-include=/usr/include/finclude/math-vector-fortran.h
REM seed -653176124 1105725969 688281410 -461465532 -2022085038 1477639972 122581424 521663983 177736563 1957982968 1891306502 -1030701795 134761841 -1280496899 2062730874 -1425192913 -1360623609 -1078067829 1510442624 1299978787 645515392 405574970 -1742045772 -1392872974 -56809142 1984592959 472828550 -1554536122 868575170 -801575147 -348020054 -284563831 302130266
REM
CELL 1.54180   50.00000   50.00000   50.00000   90.00000   90.00000   90.00000
LATT -1
SFAC C  
C      1  0.4266930000000  0.4910450000000  0.5408010000000 1.0
C      1  0.4630300000000  0.4492020000000  0.5935410000000 1.0
C      1  0.4300930000000  0.4291620000000  0.4714840000000 1.0
C      1  0.5180450000000  0.5045560000000  0.3979590000000 1.0
C      1  0.5758800000000  0.4700110000000  0.5446800000000 1.0
C      1  0.4500690000000  0.4758730000000  0.5578100000000 1.0
C      1  0.5385890000000  0.5383010000000  0.4646910000000 1.0
C      1  0.4786580000000  0.5313180000000  0.5867200000000 1.0
C      1  0.5489200000000  0.5774050000000  0.5258350000000 1.0
C      1  0.5636580000000  0.5269730000000  0.4444160000000 1.0
C      1  0.5774660000000  0.4399410000000  0.5467290000000 1.0
C      1  0.5600810000000  0.4955020000000  0.5238830000000 1.0
C      1  0.4652830000000  0.4843150000000  0.4348190000000 1.0
C      1  0.5850960000000  0.5090640000000  0.4586720000000 1.0
C      1  0.5553690000000  0.5616610000000  0.5489700000000 1.0
C      1  0.4531620000000  0.5146470000000  0.5900860000000 1.0
C      1  0.5606800000000  0.5237190000000  0.4161890000000 1.0
C      1  0.5947060000000  0.5553140000000  0.5009290000000 1.0
C      1  0.5941250000000  0.4955010000000  0.5202840000000 1.0
C      1  0.5066370000000  0.5492740000000  0.4687860000000 1.0
C      1  0.4095750000000  0.4913840000000  0.4546350000000 1.0
C      1  0.5624730000000  0.5339620000000  0.5106920000000 1.0
C      1  0.5368320000000  0.4777250000000  0.3998880000000 1.0
C      1  0.4955670000000  0.5398700000000  0.5519630000000 1.0
C      1  0.4583950000000  0.4251290000000  0.4576610000000 1.0
C      1  0.4884900000000  0.4636270000000  0.5514540000000 1.0
C      1  0.5421530000000  0.5573390000000  0.4298470000000 1.0
C      1  0.5524850000000  0.4470970000000  0.5048610000000 1.0
C      1  0.4173070000000  0.5406980000000  0.5187800000000 1.0
C      1  0.5261370000000  0.4253640000000  0.5256030000000 1.0
C      1  0.4623050000000  0.5831460000000  0.5245850000000 1.0
C      1  0.5582110000000  0.4940310000000  0.5565450000000 1.0
C      1  0.5736690000000  0.4868160000000  0.4873570000000 1.0
C      1  0.5150000000000  0.4438400000000  0.4915630000000 1.0
C      1  0.3857110000000  0.4809480000000  0.4731230000000 1.0
C      1  0.4659760000000  0.5673120000000  0.4880880000000 1.0
C      1  0.4699400000000  0.5218310000000  0.5545630000000 1.0
C      1  0.4098110000000  0.4641130000000  0.5142420000000 1.0
C      1  0.5986140000000  0.5213570000000  0.5387910000000 1.0
C      1  0.4648710000000  0.3904110000000  0.5435130000000 1.0
C      1  0.5535770000000  0.4906340000000  0.5972120000000 1.0
C      1  0.4995260000000  0.5595300000000  0.4125800000000 1.0
C      1  0.5150410000000  0.5160820000000  0.6032410000000 1.0
C      1  0.4977730000000  0.4368580000000  0.5233450000000 1.0
C      1  0.5261890000000  0.5140280000000  0.5435460000000 1.0
C      1  0.5129600000000  0.5674130000000  0.4429660000000 1.0
C      1  0.4848390000000  0.5098640000000  0.4354010000000 1.0
C      1  0.4661550000000  0.4958500000000  0.5379130000000 1.0
C      1  0.5347870000000  0.4261840000000  0.5530170000000 1.0
C      1  0.4860250000000  0.4987130000000  0.3970460000000 1.0
C      1  0.6043410000000  0.5436900000000  0.5237840000000 1.0
C      1  0.4828070000000  0.4740650000000  0.5979500000000 1.0
C      1  0.4113350000000  0.5249990000000  0.4601050000000 1.0
C      1  0.5135520000000  0.4924410000000  0.4287120000000 1.0
C      1  0.5338490000000  0.4118220000000  0.5006760000000 1.0
C      1  0.4986790000000  0.4439350000000  0.5771600000000 1.0
C      1  0.5495750000000  0.4689420000000  0.4501770000000 1.0
C      1  0.5659330000000  0.4279630000000  0.5276600000000 1.0
C      1  0.5126950000000  0.4599460000000  0.6019600000000 1.0
C      1  0.5345040000000  0.5315860000000  0.4051710000000 1.0
C      1  0.4867540000000  0.5880340000000  0.5366320000000 1.0
C      1  0.4501100000000  0.4635140000000  0.4741130000000 1.0
C      1  0.4652740000000  0.5190780000000  0.4018690000000 1.0
C      1  0.5352540000000  0.5391880000000  0.5917970000000 1.0
C      1  0.4183050000000  0.4601130000000  0.4619830000000 1.0
C      1  0.5903110000000  0.5406220000000  0.4705680000000 1.0
C      1  0.4914180000000  0.5525270000000  0.4991080000000 1.0
C      1  0.5252160000000  0.4647980000000  0.5152060000000 1.0
C      1  0.4418260000000  0.5335310000000  0.5681020000000 1.0
C      1  0.4691910000000  0.5505560000000  0.4078870000000 1.0
C      1  0.4553250000000  0.4526340000000  0.4125840000000 1.0
C      1  0.4812050000000  0.4703920000000  0.4009620000000 1.0
C      1  0.5199030000000  0.5147360000000  0.4536660000000 1.0
C      1  0.4596200000000  0.5991350000000  0.4985470000000 1.0
C      1  0.5061340000000  0.4924930000000  0.5095760000000 1.0
C      1  0.5329570000000  0.4251430000000  0.4535950000000 1.0
C      1  0.4858900000000  0.5239170000000  0.4723900000000 1.0
C      1  0.4936330000000  0.3783400000000  0.5018750000000 1.0
C      1  0.4419650000000  0.5104850000000  0.4162560000000 1.0
C      1  0.5938920000000  0.4498880000000  0.4582620000000 1.0
C      1  0.5119930000000  0.4208580000000  0.5703590000000 1.0
C      1  0.5285520000000  0.4890480000000  0.5648500000000 1.0
C      1  0.5452530000000  0.4525780000000  0.5666000000000 1.0
C      1  0.4371120000000  0.4794450000000  0.4155320000000 1.0
C      1  0.4864930000000  0.4442480000000  0.4230230000000 1.0
C      1  0.5821500000000  0.4294590000000  0.4673020000000 1.0
C      1  0.4595510000000  0.4885860000000  0.5067270000000 1.0
C      1  0.5383850000000  0.5655620000000  0.5729050000000 1.0
C      1  0.4564500000000  0.4454000000000  0.5607990000000 1.0
C      1  0.5427330000000  0.4939410000000  0.4946650000000 1.0
C      1  0.4106920000000  0.5091900000000  0.4902900000000 1.0
C      1  0.5440800000000  0.4671080000000  0.4238830000000 1.0
C      1  0.4404270000000  0.5001750000000  0.4492170000000 1.0
C      1  0.5328350000000  0.5218380000000  0.5114860000000 1.0
C      1  0.4984820000000  0.4711990000000  0.4681410000000 1.0
C      1  0.4773560000000  0.4580490000000  0.4847720000000 1.0
C      1  0.5081390000000  0.4134960000000  0.4569440000000 1.0
C      1  0.4933310000000  0.4710440000000  0.4389690000000 1.0
C      1  0.5506220000000  0.5680530000000  0.4756900000000 1.0
C      1  0.5583000000000  0.5166020000000  0.5894680000000 1.0
C      1  0.5325080000000  0.5920580000000  0.4755380000000 1.0
C      1  0.5159250000000  0.5662090000000  0.5484230000000 1.0
C      1  0.5787250000000  0.4767240000000  0.4578700000000 1.0
C      1  0.3912160000000  0.4842090000000  0.5014370000000 1.0
C      1  0.5556180000000  0.5313980000000  0.5425760000000 1.0
C      1  0.5135170000000  0.5990450000000  0.4936160000000 1.0
C      1  0.4445810000000  0.4512370000000  0.4423950000000 1.0
C      1  0.5429780000000  0.4644820000000  0.5927690000000 1.0
C      1  0.4303420000000  0.4818850000000  0.4948430000000 1.0
C      1  0.4664250000000  0.5627020000000  0.4581570000000 1.0
C      1  0.5093920000000  0.5316660000000  0.4259420000000 1.0
C      1  0.5631980000000  0.5646130000000  0.5020650000000 1.0
C      1  0.4996640000000  0.5784810000000  0.5907290000000 1.0
C      1  0.4796500000000  0.4639530000000  0.5181900000000 1.0
C      1  0.4842460000000  0.4224080000000  0.4453160000000 1.0
C      1  0.4488650000000  0.5679900000000  0.4290450000000 1.0
C      1  0.4086300000000  0.5432160000000  0.4887080000000 1.0
C      1  0.4452160000000  0.5588910000000  0.5256170000000 1.0
C      1  0.4458890000000  0.5345400000000  0.4776720000000 1.0
C      1  0.5070860000000  0.4012840000000  0.4863380000000 1.0
C      1  0.5832420000000  0.5174510000000  0.4954730000000 1.0
C      1  0.4582920000000  0.5048040000000  0.4777900000000 1.0
C      1  0.5213240000000  0.4631320000000  0.5457210000000 1.0
C      1  0.4850170000000  0.5192060000000  0.5062240000000 1.0
C      1  0.4588710000000  0.4124820000000  0.5587470000000 1.0
C      1  0.4420960000000  0.5936010000000  0.4699400000000 1.0
C      1  0.5810300000000  0.4648950000000  0.5109630000000 1.0
C      1  0.5116390000000  0.4910370000000  0.5904930000000 1.0
C      1  0.4543360000000  0.5302450000000  0.5092910000000 1.0
C      1  0.4106690000000  0.4433410000000  0.5315040000000 1.0
C      1  0.4309720000000  0.5533450000000  0.5538020000000 1.0
C      1  0.4978910000000  0.4950690000000  0.5404960000000 1.0
C      1  0.4777680000000  0.3772220000000  0.5237190000000 1.0
C      1  0.4300100000000  0.5129100000000  0.5258030000000 1.0
C      1  0.4604830000000  0.4193730000000  0.5889800000000 1.0
C      1  0.5060620000000  0.4996260000000  0.4785670000000 1.0
C      1  0.4350630000000  0.5416000000000  0.4459880000000 1.0
C      1  0.4855870000000  0.4273490000000  0.4867180000000 1.0
C      1  0.4320890000000  0.5647190000000  0.4784300000000 1.0
C      1  0.5693380000000  0.5589100000000  0.4506190000000 1.0
C      1  0.4567800000000  0.4873680000000  0.5857930000000 1.0
C      1  0.4744270000000  0.4159410000000  0.5143350000000 1.0
C      1  0.5314010000000  0.4691220000000  0.4756620000000 1.0
C      1  0.4676880000000  0.5346450000000  0.4385570000000 1.0
C      1  0.4693830000000  0.6025610000000  0.4601740000000 1.0
C      1  0.5111820000000  0.5443940000000  0.5224650000000 1.0
C      1  0.5177770000000  0.5887320000000  0.5226370000000 1.0
C      1  0.4887880000000  0.6059940000000  0.4839940000000 1.0
C      1  0.5772700000000  0.5196530000000  0.5632850000000 1.0
C      1  0.5531200000000  0.4279570000000  0.4784200000000 1.0
C      1  0.4816780000000  0.5788700000000  0.4332020000000 1.0
C      1  0.5040350000000  0.5491250000000  0.5837080000000 1.0
END
