TITL C-2778437-8639-1458 -0.00205521354885526 125000 -173.188052419484 0 0 32 (C1) n - 1
REM
REM in /home/nfs/bkarasulu/CARBON/AIRSS/Generating-Clusters/REBO/Only-C1/SD-CG/HFTN-CG
REM
REM
REM
REM
REM
REM ./C.cell (11c1c37f851c82e70ff6c80c92926a4b)
REM
REM compiler GCC version 9.2.1 20190827 (Red Hat 9.2.1-1)
REM options -cpp -mtune=generic -march=x86-64 -g -O0 -fpre-include=/usr/include/finclude/math-vector-fortran.h
REM seed 1932066002 -1129729483 1168882376 -1890481093 856274419 387857967 370515694 1142303654 -1155722117 -1454187020 -2023026783 -1627071679 1524098990 973808949 1506075499 135588232 186977283 -1157291613 750506876 1615110461 -1328702638 1818721401 1902229459 -1613962303 -2057564064 482558935 2002802741 1682361493 1431293517 -993555601 -691700087 2026136145 1185395739
REM
CELL 1.54180   50.00000   50.00000   50.00000   90.00000   90.00000   90.00000
LATT -1
SFAC C  
C      1  0.5102650000000  0.4632970000000  0.5496980000000 1.0
C      1  0.4727810000000  0.4841730000000  0.4942090000000 1.0
C      1  0.5114960000000  0.5181920000000  0.5605570000000 1.0
C      1  0.5494660000000  0.4568050000000  0.4724560000000 1.0
C      1  0.4761600000000  0.5421500000000  0.5333540000000 1.0
C      1  0.4896180000000  0.5354390000000  0.5619880000000 1.0
C      1  0.5570460000000  0.5067750000000  0.4801120000000 1.0
C      1  0.4294870000000  0.5350850000000  0.5495770000000 1.0
C      1  0.4832290000000  0.5080160000000  0.4530210000000 1.0
C      1  0.5149390000000  0.4991740000000  0.4300460000000 1.0
C      1  0.5180200000000  0.4885010000000  0.4556620000000 1.0
C      1  0.5472210000000  0.4847360000000  0.4657960000000 1.0
C      1  0.5037170000000  0.4602380000000  0.4613880000000 1.0
C      1  0.5018540000000  0.4870540000000  0.5063420000000 1.0
C      1  0.5021340000000  0.5234840000000  0.5222540000000 1.0
C      1  0.5232530000000  0.4447750000000  0.4765240000000 1.0
C      1  0.4841970000000  0.5317670000000  0.4751350000000 1.0
C      1  0.4569530000000  0.5083380000000  0.4828910000000 1.0
C      1  0.5169060000000  0.4378370000000  0.5039900000000 1.0
C      1  0.5040990000000  0.5045930000000  0.4800040000000 1.0
C      1  0.4753900000000  0.4610230000000  0.4575670000000 1.0
C      1  0.4477340000000  0.5328430000000  0.5289440000000 1.0
C      1  0.4839450000000  0.5640290000000  0.5121020000000 1.0
C      1  0.5487940000000  0.5250330000000  0.4983730000000 1.0
C      1  0.5313560000000  0.5329290000000  0.5187190000000 1.0
C      1  0.5349900000000  0.5306070000000  0.5484980000000 1.0
C      1  0.5110010000000  0.4598430000000  0.5203850000000 1.0
C      1  0.5191720000000  0.4123540000000  0.5131500000000 1.0
C      1  0.5041770000000  0.4941880000000  0.5395580000000 1.0
C      1  0.4626760000000  0.4865920000000  0.4557030000000 1.0
C      1  0.4858420000000  0.5575220000000  0.4878850000000 1.0
C      1  0.4420850000000  0.5226050000000  0.5041090000000 1.0
END
