TITL C-2778422-5617-436 0.207317401032594 125000 -793.130237783058 0 0 140 (C1) n - 1
REM
REM in /home/nfs/bkarasulu/CARBON/AIRSS/Generating-Clusters/REBO/Only-C1/SD-CG/HFTN-CG
REM
REM
REM
REM
REM
REM ./C.cell (11c1c37f851c82e70ff6c80c92926a4b)
REM
REM compiler GCC version 9.2.1 20190827 (Red Hat 9.2.1-1)
REM options -cpp -mtune=generic -march=x86-64 -g -O0 -fpre-include=/usr/include/finclude/math-vector-fortran.h
REM seed 1193168672 -1537964981 -404234870 259023516 -803078353 -1521425815 -1737593463 1983502777 -228553017 -995183520 1880943299 -1318460363 111930320 -1657391543 73675212 -2129310537 -654935085 -203833768 1937935714 436964746 -546248583 1199902031 1369629315 -1816703290 1422947230 -1881814973 1243267612 1156237392 -1861169454 -1283978559 -720259973 991764251 -1539169909
REM
CELL 1.54180   50.00000   50.00000   50.00000   90.00000   90.00000   90.00000
LATT -1
SFAC C  
C      1  0.4248150000000  0.5248010000000  0.4532710000000 1.0
C      1  0.5723740000000  0.5502250000000  0.4498940000000 1.0
C      1  0.4001100000000  0.4555160000000  0.5450680000000 1.0
C      1  0.5096830000000  0.4706610000000  0.4216070000000 1.0
C      1  0.5700200000000  0.4311570000000  0.4637510000000 1.0
C      1  0.5347610000000  0.4659780000000  0.5492600000000 1.0
C      1  0.4905970000000  0.5008330000000  0.5808310000000 1.0
C      1  0.4367390000000  0.4700930000000  0.5922070000000 1.0
C      1  0.5858970000000  0.4695890000000  0.5305680000000 1.0
C      1  0.4953070000000  0.4176650000000  0.5574460000000 1.0
C      1  0.5182180000000  0.4204970000000  0.5338240000000 1.0
C      1  0.5194030000000  0.4558800000000  0.5781370000000 1.0
C      1  0.5472160000000  0.4795340000000  0.4746070000000 1.0
C      1  0.5773910000000  0.5388780000000  0.4878670000000 1.0
C      1  0.4911000000000  0.5587840000000  0.5417600000000 1.0
C      1  0.6084650000000  0.4867950000000  0.5133100000000 1.0
C      1  0.4591520000000  0.4925170000000  0.5917590000000 1.0
C      1  0.4613480000000  0.4636190000000  0.4253710000000 1.0
C      1  0.5465820000000  0.5471250000000  0.5239200000000 1.0
C      1  0.5266340000000  0.5590160000000  0.5022030000000 1.0
C      1  0.4897900000000  0.4243910000000  0.4056230000000 1.0
C      1  0.4660630000000  0.4535830000000  0.4813250000000 1.0
C      1  0.5195360000000  0.4022040000000  0.5093070000000 1.0
C      1  0.5335100000000  0.4914420000000  0.5034690000000 1.0
C      1  0.4192780000000  0.5373500000000  0.4902720000000 1.0
C      1  0.4467050000000  0.5230040000000  0.4968600000000 1.0
C      1  0.5152020000000  0.5588810000000  0.4281860000000 1.0
C      1  0.4251580000000  0.4008700000000  0.5808730000000 1.0
C      1  0.4205770000000  0.4681150000000  0.5646550000000 1.0
C      1  0.4838500000000  0.4590740000000  0.5073710000000 1.0
C      1  0.5390830000000  0.5365850000000  0.4671010000000 1.0
C      1  0.5921350000000  0.5009160000000  0.4330090000000 1.0
C      1  0.4518270000000  0.4803650000000  0.5201680000000 1.0
C      1  0.4079600000000  0.4606750000000  0.4705880000000 1.0
C      1  0.5542850000000  0.5262770000000  0.4115940000000 1.0
C      1  0.5089990000000  0.5863840000000  0.4440800000000 1.0
C      1  0.5205490000000  0.4059550000000  0.4545290000000 1.0
C      1  0.5687960000000  0.5237180000000  0.5894650000000 1.0
C      1  0.4166070000000  0.5043300000000  0.4793770000000 1.0
C      1  0.4757130000000  0.4523610000000  0.5585400000000 1.0
C      1  0.5572620000000  0.5130430000000  0.4935280000000 1.0
C      1  0.4965120000000  0.4398140000000  0.5790030000000 1.0
C      1  0.5189740000000  0.4933600000000  0.4108590000000 1.0
C      1  0.4375450000000  0.4579920000000  0.5330790000000 1.0
C      1  0.4877750000000  0.4063270000000  0.4646280000000 1.0
C      1  0.4616460000000  0.4083640000000  0.4727160000000 1.0
C      1  0.4814760000000  0.5252960000000  0.4111090000000 1.0
C      1  0.4864850000000  0.4453440000000  0.4561610000000 1.0
C      1  0.4902200000000  0.4398230000000  0.5318100000000 1.0
C      1  0.5188230000000  0.5693890000000  0.5528970000000 1.0
C      1  0.5798660000000  0.4300380000000  0.4933270000000 1.0
C      1  0.4838000000000  0.4863580000000  0.5248220000000 1.0
C      1  0.5161020000000  0.5306230000000  0.4893760000000 1.0
C      1  0.4365650000000  0.4207220000000  0.5681230000000 1.0
C      1  0.5681410000000  0.4196700000000  0.5235790000000 1.0
C      1  0.4281190000000  0.5567150000000  0.4645750000000 1.0
C      1  0.4445230000000  0.5233540000000  0.4258640000000 1.0
C      1  0.5521080000000  0.5665240000000  0.4700400000000 1.0
C      1  0.4563570000000  0.5738670000000  0.4876740000000 1.0
C      1  0.5322030000000  0.4604280000000  0.4575820000000 1.0
C      1  0.4620340000000  0.4991130000000  0.4021930000000 1.0
C      1  0.4448740000000  0.4302520000000  0.4838170000000 1.0
C      1  0.5398880000000  0.4308800000000  0.4492130000000 1.0
C      1  0.4911430000000  0.5178260000000  0.4752860000000 1.0
C      1  0.5356820000000  0.5468030000000  0.4144040000000 1.0
C      1  0.4511630000000  0.5472880000000  0.5340810000000 1.0
C      1  0.4742150000000  0.4839480000000  0.5560380000000 1.0
C      1  0.4767340000000  0.5827670000000  0.4720370000000 1.0
C      1  0.4652480000000  0.5943130000000  0.5208280000000 1.0
C      1  0.5536190000000  0.4770890000000  0.4223250000000 1.0
C      1  0.5507560000000  0.4783690000000  0.5834670000000 1.0
C      1  0.5581190000000  0.4476190000000  0.5112560000000 1.0
C      1  0.4881200000000  0.5979190000000  0.5123650000000 1.0
C      1  0.5336520000000  0.5838340000000  0.5327700000000 1.0
C      1  0.4391260000000  0.5084940000000  0.5237890000000 1.0
C      1  0.4653800000000  0.5504810000000  0.4222090000000 1.0
C      1  0.4757570000000  0.4912920000000  0.4722130000000 1.0
C      1  0.4541230000000  0.5095370000000  0.4554280000000 1.0
C      1  0.5636480000000  0.5765140000000  0.5273280000000 1.0
C      1  0.5522470000000  0.5028460000000  0.4308070000000 1.0
C      1  0.3991160000000  0.5064970000000  0.5053020000000 1.0
C      1  0.5783920000000  0.4361220000000  0.5816000000000 1.0
C      1  0.5125440000000  0.5255400000000  0.4499600000000 1.0
C      1  0.4590850000000  0.5513020000000  0.4548150000000 1.0
C      1  0.5939520000000  0.4599860000000  0.4989670000000 1.0
C      1  0.5042270000000  0.5296470000000  0.5535710000000 1.0
C      1  0.5648740000000  0.4508980000000  0.4366310000000 1.0
C      1  0.5247370000000  0.5542460000000  0.5772020000000 1.0
C      1  0.4817150000000  0.5797820000000  0.4284110000000 1.0
C      1  0.5111510000000  0.4482820000000  0.4989460000000 1.0
C      1  0.5867030000000  0.5279830000000  0.4451560000000 1.0
C      1  0.4558420000000  0.5225680000000  0.5832580000000 1.0
C      1  0.4914350000000  0.4756460000000  0.4486870000000 1.0
C      1  0.5415350000000  0.4666890000000  0.5197890000000 1.0
C      1  0.4461450000000  0.4900000000000  0.4890950000000 1.0
C      1  0.5072690000000  0.5052370000000  0.5201240000000 1.0
C      1  0.4874190000000  0.4462480000000  0.4221310000000 1.0
C      1  0.4730910000000  0.5500370000000  0.5893850000000 1.0
C      1  0.5684130000000  0.4966620000000  0.5925720000000 1.0
C      1  0.4686400000000  0.5537880000000  0.5092700000000 1.0
C      1  0.4481720000000  0.4409200000000  0.5551490000000 1.0
C      1  0.5870530000000  0.4759590000000  0.4440610000000 1.0
C      1  0.4095970000000  0.5254410000000  0.5270700000000 1.0
C      1  0.5281660000000  0.4987600000000  0.5460180000000 1.0
C      1  0.5823430000000  0.5149670000000  0.4076150000000 1.0
C      1  0.5703760000000  0.5226300000000  0.5231880000000 1.0
C      1  0.4962480000000  0.5371460000000  0.5156200000000 1.0
C      1  0.4387900000000  0.5764580000000  0.5231780000000 1.0
C      1  0.4705620000000  0.5265490000000  0.5528200000000 1.0
C      1  0.4292340000000  0.5202530000000  0.5534890000000 1.0
C      1  0.5088780000000  0.4332260000000  0.4750380000000 1.0
C      1  0.5856940000000  0.5521320000000  0.5184050000000 1.0
C      1  0.5712850000000  0.5717440000000  0.4945040000000 1.0
C      1  0.5280070000000  0.5863480000000  0.4724850000000 1.0
C      1  0.4125330000000  0.4467670000000  0.5176350000000 1.0
C      1  0.5521580000000  0.5079560000000  0.4600360000000 1.0
C      1  0.5182370000000  0.5919310000000  0.5050460000000 1.0
C      1  0.5507670000000  0.5394000000000  0.5756490000000 1.0
C      1  0.4760140000000  0.4998570000000  0.4332980000000 1.0
C      1  0.5460020000000  0.4281450000000  0.5439300000000 1.0
C      1  0.4384670000000  0.4893170000000  0.4248280000000 1.0
C      1  0.5757250000000  0.4638770000000  0.4727180000000 1.0
C      1  0.4426370000000  0.4927570000000  0.5603550000000 1.0
C      1  0.4181770000000  0.4415680000000  0.4900310000000 1.0
C      1  0.4931370000000  0.5511120000000  0.4532930000000 1.0
C      1  0.4687880000000  0.5675170000000  0.5631450000000 1.0
C      1  0.5876590000000  0.5015480000000  0.5338830000000 1.0
C      1  0.5190420000000  0.4891050000000  0.5772870000000 1.0
C      1  0.4687450000000  0.5364660000000  0.4811320000000 1.0
C      1  0.5100170000000  0.5169170000000  0.4211220000000 1.0
C      1  0.5570740000000  0.4485480000000  0.5684040000000 1.0
C      1  0.5031860000000  0.5667300000000  0.4782470000000 1.0
C      1  0.4406250000000  0.5482170000000  0.5665180000000 1.0
C      1  0.4244800000000  0.5766230000000  0.4919900000000 1.0
C      1  0.4520060000000  0.4653460000000  0.4536180000000 1.0
C      1  0.5203250000000  0.3964040000000  0.4856400000000 1.0
C      1  0.4241200000000  0.4751990000000  0.4525550000000 1.0
C      1  0.5363560000000  0.5298090000000  0.5479070000000 1.0
C      1  0.4993160000000  0.5333610000000  0.5862130000000 1.0
C      1  0.4122550000000  0.5559460000000  0.5163510000000 1.0
END
