TITL C-2778430-5657-1496 -0.00226097344289439 125000 -510.771755238709 0 0 90 (C1) n - 1
REM
REM in /home/nfs/bkarasulu/CARBON/AIRSS/Generating-Clusters/REBO/Only-C1/SD-CG/HFTN-CG
REM
REM
REM
REM
REM
REM ./C.cell (11c1c37f851c82e70ff6c80c92926a4b)
REM
REM compiler GCC version 9.2.1 20190827 (Red Hat 9.2.1-1)
REM options -cpp -mtune=generic -march=x86-64 -g -O0 -fpre-include=/usr/include/finclude/math-vector-fortran.h
REM seed 1531342335 -1299110006 -295722607 1566989029 340820067 2142109992 886202271 -115799370 1804140287 -995036876 1267415200 1981197704 1252558383 -742449919 2134259019 -1864809303 -22886453 -813710462 1046340888 -892013219 -2117444529 2034846162 1331555819 -766715911 589542633 -2049522416 -982669090 -930013158 -1308196729 -1857776090 -2145736160 -1101695953 919917960
REM
CELL 1.54180   50.00000   50.00000   50.00000   90.00000   90.00000   90.00000
LATT -1
SFAC C  
C      1  0.5103640000000  0.4687100000000  0.5234240000000 1.0
C      1  0.4786910000000  0.5766660000000  0.5139460000000 1.0
C      1  0.4524070000000  0.4321910000000  0.5055400000000 1.0
C      1  0.4551930000000  0.4960750000000  0.4627630000000 1.0
C      1  0.4713230000000  0.5422940000000  0.5369780000000 1.0
C      1  0.5686500000000  0.5467290000000  0.5321680000000 1.0
C      1  0.5391840000000  0.4995270000000  0.5121050000000 1.0
C      1  0.4585970000000  0.5106280000000  0.5163700000000 1.0
C      1  0.5399820000000  0.4603650000000  0.5597710000000 1.0
C      1  0.5774710000000  0.5053380000000  0.4648090000000 1.0
C      1  0.4778250000000  0.5083750000000  0.5919910000000 1.0
C      1  0.5562550000000  0.4603030000000  0.4519320000000 1.0
C      1  0.4824190000000  0.5100940000000  0.5372360000000 1.0
C      1  0.4462550000000  0.4502560000000  0.5309170000000 1.0
C      1  0.5440260000000  0.4422240000000  0.4787100000000 1.0
C      1  0.5585650000000  0.4839750000000  0.5244330000000 1.0
C      1  0.4254520000000  0.4878060000000  0.5065020000000 1.0
C      1  0.5178920000000  0.4041450000000  0.5144180000000 1.0
C      1  0.5586460000000  0.5680440000000  0.4892840000000 1.0
C      1  0.5912140000000  0.4847050000000  0.4786760000000 1.0
C      1  0.4986820000000  0.4360080000000  0.5431390000000 1.0
C      1  0.4575460000000  0.4873120000000  0.4944200000000 1.0
C      1  0.4253450000000  0.4735650000000  0.4756960000000 1.0
C      1  0.4806070000000  0.4692890000000  0.4973950000000 1.0
C      1  0.5029690000000  0.4957540000000  0.5925820000000 1.0
C      1  0.4925520000000  0.4933110000000  0.4766780000000 1.0
C      1  0.4422150000000  0.4933690000000  0.5552440000000 1.0
C      1  0.5235280000000  0.4861290000000  0.5672650000000 1.0
C      1  0.5296270000000  0.4868320000000  0.4646690000000 1.0
C      1  0.4773100000000  0.5441620000000  0.5052300000000 1.0
C      1  0.4721440000000  0.5227730000000  0.4591240000000 1.0
C      1  0.4410570000000  0.4724080000000  0.4454770000000 1.0
C      1  0.5115910000000  0.5391730000000  0.5092550000000 1.0
C      1  0.4774950000000  0.4705500000000  0.4296380000000 1.0
C      1  0.4868380000000  0.5699860000000  0.5461520000000 1.0
C      1  0.4558610000000  0.5273620000000  0.4869930000000 1.0
C      1  0.4722140000000  0.5626700000000  0.4577440000000 1.0
C      1  0.4538730000000  0.4937290000000  0.4229120000000 1.0
C      1  0.4479490000000  0.5231490000000  0.5526870000000 1.0
C      1  0.4478440000000  0.4478350000000  0.4762150000000 1.0
C      1  0.5361100000000  0.5559390000000  0.5360180000000 1.0
C      1  0.4453040000000  0.5514770000000  0.4524920000000 1.0
C      1  0.4692830000000  0.4112590000000  0.5117740000000 1.0
C      1  0.5842960000000  0.4710900000000  0.5079480000000 1.0
C      1  0.5279110000000  0.5075190000000  0.4888320000000 1.0
C      1  0.5098000000000  0.5737550000000  0.4893300000000 1.0
C      1  0.4352620000000  0.5337130000000  0.5227250000000 1.0
C      1  0.5897270000000  0.5222580000000  0.5299080000000 1.0
C      1  0.4705110000000  0.5302730000000  0.5751120000000 1.0
C      1  0.4930300000000  0.4384990000000  0.4474420000000 1.0
C      1  0.5748760000000  0.4552160000000  0.4798730000000 1.0
C      1  0.4927600000000  0.5436130000000  0.4451260000000 1.0
C      1  0.4806700000000  0.5758190000000  0.4810160000000 1.0
C      1  0.4798090000000  0.4353450000000  0.4765940000000 1.0
C      1  0.5551890000000  0.4927910000000  0.4467770000000 1.0
C      1  0.5685940000000  0.5303130000000  0.4765990000000 1.0
C      1  0.5416370000000  0.5539310000000  0.5030670000000 1.0
C      1  0.5403310000000  0.5651540000000  0.5685320000000 1.0
C      1  0.5116820000000  0.5763150000000  0.5234720000000 1.0
C      1  0.4787000000000  0.4552000000000  0.5248940000000 1.0
C      1  0.5202310000000  0.5392510000000  0.5686630000000 1.0
C      1  0.5770170000000  0.5353260000000  0.5029550000000 1.0
C      1  0.4828860000000  0.5113260000000  0.4202140000000 1.0
C      1  0.4285940000000  0.4765210000000  0.5334150000000 1.0
C      1  0.4279200000000  0.5084590000000  0.4795980000000 1.0
C      1  0.4823330000000  0.4550050000000  0.5647000000000 1.0
C      1  0.5082610000000  0.4895960000000  0.4137410000000 1.0
C      1  0.5115900000000  0.5247660000000  0.4319060000000 1.0
C      1  0.4271320000000  0.5521880000000  0.4746350000000 1.0
C      1  0.4985410000000  0.4336780000000  0.4962580000000 1.0
C      1  0.5277010000000  0.5144130000000  0.5848590000000 1.0
C      1  0.5874260000000  0.4944180000000  0.5320380000000 1.0
C      1  0.5082690000000  0.4568450000000  0.4230990000000 1.0
C      1  0.5187920000000  0.5263120000000  0.5379980000000 1.0
C      1  0.4585800000000  0.4667090000000  0.5573880000000 1.0
C      1  0.4933770000000  0.4094410000000  0.5275300000000 1.0
C      1  0.5138700000000  0.4703520000000  0.4903260000000 1.0
C      1  0.5447180000000  0.5404170000000  0.4624780000000 1.0
C      1  0.4243490000000  0.5469280000000  0.5017500000000 1.0
C      1  0.5263000000000  0.4454870000000  0.4496360000000 1.0
C      1  0.5362660000000  0.5202970000000  0.4431180000000 1.0
C      1  0.5011220000000  0.4877110000000  0.4469920000000 1.0
C      1  0.5104910000000  0.4950930000000  0.5398970000000 1.0
C      1  0.5256980000000  0.5620330000000  0.4675500000000 1.0
C      1  0.5294520000000  0.4461750000000  0.5361960000000 1.0
C      1  0.4538140000000  0.5262720000000  0.4311530000000 1.0
C      1  0.4911870000000  0.5498600000000  0.5704840000000 1.0
C      1  0.5003380000000  0.5220420000000  0.4847740000000 1.0
C      1  0.4599370000000  0.4459630000000  0.4443380000000 1.0
C      1  0.5306670000000  0.4338210000000  0.5042920000000 1.0
END
