TITL C-2778422-5617-496 0.122561041123263 125000 -821.68087855638 0 0 141 (C1) n - 1
REM
REM in /home/nfs/bkarasulu/CARBON/AIRSS/Generating-Clusters/REBO/Only-C1/SD-CG/HFTN-CG
REM
REM
REM
REM
REM
REM ./C.cell (11c1c37f851c82e70ff6c80c92926a4b)
REM
REM compiler GCC version 9.2.1 20190827 (Red Hat 9.2.1-1)
REM options -cpp -mtune=generic -march=x86-64 -g -O0 -fpre-include=/usr/include/finclude/math-vector-fortran.h
REM seed 1206970601 -1634733678 -627108446 -307426681 304745180 -1888696052 -444273991 -448383983 -2061967480 1847953934 2078433398 -1330707679 -1995024565 -1532279779 1202851812 1320190540 -804961259 1950322976 976262713 1131990886 -919633475 -419744846 -1718002463 883978988 -595265652 -602602666 -1864077053 -339017229 -370435319 -94455113 1345598182 310738520 -842406593
REM
CELL 1.54180   50.00000   50.00000   50.00000   90.00000   90.00000   90.00000
LATT -1
SFAC C  
C      1  0.4958470000000  0.4760720000000  0.4395720000000 1.0
C      1  0.4462590000000  0.5011690000000  0.4287450000000 1.0
C      1  0.4561940000000  0.5258210000000  0.4701440000000 1.0
C      1  0.3903190000000  0.5064100000000  0.5255660000000 1.0
C      1  0.5543740000000  0.5346710000000  0.5784220000000 1.0
C      1  0.5600510000000  0.4677290000000  0.5786430000000 1.0
C      1  0.5432350000000  0.4813780000000  0.5182660000000 1.0
C      1  0.4805240000000  0.4877180000000  0.5040250000000 1.0
C      1  0.5693050000000  0.5112940000000  0.5207010000000 1.0
C      1  0.4527030000000  0.4730030000000  0.5098750000000 1.0
C      1  0.5328270000000  0.5201050000000  0.4079740000000 1.0
C      1  0.5075370000000  0.5284590000000  0.4420410000000 1.0
C      1  0.4320000000000  0.5547810000000  0.4828640000000 1.0
C      1  0.4969920000000  0.4178490000000  0.5607840000000 1.0
C      1  0.4961510000000  0.5252070000000  0.5605500000000 1.0
C      1  0.5276070000000  0.5219420000000  0.5622070000000 1.0
C      1  0.5571350000000  0.4764420000000  0.4364620000000 1.0
C      1  0.5080710000000  0.4181080000000  0.4410030000000 1.0
C      1  0.5081700000000  0.4974010000000  0.4156880000000 1.0
C      1  0.5603250000000  0.4366120000000  0.5655200000000 1.0
C      1  0.5187240000000  0.4582260000000  0.5361340000000 1.0
C      1  0.5054370000000  0.4773280000000  0.6047560000000 1.0
C      1  0.4803000000000  0.5968890000000  0.4684570000000 1.0
C      1  0.5635560000000  0.5534830000000  0.4963530000000 1.0
C      1  0.5570550000000  0.5355520000000  0.4470680000000 1.0
C      1  0.5475360000000  0.4284780000000  0.4744840000000 1.0
C      1  0.4534590000000  0.4338620000000  0.4883000000000 1.0
C      1  0.4522790000000  0.4271460000000  0.4488870000000 1.0
C      1  0.5836800000000  0.5059700000000  0.4502120000000 1.0
C      1  0.4550840000000  0.5060990000000  0.5955780000000 1.0
C      1  0.5247810000000  0.4423030000000  0.4236720000000 1.0
C      1  0.5165860000000  0.4531210000000  0.4811580000000 1.0
C      1  0.4719830000000  0.5561460000000  0.5673100000000 1.0
C      1  0.5183490000000  0.5370560000000  0.4795170000000 1.0
C      1  0.5853810000000  0.4586550000000  0.4948580000000 1.0
C      1  0.5068180000000  0.5085640000000  0.5258760000000 1.0
C      1  0.4801970000000  0.4124030000000  0.4932090000000 1.0
C      1  0.5457020000000  0.5540430000000  0.5242010000000 1.0
C      1  0.3909830000000  0.5309100000000  0.5111020000000 1.0
C      1  0.5544440000000  0.5655970000000  0.4342580000000 1.0
C      1  0.5786730000000  0.5498570000000  0.5249530000000 1.0
C      1  0.4353190000000  0.5495390000000  0.4286070000000 1.0
C      1  0.4926350000000  0.4595350000000  0.5865880000000 1.0
C      1  0.5725520000000  0.5690440000000  0.4614050000000 1.0
C      1  0.5400580000000  0.4157260000000  0.4477960000000 1.0
C      1  0.5390730000000  0.5099860000000  0.5363820000000 1.0
C      1  0.5361320000000  0.5120920000000  0.5934190000000 1.0
C      1  0.5149300000000  0.4080850000000  0.5398060000000 1.0
C      1  0.4813460000000  0.5623090000000  0.5122450000000 1.0
C      1  0.5548170000000  0.4451560000000  0.4390480000000 1.0
C      1  0.5765540000000  0.4896580000000  0.5652400000000 1.0
C      1  0.5593790000000  0.5103820000000  0.4033900000000 1.0
C      1  0.4306970000000  0.4628260000000  0.5674470000000 1.0
C      1  0.4718370000000  0.4282660000000  0.5521430000000 1.0
C      1  0.4129870000000  0.4377320000000  0.5168500000000 1.0
C      1  0.5792990000000  0.5189770000000  0.5683360000000 1.0
C      1  0.5485760000000  0.4453830000000  0.5355060000000 1.0
C      1  0.4602880000000  0.4525780000000  0.5641150000000 1.0
C      1  0.5027760000000  0.5506550000000  0.5809100000000 1.0
C      1  0.4292570000000  0.4786350000000  0.4909500000000 1.0
C      1  0.4943340000000  0.5821810000000  0.4474830000000 1.0
C      1  0.4803530000000  0.5039250000000  0.5752920000000 1.0
C      1  0.4213170000000  0.5574850000000  0.5490290000000 1.0
C      1  0.4777780000000  0.4516730000000  0.4874930000000 1.0
C      1  0.4802750000000  0.4219020000000  0.4605730000000 1.0
C      1  0.4412430000000  0.5414120000000  0.5671130000000 1.0
C      1  0.5782980000000  0.4853930000000  0.5367720000000 1.0
C      1  0.4433050000000  0.4528320000000  0.4437290000000 1.0
C      1  0.5380470000000  0.5750850000000  0.5461900000000 1.0
C      1  0.4808510000000  0.5145220000000  0.4558150000000 1.0
C      1  0.6161680000000  0.4984780000000  0.4853180000000 1.0
C      1  0.6104070000000  0.5224970000000  0.4749440000000 1.0
C      1  0.5877090000000  0.5283530000000  0.5424770000000 1.0
C      1  0.5094610000000  0.5271280000000  0.6028770000000 1.0
C      1  0.5316130000000  0.4190220000000  0.4956950000000 1.0
C      1  0.5677940000000  0.4552250000000  0.4689820000000 1.0
C      1  0.5546310000000  0.5826960000000  0.4871410000000 1.0
C      1  0.5734310000000  0.4887690000000  0.4717240000000 1.0
C      1  0.4378740000000  0.5046610000000  0.5280590000000 1.0
C      1  0.4322650000000  0.5134360000000  0.5816600000000 1.0
C      1  0.5317890000000  0.5473550000000  0.4167210000000 1.0
C      1  0.4821870000000  0.4780610000000  0.4713550000000 1.0
C      1  0.4611810000000  0.5118890000000  0.5075210000000 1.0
C      1  0.5047840000000  0.5083930000000  0.4761970000000 1.0
C      1  0.4806720000000  0.4769720000000  0.5611910000000 1.0
C      1  0.5333220000000  0.5604660000000  0.5710730000000 1.0
C      1  0.4277540000000  0.4460100000000  0.5418660000000 1.0
C      1  0.5741260000000  0.4965700000000  0.4233930000000 1.0
C      1  0.5227830000000  0.5741100000000  0.4359330000000 1.0
C      1  0.5155260000000  0.4609600000000  0.4072540000000 1.0
C      1  0.5319030000000  0.5166580000000  0.4476750000000 1.0
C      1  0.4916480000000  0.5032950000000  0.6059570000000 1.0
C      1  0.5690100000000  0.4613830000000  0.5194760000000 1.0
C      1  0.5123330000000  0.5915570000000  0.5056240000000 1.0
C      1  0.3884080000000  0.4263710000000  0.5166110000000 1.0
C      1  0.5019780000000  0.4482310000000  0.5104480000000 1.0
C      1  0.5263390000000  0.5749450000000  0.4698610000000 1.0
C      1  0.4757390000000  0.4304360000000  0.5211420000000 1.0
C      1  0.4101080000000  0.4878040000000  0.4672370000000 1.0
C      1  0.4621170000000  0.4776590000000  0.4438850000000 1.0
C      1  0.5423120000000  0.4152680000000  0.5464940000000 1.0
C      1  0.5087500000000  0.4356440000000  0.5793510000000 1.0
C      1  0.5245940000000  0.5605640000000  0.5013600000000 1.0
C      1  0.4578960000000  0.5265120000000  0.5444380000000 1.0
C      1  0.4195990000000  0.4907830000000  0.5674680000000 1.0
C      1  0.4660840000000  0.5549340000000  0.4834160000000 1.0
C      1  0.4133680000000  0.4983320000000  0.5399850000000 1.0
C      1  0.4976830000000  0.5184490000000  0.3907890000000 1.0
C      1  0.4535170000000  0.5283960000000  0.4108340000000 1.0
C      1  0.6077200000000  0.4738160000000  0.4923890000000 1.0
C      1  0.4491660000000  0.5401860000000  0.5155420000000 1.0
C      1  0.4867730000000  0.5338520000000  0.5301090000000 1.0
C      1  0.5878170000000  0.5385610000000  0.4595960000000 1.0
C      1  0.4205500000000  0.4729410000000  0.4401370000000 1.0
C      1  0.4520440000000  0.4498180000000  0.5251160000000 1.0
C      1  0.5249340000000  0.5034580000000  0.4998450000000 1.0
C      1  0.4192380000000  0.5076400000000  0.4425660000000 1.0
C      1  0.4949320000000  0.4798270000000  0.5338520000000 1.0
C      1  0.4851200000000  0.5911000000000  0.4957040000000 1.0
C      1  0.5283790000000  0.4595800000000  0.5687730000000 1.0
C      1  0.4067970000000  0.5316620000000  0.4857940000000 1.0
C      1  0.5502720000000  0.5334190000000  0.4788200000000 1.0
C      1  0.5013820000000  0.4468440000000  0.4557450000000 1.0
C      1  0.4864000000000  0.5468020000000  0.4296590000000 1.0
C      1  0.4751090000000  0.5698200000000  0.5429610000000 1.0
C      1  0.5579660000000  0.5062780000000  0.4915750000000 1.0
C      1  0.5091460000000  0.4090560000000  0.5108410000000 1.0
C      1  0.5348140000000  0.4816490000000  0.5946150000000 1.0
C      1  0.4781930000000  0.5082050000000  0.4241180000000 1.0
C      1  0.4322300000000  0.5107800000000  0.4801660000000 1.0
C      1  0.3981380000000  0.5534640000000  0.5267730000000 1.0
C      1  0.4617940000000  0.5477990000000  0.4446830000000 1.0
C      1  0.4356520000000  0.4052070000000  0.4453800000000 1.0
C      1  0.4195430000000  0.5389560000000  0.4549650000000 1.0
C      1  0.4953770000000  0.5601220000000  0.4726900000000 1.0
C      1  0.5330030000000  0.4734070000000  0.4758210000000 1.0
C      1  0.4274670000000  0.5630350000000  0.5156750000000 1.0
C      1  0.4283720000000  0.4460470000000  0.4932130000000 1.0
C      1  0.5417400000000  0.5927790000000  0.5172340000000 1.0
C      1  0.4820890000000  0.5395720000000  0.3998730000000 1.0
C      1  0.5380330000000  0.4892140000000  0.4532720000000 1.0
END
