TITL C-2778424-3986-809 0.00081668873117033 125000 -784.898750965295 0 0 135 (C1) n - 1
REM
REM in /home/nfs/bkarasulu/CARBON/AIRSS/Generating-Clusters/REBO/Only-C1/SD-CG/HFTN-CG
REM
REM
REM
REM
REM
REM ./C.cell (11c1c37f851c82e70ff6c80c92926a4b)
REM
REM compiler GCC version 9.2.1 20190827 (Red Hat 9.2.1-1)
REM options -cpp -mtune=generic -march=x86-64 -g -O0 -fpre-include=/usr/include/finclude/math-vector-fortran.h
REM seed -1279880033 -548852703 -1286933099 1459678569 380595733 -1792164986 -939098534 627548024 -1432519880 227568873 -1194863707 -673788101 1780996597 1375475138 1526545370 2025081924 1573912889 -92329234 1294878654 1507065646 -531905245 -736163468 1592685843 1878138997 657204132 -775847177 1062608091 1875507784 -390250252 -976649360 523154023 2057549387 -1269402909
REM
CELL 1.54180   50.00000   50.00000   50.00000   90.00000   90.00000   90.00000
LATT -1
SFAC C  
C      1  0.4896380000000  0.4581020000000  0.5082340000000 1.0
C      1  0.5392270000000  0.4534120000000  0.4317310000000 1.0
C      1  0.5949630000000  0.4990220000000  0.5207660000000 1.0
C      1  0.5640030000000  0.4623420000000  0.4482380000000 1.0
C      1  0.5627120000000  0.4333230000000  0.5123650000000 1.0
C      1  0.5480170000000  0.4950630000000  0.4322000000000 1.0
C      1  0.3980560000000  0.5214650000000  0.5065890000000 1.0
C      1  0.4168680000000  0.5105570000000  0.4578680000000 1.0
C      1  0.5622460000000  0.4961280000000  0.4695610000000 1.0
C      1  0.4106040000000  0.5363780000000  0.4599990000000 1.0
C      1  0.4482760000000  0.5144860000000  0.4336570000000 1.0
C      1  0.5311850000000  0.4993170000000  0.5768840000000 1.0
C      1  0.4707240000000  0.4081160000000  0.4918130000000 1.0
C      1  0.4728020000000  0.5099650000000  0.4685270000000 1.0
C      1  0.5491390000000  0.5481330000000  0.5587770000000 1.0
C      1  0.5148940000000  0.5324570000000  0.5454680000000 1.0
C      1  0.4949780000000  0.4408240000000  0.4361170000000 1.0
C      1  0.4455460000000  0.5648720000000  0.5128790000000 1.0
C      1  0.5814690000000  0.5414530000000  0.5499730000000 1.0
C      1  0.4960700000000  0.4106970000000  0.5448580000000 1.0
C      1  0.5732400000000  0.4651830000000  0.5181050000000 1.0
C      1  0.4101120000000  0.4711710000000  0.5312690000000 1.0
C      1  0.4063650000000  0.4689190000000  0.4933030000000 1.0
C      1  0.5327620000000  0.4472120000000  0.4901060000000 1.0
C      1  0.5187810000000  0.4638650000000  0.5135450000000 1.0
C      1  0.4961340000000  0.4607610000000  0.4123280000000 1.0
C      1  0.4943370000000  0.4976130000000  0.4887970000000 1.0
C      1  0.4463930000000  0.4547320000000  0.4380800000000 1.0
C      1  0.5537960000000  0.5601400000000  0.5281820000000 1.0
C      1  0.5582480000000  0.4710360000000  0.5447010000000 1.0
C      1  0.4890920000000  0.5990030000000  0.4865020000000 1.0
C      1  0.4817700000000  0.5686020000000  0.3981030000000 1.0
C      1  0.4348950000000  0.5083800000000  0.5632620000000 1.0
C      1  0.4215990000000  0.5023140000000  0.5326210000000 1.0
C      1  0.5100830000000  0.4330940000000  0.4732620000000 1.0
C      1  0.4413290000000  0.5470370000000  0.5554630000000 1.0
C      1  0.4508800000000  0.5674030000000  0.4622330000000 1.0
C      1  0.5248900000000  0.4275290000000  0.4443850000000 1.0
C      1  0.5049180000000  0.4746170000000  0.4726410000000 1.0
C      1  0.4809340000000  0.5756670000000  0.5461670000000 1.0
C      1  0.4569600000000  0.4500770000000  0.5745500000000 1.0
C      1  0.4437570000000  0.4811800000000  0.5712370000000 1.0
C      1  0.4991540000000  0.4144570000000  0.4958700000000 1.0
C      1  0.5182070000000  0.5257370000000  0.5752820000000 1.0
C      1  0.5046750000000  0.4750750000000  0.5409720000000 1.0
C      1  0.6003700000000  0.4887720000000  0.5466880000000 1.0
C      1  0.5417700000000  0.4449560000000  0.5525330000000 1.0
C      1  0.5789410000000  0.4903610000000  0.4395240000000 1.0
C      1  0.4527060000000  0.5685600000000  0.5412920000000 1.0
C      1  0.4639130000000  0.5765300000000  0.4915190000000 1.0
C      1  0.4197760000000  0.4806590000000  0.4663600000000 1.0
C      1  0.4947120000000  0.4610200000000  0.5665570000000 1.0
C      1  0.5326730000000  0.5809170000000  0.5134160000000 1.0
C      1  0.4846780000000  0.4991020000000  0.4394590000000 1.0
C      1  0.5280850000000  0.5101120000000  0.4543400000000 1.0
C      1  0.4445580000000  0.5020800000000  0.4755240000000 1.0
C      1  0.5356280000000  0.4713620000000  0.5947200000000 1.0
C      1  0.3955210000000  0.4973690000000  0.5027270000000 1.0
C      1  0.4959790000000  0.5585720000000  0.5714850000000 1.0
C      1  0.5854840000000  0.5630840000000  0.5238340000000 1.0
C      1  0.4494460000000  0.5332480000000  0.5003260000000 1.0
C      1  0.4779490000000  0.5872490000000  0.4564030000000 1.0
C      1  0.5945230000000  0.5026080000000  0.4671590000000 1.0
C      1  0.4920680000000  0.5315860000000  0.5879400000000 1.0
C      1  0.5596650000000  0.4278370000000  0.4798390000000 1.0
C      1  0.5055760000000  0.5581600000000  0.5319610000000 1.0
C      1  0.4289620000000  0.5512650000000  0.4794850000000 1.0
C      1  0.4407090000000  0.5029560000000  0.5075450000000 1.0
C      1  0.4361180000000  0.4227720000000  0.5268090000000 1.0
C      1  0.5651860000000  0.5197570000000  0.5690390000000 1.0
C      1  0.4356340000000  0.4364530000000  0.4620680000000 1.0
C      1  0.5248320000000  0.5661060000000  0.5658800000000 1.0
C      1  0.4345120000000  0.4505990000000  0.4875500000000 1.0
C      1  0.4587440000000  0.4144330000000  0.4659080000000 1.0
C      1  0.4841770000000  0.4522000000000  0.4691550000000 1.0
C      1  0.5394550000000  0.5135600000000  0.4825450000000 1.0
C      1  0.4755200000000  0.5646850000000  0.4310660000000 1.0
C      1  0.5113010000000  0.5002430000000  0.4175550000000 1.0
C      1  0.4148980000000  0.5499490000000  0.5105250000000 1.0
C      1  0.4767970000000  0.4808560000000  0.4051880000000 1.0
C      1  0.4581180000000  0.4797530000000  0.5199120000000 1.0
C      1  0.4793500000000  0.5072330000000  0.5952500000000 1.0
C      1  0.5680410000000  0.5363650000000  0.4995530000000 1.0
C      1  0.5412830000000  0.4845660000000  0.5015830000000 1.0
C      1  0.4989970000000  0.4278540000000  0.5669340000000 1.0
C      1  0.5768670000000  0.4882120000000  0.5632170000000 1.0
C      1  0.4729790000000  0.3953470000000  0.5382740000000 1.0
C      1  0.4738730000000  0.4783930000000  0.5838470000000 1.0
C      1  0.5231230000000  0.4713280000000  0.4115780000000 1.0
C      1  0.5606020000000  0.4942460000000  0.5912810000000 1.0
C      1  0.5626070000000  0.5075630000000  0.5144340000000 1.0
C      1  0.5294840000000  0.5481170000000  0.4664770000000 1.0
C      1  0.5375920000000  0.5504130000000  0.4995260000000 1.0
C      1  0.5462200000000  0.5770060000000  0.4653900000000 1.0
C      1  0.5230070000000  0.5462020000000  0.4330090000000 1.0
C      1  0.4551160000000  0.5399510000000  0.4425000000000 1.0
C      1  0.4926810000000  0.5597740000000  0.4842200000000 1.0
C      1  0.4610380000000  0.5262990000000  0.5623600000000 1.0
C      1  0.5164830000000  0.5166530000000  0.5032270000000 1.0
C      1  0.4158690000000  0.5344680000000  0.5398180000000 1.0
C      1  0.5365980000000  0.5228790000000  0.4174920000000 1.0
C      1  0.4562870000000  0.4825330000000  0.4295230000000 1.0
C      1  0.5255740000000  0.4778240000000  0.4508420000000 1.0
C      1  0.5639350000000  0.5477610000000  0.4699740000000 1.0
C      1  0.5692540000000  0.5279190000000  0.4249580000000 1.0
C      1  0.5319270000000  0.4887190000000  0.5476250000000 1.0
C      1  0.5496970000000  0.4147580000000  0.4564410000000 1.0
C      1  0.5185570000000  0.5820760000000  0.4845430000000 1.0
C      1  0.5942670000000  0.5307870000000  0.5202530000000 1.0
C      1  0.4673490000000  0.4307580000000  0.4401000000000 1.0
C      1  0.4991260000000  0.5426550000000  0.5074880000000 1.0
C      1  0.5236140000000  0.4488490000000  0.5775770000000 1.0
C      1  0.4815840000000  0.5418430000000  0.4632130000000 1.0
C      1  0.5537500000000  0.4669960000000  0.4770640000000 1.0
C      1  0.4928990000000  0.5941530000000  0.5200300000000 1.0
C      1  0.5911480000000  0.4812670000000  0.4934400000000 1.0
C      1  0.4786810000000  0.5387180000000  0.4079110000000 1.0
C      1  0.4083300000000  0.5272500000000  0.5723080000000 1.0
C      1  0.4845530000000  0.5121840000000  0.4018540000000 1.0
C      1  0.5025450000000  0.5257710000000  0.4470380000000 1.0
C      1  0.5186000000000  0.5881980000000  0.5416300000000 1.0
C      1  0.5852750000000  0.4477070000000  0.4910270000000 1.0
C      1  0.5131770000000  0.4163080000000  0.5219350000000 1.0
C      1  0.4405640000000  0.4672760000000  0.5426560000000 1.0
C      1  0.5789480000000  0.5285800000000  0.4513210000000 1.0
C      1  0.4833900000000  0.4940790000000  0.5310090000000 1.0
C      1  0.4771410000000  0.5193060000000  0.5089000000000 1.0
C      1  0.4459020000000  0.4363070000000  0.5496410000000 1.0
C      1  0.4558230000000  0.4044120000000  0.5168910000000 1.0
C      1  0.4164550000000  0.4429580000000  0.5132640000000 1.0
C      1  0.5362360000000  0.5733080000000  0.4362820000000 1.0
C      1  0.5387430000000  0.4278130000000  0.5293490000000 1.0
C      1  0.5338280000000  0.5126940000000  0.5289890000000 1.0
C      1  0.4622810000000  0.4591340000000  0.4943620000000 1.0
C      1  0.4850360000000  0.5195870000000  0.5492870000000 1.0
END
