TITL C-2778427-5640-643 0.00982942707071133 125000 -1133.52708090999 0 0 198 (C1) n - 1
REM
REM in /home/nfs/bkarasulu/CARBON/AIRSS/Generating-Clusters/REBO/Only-C1/SD-CG/HFTN-CG
REM
REM
REM
REM
REM
REM ./C.cell (11c1c37f851c82e70ff6c80c92926a4b)
REM
REM compiler GCC version 9.2.1 20190827 (Red Hat 9.2.1-1)
REM options -cpp -mtune=generic -march=x86-64 -g -O0 -fpre-include=/usr/include/finclude/math-vector-fortran.h
REM seed 91673220 -1100164788 -753574481 -1668420162 -167604462 -409784830 -661083839 -776756063 -623829906 1090045108 1184665167 -361052021 -182732917 -140573609 272628939 2018649441 2142200962 2041371893 -1140675992 -2115481331 -394571432 -2059859303 -2080671823 -728176901 -105750987 1667266222 1386029729 1486680972 158732527 -963560221 -1344840812 -799684031 -731359486
REM
CELL 1.54180   50.00000   50.00000   50.00000   90.00000   90.00000   90.00000
LATT -1
SFAC C  
C      1  0.4271720000000  0.5620640000000  0.4605070000000 1.0
C      1  0.3774300000000  0.5043630000000  0.5020700000000 1.0
C      1  0.5194790000000  0.5185020000000  0.4334250000000 1.0
C      1  0.4961890000000  0.5077640000000  0.4031800000000 1.0
C      1  0.5161130000000  0.4337160000000  0.5126610000000 1.0
C      1  0.5763840000000  0.4870370000000  0.5839060000000 1.0
C      1  0.4559530000000  0.4497620000000  0.5989520000000 1.0
C      1  0.5062080000000  0.4586480000000  0.3889150000000 1.0
C      1  0.5664000000000  0.5033090000000  0.4117200000000 1.0
C      1  0.4984280000000  0.4918520000000  0.5444750000000 1.0
C      1  0.6170610000000  0.4874180000000  0.5249660000000 1.0
C      1  0.5465370000000  0.3948940000000  0.4595690000000 1.0
C      1  0.5377980000000  0.4804430000000  0.4665470000000 1.0
C      1  0.4361780000000  0.4656380000000  0.4558920000000 1.0
C      1  0.5583610000000  0.4980890000000  0.4504220000000 1.0
C      1  0.4913530000000  0.4976330000000  0.4926790000000 1.0
C      1  0.4971380000000  0.5378850000000  0.5025510000000 1.0
C      1  0.6090050000000  0.5493900000000  0.5008850000000 1.0
C      1  0.4269570000000  0.4072190000000  0.5198530000000 1.0
C      1  0.5559490000000  0.4025480000000  0.5299680000000 1.0
C      1  0.4602290000000  0.4164700000000  0.4764590000000 1.0
C      1  0.4483410000000  0.6044120000000  0.4881620000000 1.0
C      1  0.5963120000000  0.4456280000000  0.5029410000000 1.0
C      1  0.5951590000000  0.4252470000000  0.5371220000000 1.0
C      1  0.4794450000000  0.5524930000000  0.5977200000000 1.0
C      1  0.5218850000000  0.4391330000000  0.4105170000000 1.0
C      1  0.4996130000000  0.5738770000000  0.4603410000000 1.0
C      1  0.4143040000000  0.4332140000000  0.5042950000000 1.0
C      1  0.4985980000000  0.4548920000000  0.5594190000000 1.0
C      1  0.5587390000000  0.5270990000000  0.5002370000000 1.0
C      1  0.3842760000000  0.5185430000000  0.5317860000000 1.0
C      1  0.5282990000000  0.4534900000000  0.4518350000000 1.0
C      1  0.4355340000000  0.5776740000000  0.5148910000000 1.0
C      1  0.5904110000000  0.5658370000000  0.4775070000000 1.0
C      1  0.6058690000000  0.5181200000000  0.4473570000000 1.0
C      1  0.4982970000000  0.5919090000000  0.5689160000000 1.0
C      1  0.4574490000000  0.6042550000000  0.5168190000000 1.0
C      1  0.5584730000000  0.5262880000000  0.4354960000000 1.0
C      1  0.4709440000000  0.5621540000000  0.5684750000000 1.0
C      1  0.4526160000000  0.4845450000000  0.5614060000000 1.0
C      1  0.4673500000000  0.4565000000000  0.5180380000000 1.0
C      1  0.4629650000000  0.4492920000000  0.4690690000000 1.0
C      1  0.4314120000000  0.5590690000000  0.4277280000000 1.0
C      1  0.5350590000000  0.4649170000000  0.5953090000000 1.0
C      1  0.5585100000000  0.5782290000000  0.4570230000000 1.0
C      1  0.5062970000000  0.4827250000000  0.4672320000000 1.0
C      1  0.4781810000000  0.5904210000000  0.4655880000000 1.0
C      1  0.3986790000000  0.4574460000000  0.5127810000000 1.0
C      1  0.5181970000000  0.6147970000000  0.4869270000000 1.0
C      1  0.4540910000000  0.5323930000000  0.5300510000000 1.0
C      1  0.5789340000000  0.4163720000000  0.5084540000000 1.0
C      1  0.4374860000000  0.5979340000000  0.5427210000000 1.0
C      1  0.5007260000000  0.4177880000000  0.4223790000000 1.0
C      1  0.4880800000000  0.6018280000000  0.5259850000000 1.0
C      1  0.5340530000000  0.5601560000000  0.5866760000000 1.0
C      1  0.5194370000000  0.6128680000000  0.5179220000000 1.0
C      1  0.5243210000000  0.5039290000000  0.4981830000000 1.0
C      1  0.5518050000000  0.4481530000000  0.4139860000000 1.0
C      1  0.6006790000000  0.4600230000000  0.4754610000000 1.0
C      1  0.4756770000000  0.4177670000000  0.5508450000000 1.0
C      1  0.4757580000000  0.5582640000000  0.3973960000000 1.0
C      1  0.5879820000000  0.4930620000000  0.4350590000000 1.0
C      1  0.4226450000000  0.5335480000000  0.4174640000000 1.0
C      1  0.5189040000000  0.4885640000000  0.3900760000000 1.0
C      1  0.4167570000000  0.4244930000000  0.4716490000000 1.0
C      1  0.5031210000000  0.4577250000000  0.5890540000000 1.0
C      1  0.4127230000000  0.5745350000000  0.5392910000000 1.0
C      1  0.4541080000000  0.4207610000000  0.4351630000000 1.0
C      1  0.4265510000000  0.4825610000000  0.5295600000000 1.0
C      1  0.4975430000000  0.3913290000000  0.4409730000000 1.0
C      1  0.5048360000000  0.4631750000000  0.4284490000000 1.0
C      1  0.4503390000000  0.5721470000000  0.4126800000000 1.0
C      1  0.5827080000000  0.5338560000000  0.4860510000000 1.0
C      1  0.5676740000000  0.5859690000000  0.4889490000000 1.0
C      1  0.5898120000000  0.4619470000000  0.4432710000000 1.0
C      1  0.5035180000000  0.5475510000000  0.4411850000000 1.0
C      1  0.4547780000000  0.5325270000000  0.6030900000000 1.0
C      1  0.5682620000000  0.4078130000000  0.4810550000000 1.0
C      1  0.4060040000000  0.4798520000000  0.4632390000000 1.0
C      1  0.4884120000000  0.5176340000000  0.5812200000000 1.0
C      1  0.5544600000000  0.4724630000000  0.4923950000000 1.0
C      1  0.4153270000000  0.5348240000000  0.5128080000000 1.0
C      1  0.4450940000000  0.5259790000000  0.4779470000000 1.0
C      1  0.5513010000000  0.4440970000000  0.5749940000000 1.0
C      1  0.4171210000000  0.5041080000000  0.5044480000000 1.0
C      1  0.4786950000000  0.4887900000000  0.5192940000000 1.0
C      1  0.4082500000000  0.5541010000000  0.4879130000000 1.0
C      1  0.3997610000000  0.5093280000000  0.4768650000000 1.0
C      1  0.5067440000000  0.4026250000000  0.5504230000000 1.0
C      1  0.5170470000000  0.5291930000000  0.5681300000000 1.0
C      1  0.4990920000000  0.5320810000000  0.4712030000000 1.0
C      1  0.4731420000000  0.4286650000000  0.4137900000000 1.0
C      1  0.4507910000000  0.5758750000000  0.4725770000000 1.0
C      1  0.4385350000000  0.5143280000000  0.3958980000000 1.0
C      1  0.4907430000000  0.4540380000000  0.4642090000000 1.0
C      1  0.5446560000000  0.6078330000000  0.4665700000000 1.0
C      1  0.5459570000000  0.5466400000000  0.4582510000000 1.0
C      1  0.4406920000000  0.4993830000000  0.4556810000000 1.0
C      1  0.5515940000000  0.6022400000000  0.5148590000000 1.0
C      1  0.5533500000000  0.5135240000000  0.5506570000000 1.0
C      1  0.5662190000000  0.4765540000000  0.5349400000000 1.0
C      1  0.4694470000000  0.5924710000000  0.5530350000000 1.0
C      1  0.5675370000000  0.4545500000000  0.5129290000000 1.0
C      1  0.5194670000000  0.6033030000000  0.5505520000000 1.0
C      1  0.5508900000000  0.5012910000000  0.5196550000000 1.0
C      1  0.4579370000000  0.5163090000000  0.4235930000000 1.0
C      1  0.5187490000000  0.4685980000000  0.5359820000000 1.0
C      1  0.4526920000000  0.3925620000000  0.5338810000000 1.0
C      1  0.5076300000000  0.5342850000000  0.6013980000000 1.0
C      1  0.5315500000000  0.5465010000000  0.5452500000000 1.0
C      1  0.5831980000000  0.4695220000000  0.5625710000000 1.0
C      1  0.4510850000000  0.5038740000000  0.5253200000000 1.0
C      1  0.4390890000000  0.4629020000000  0.5810540000000 1.0
C      1  0.6023360000000  0.5450230000000  0.4532300000000 1.0
C      1  0.4475770000000  0.4313700000000  0.5553110000000 1.0
C      1  0.5401330000000  0.5291530000000  0.5996980000000 1.0
C      1  0.6097690000000  0.5135110000000  0.5182960000000 1.0
C      1  0.4281900000000  0.4201370000000  0.5691790000000 1.0
C      1  0.5221870000000  0.5848310000000  0.4711880000000 1.0
C      1  0.5446600000000  0.4960080000000  0.5932600000000 1.0
C      1  0.4626740000000  0.5103910000000  0.6185690000000 1.0
C      1  0.4156460000000  0.5184720000000  0.5429730000000 1.0
C      1  0.5008250000000  0.5441670000000  0.5328860000000 1.0
C      1  0.5673930000000  0.4358330000000  0.5481770000000 1.0
C      1  0.5648960000000  0.4208660000000  0.4517850000000 1.0
C      1  0.4561240000000  0.4706010000000  0.4900380000000 1.0
C      1  0.5182290000000  0.5687700000000  0.4206190000000 1.0
C      1  0.4425680000000  0.4872900000000  0.4166490000000 1.0
C      1  0.5546070000000  0.5821150000000  0.5424540000000 1.0
C      1  0.4733460000000  0.5053900000000  0.5582700000000 1.0
C      1  0.5224180000000  0.4334630000000  0.5998410000000 1.0
C      1  0.4784260000000  0.4534160000000  0.4002200000000 1.0
C      1  0.4473180000000  0.4974250000000  0.4946880000000 1.0
C      1  0.5471810000000  0.4125850000000  0.5616340000000 1.0
C      1  0.5234530000000  0.3821770000000  0.4495070000000 1.0
C      1  0.4983870000000  0.5771040000000  0.5076430000000 1.0
C      1  0.5920760000000  0.5377740000000  0.5280590000000 1.0
C      1  0.4206240000000  0.5527990000000  0.5718460000000 1.0
C      1  0.4216060000000  0.5079550000000  0.5702970000000 1.0
C      1  0.3877510000000  0.4748990000000  0.4915470000000 1.0
C      1  0.5600860000000  0.5379920000000  0.5318840000000 1.0
C      1  0.5363260000000  0.5482070000000  0.4033750000000 1.0
C      1  0.5741050000000  0.5140830000000  0.5734010000000 1.0
C      1  0.5252410000000  0.5579380000000  0.5025290000000 1.0
C      1  0.5224280000000  0.4025870000000  0.5258920000000 1.0
C      1  0.5159770000000  0.5947650000000  0.4191240000000 1.0
C      1  0.4308990000000  0.5298970000000  0.5861240000000 1.0
C      1  0.5153770000000  0.5746370000000  0.5372310000000 1.0
C      1  0.4882340000000  0.4019480000000  0.5783090000000 1.0
C      1  0.4707660000000  0.4000130000000  0.4515830000000 1.0
C      1  0.5176620000000  0.4489590000000  0.4845460000000 1.0
C      1  0.4742130000000  0.5434540000000  0.4268950000000 1.0
C      1  0.4765120000000  0.5387200000000  0.5495090000000 1.0
C      1  0.3940950000000  0.4856920000000  0.5311870000000 1.0
C      1  0.4740220000000  0.4765650000000  0.4205370000000 1.0
C      1  0.5084150000000  0.4086370000000  0.4753080000000 1.0
C      1  0.3981230000000  0.5465860000000  0.5467060000000 1.0
C      1  0.5044560000000  0.5399130000000  0.3976890000000 1.0
C      1  0.4693700000000  0.5345160000000  0.4573190000000 1.0
C      1  0.5276710000000  0.4858230000000  0.4286640000000 1.0
C      1  0.4054700000000  0.5356170000000  0.4615600000000 1.0
C      1  0.5057390000000  0.5709370000000  0.5863280000000 1.0
C      1  0.5461360000000  0.4342610000000  0.5225020000000 1.0
C      1  0.4453720000000  0.4589660000000  0.5417820000000 1.0
C      1  0.4914320000000  0.4997950000000  0.4363440000000 1.0
C      1  0.4448990000000  0.5494160000000  0.5029780000000 1.0
C      1  0.4760820000000  0.4870410000000  0.6201960000000 1.0
C      1  0.4797060000000  0.4630430000000  0.6063930000000 1.0
C      1  0.5481980000000  0.4779550000000  0.4044770000000 1.0
C      1  0.5438330000000  0.4683680000000  0.5556030000000 1.0
C      1  0.6082770000000  0.4927990000000  0.4695150000000 1.0
C      1  0.5312480000000  0.5331760000000  0.4822730000000 1.0
C      1  0.4911740000000  0.4401280000000  0.5306990000000 1.0
C      1  0.4531880000000  0.3961230000000  0.5015120000000 1.0
C      1  0.5355490000000  0.5155350000000  0.4035970000000 1.0
C      1  0.5767850000000  0.4841850000000  0.4735280000000 1.0
C      1  0.4736790000000  0.5022760000000  0.4637990000000 1.0
C      1  0.4166810000000  0.4818610000000  0.5786920000000 1.0
C      1  0.4138710000000  0.4836690000000  0.4306430000000 1.0
C      1  0.5125260000000  0.3973880000000  0.4964180000000 1.0
C      1  0.5071280000000  0.4283630000000  0.4521100000000 1.0
C      1  0.5703650000000  0.4425290000000  0.4347800000000 1.0
C      1  0.5212650000000  0.4098130000000  0.5806830000000 1.0
C      1  0.6039200000000  0.4509830000000  0.5535590000000 1.0
C      1  0.4696180000000  0.5254650000000  0.3914700000000 1.0
C      1  0.6129780000000  0.4594940000000  0.5261300000000 1.0
C      1  0.4872510000000  0.6145820000000  0.4757080000000 1.0
C      1  0.4319010000000  0.4336190000000  0.4499430000000 1.0
C      1  0.6121870000000  0.5180900000000  0.4868270000000 1.0
C      1  0.4400240000000  0.5719660000000  0.5705330000000 1.0
C      1  0.5494860000000  0.5701110000000  0.5113210000000 1.0
C      1  0.5251260000000  0.4721930000000  0.5070480000000 1.0
C      1  0.4742660000000  0.5608920000000  0.4922760000000 1.0
C      1  0.4154060000000  0.5153150000000  0.4405530000000 1.0
C      1  0.5561320000000  0.5594840000000  0.4286080000000 1.0
C      1  0.5267050000000  0.4969920000000  0.5630080000000 1.0
C      1  0.4477220000000  0.4336010000000  0.5023990000000 1.0
C      1  0.5512000000000  0.5733100000000  0.5673870000000 1.0
END
