TITL C-2778431-5191-1186 0.000320903259574137 125000 -1097.036730191 0 0 190 (C1) n - 1
REM
REM in /home/nfs/bkarasulu/CARBON/AIRSS/Generating-Clusters/REBO/Only-C1/SD-CG/HFTN-CG
REM
REM
REM
REM
REM
REM ./C.cell (11c1c37f851c82e70ff6c80c92926a4b)
REM
REM compiler GCC version 9.2.1 20190827 (Red Hat 9.2.1-1)
REM options -cpp -mtune=generic -march=x86-64 -g -O0 -fpre-include=/usr/include/finclude/math-vector-fortran.h
REM seed 981670002 1695448764 2034327053 275332886 -2106731967 653954447 -2058243349 485310856 791931471 -693006535 -229780374 1729882717 1297367101 83287365 1899066405 -1625500062 -745172918 -1119948398 1052500986 -653097859 -614111535 -1995102869 -1163820464 -156476250 903310368 1067417626 -1060549850 -809397000 -1034023041 873919732 -344623144 703486714 -1151679838
REM
CELL 1.54180   50.00000   50.00000   50.00000   90.00000   90.00000   90.00000
LATT -1
SFAC C  
C      1  0.5239660000000  0.4136360000000  0.4492510000000 1.0
C      1  0.5517420000000  0.4258600000000  0.4965780000000 1.0
C      1  0.5004840000000  0.5323690000000  0.4597650000000 1.0
C      1  0.4287100000000  0.4406880000000  0.5024310000000 1.0
C      1  0.5080440000000  0.5478590000000  0.5108540000000 1.0
C      1  0.4928780000000  0.5206670000000  0.6106430000000 1.0
C      1  0.4500250000000  0.6045900000000  0.5287360000000 1.0
C      1  0.5238470000000  0.5665330000000  0.4125150000000 1.0
C      1  0.5344120000000  0.4394010000000  0.5229420000000 1.0
C      1  0.4657070000000  0.5513440000000  0.5789860000000 1.0
C      1  0.4415410000000  0.5346790000000  0.5787710000000 1.0
C      1  0.4855160000000  0.4099160000000  0.5378070000000 1.0
C      1  0.5368360000000  0.3957170000000  0.4711410000000 1.0
C      1  0.3912290000000  0.5283180000000  0.4586720000000 1.0
C      1  0.4443530000000  0.5763380000000  0.4352810000000 1.0
C      1  0.5757670000000  0.5023100000000  0.4270690000000 1.0
C      1  0.4771780000000  0.5135680000000  0.5811150000000 1.0
C      1  0.4019610000000  0.5078980000000  0.5012250000000 1.0
C      1  0.4961250000000  0.6147450000000  0.5416690000000 1.0
C      1  0.4261420000000  0.5011010000000  0.4206310000000 1.0
C      1  0.5667180000000  0.4288920000000  0.4661240000000 1.0
C      1  0.4944460000000  0.4435120000000  0.5035600000000 1.0
C      1  0.5601930000000  0.4582820000000  0.5347230000000 1.0
C      1  0.4391500000000  0.4950660000000  0.4941750000000 1.0
C      1  0.5119730000000  0.5002330000000  0.5948900000000 1.0
C      1  0.5938380000000  0.5401450000000  0.5276390000000 1.0
C      1  0.5804850000000  0.5207340000000  0.4709850000000 1.0
C      1  0.4046200000000  0.5482080000000  0.5124540000000 1.0
C      1  0.5191750000000  0.4431250000000  0.5905830000000 1.0
C      1  0.4830670000000  0.5633270000000  0.5290140000000 1.0
C      1  0.5253660000000  0.5404330000000  0.5913600000000 1.0
C      1  0.5544960000000  0.4029860000000  0.5218440000000 1.0
C      1  0.5552420000000  0.4854430000000  0.6043710000000 1.0
C      1  0.5520090000000  0.5472370000000  0.5948910000000 1.0
C      1  0.5770190000000  0.5568320000000  0.5029820000000 1.0
C      1  0.4830650000000  0.5442500000000  0.4117010000000 1.0
C      1  0.4559190000000  0.4010460000000  0.4926490000000 1.0
C      1  0.5237280000000  0.4874180000000  0.4355900000000 1.0
C      1  0.5256630000000  0.4452110000000  0.4356340000000 1.0
C      1  0.5401440000000  0.5683200000000  0.5128870000000 1.0
C      1  0.5386450000000  0.5108480000000  0.5183730000000 1.0
C      1  0.4560310000000  0.5636330000000  0.4058310000000 1.0
C      1  0.4975160000000  0.4647190000000  0.6057460000000 1.0
C      1  0.3859630000000  0.4555190000000  0.4762570000000 1.0
C      1  0.5518070000000  0.4796370000000  0.4226500000000 1.0
C      1  0.4693960000000  0.5013630000000  0.4799110000000 1.0
C      1  0.5446320000000  0.4890710000000  0.4695750000000 1.0
C      1  0.4986190000000  0.4662620000000  0.4351340000000 1.0
C      1  0.4329880000000  0.4260060000000  0.5306160000000 1.0
C      1  0.4367930000000  0.5435820000000  0.4336510000000 1.0
C      1  0.4503920000000  0.4411800000000  0.5848490000000 1.0
C      1  0.5216300000000  0.4590010000000  0.4044050000000 1.0
C      1  0.5281430000000  0.5157130000000  0.5711070000000 1.0
C      1  0.6007370000000  0.4799400000000  0.5473690000000 1.0
C      1  0.5499810000000  0.5684120000000  0.5482740000000 1.0
C      1  0.5620250000000  0.4208820000000  0.5500580000000 1.0
C      1  0.4945360000000  0.5518860000000  0.5972050000000 1.0
C      1  0.5689940000000  0.5026490000000  0.5140890000000 1.0
C      1  0.4296480000000  0.5173210000000  0.4603430000000 1.0
C      1  0.4465470000000  0.5308710000000  0.4035170000000 1.0
C      1  0.5071250000000  0.5760760000000  0.5773010000000 1.0
C      1  0.4294660000000  0.4637130000000  0.4480960000000 1.0
C      1  0.4099540000000  0.4721230000000  0.5614800000000 1.0
C      1  0.4937150000000  0.4577860000000  0.4662510000000 1.0
C      1  0.5062610000000  0.4315520000000  0.4693030000000 1.0
C      1  0.5195620000000  0.5278240000000  0.4876830000000 1.0
C      1  0.5890980000000  0.5820470000000  0.4541770000000 1.0
C      1  0.4748430000000  0.4744880000000  0.3875480000000 1.0
C      1  0.4191460000000  0.5018610000000  0.5759470000000 1.0
C      1  0.5802590000000  0.4363850000000  0.4379620000000 1.0
C      1  0.4545510000000  0.4019450000000  0.5243290000000 1.0
C      1  0.4332700000000  0.5907220000000  0.5099900000000 1.0
C      1  0.5652090000000  0.5219430000000  0.5487540000000 1.0
C      1  0.5358840000000  0.4622530000000  0.4976380000000 1.0
C      1  0.4333490000000  0.5609670000000  0.4632700000000 1.0
C      1  0.5681150000000  0.4686950000000  0.4675470000000 1.0
C      1  0.5677390000000  0.4999390000000  0.5819910000000 1.0
C      1  0.5121760000000  0.5704280000000  0.4613870000000 1.0
C      1  0.5755590000000  0.5356570000000  0.4221770000000 1.0
C      1  0.5545040000000  0.5391670000000  0.5214640000000 1.0
C      1  0.4819360000000  0.4003190000000  0.4821980000000 1.0
C      1  0.4073490000000  0.5455320000000  0.4789070000000 1.0
C      1  0.5327900000000  0.5908300000000  0.5616800000000 1.0
C      1  0.5030620000000  0.4854540000000  0.5653380000000 1.0
C      1  0.4579950000000  0.5481270000000  0.5401780000000 1.0
C      1  0.5207740000000  0.4900630000000  0.5065040000000 1.0
C      1  0.5604680000000  0.4881280000000  0.5506560000000 1.0
C      1  0.5668550000000  0.4459850000000  0.5720190000000 1.0
C      1  0.3953680000000  0.4939930000000  0.4818370000000 1.0
C      1  0.5284040000000  0.4793030000000  0.6102460000000 1.0
C      1  0.4480200000000  0.4898790000000  0.4556740000000 1.0
C      1  0.4698170000000  0.4465700000000  0.5992010000000 1.0
C      1  0.6001990000000  0.4942130000000  0.4811540000000 1.0
C      1  0.5668280000000  0.5876580000000  0.5079010000000 1.0
C      1  0.4524580000000  0.4973280000000  0.3985040000000 1.0
C      1  0.5182520000000  0.4174120000000  0.5779500000000 1.0
C      1  0.5878500000000  0.4403430000000  0.5384940000000 1.0
C      1  0.4001170000000  0.4749240000000  0.4554410000000 1.0
C      1  0.5282760000000  0.5380950000000  0.4022820000000 1.0
C      1  0.4802690000000  0.4310860000000  0.4113130000000 1.0
C      1  0.5305870000000  0.5339840000000  0.4500020000000 1.0
C      1  0.5384950000000  0.5772000000000  0.4817500000000 1.0
C      1  0.5057420000000  0.4375550000000  0.5412690000000 1.0
C      1  0.5350010000000  0.4821070000000  0.5681270000000 1.0
C      1  0.4190410000000  0.5701110000000  0.5233390000000 1.0
C      1  0.5787090000000  0.4626980000000  0.4295910000000 1.0
C      1  0.4590990000000  0.4541530000000  0.5406890000000 1.0
C      1  0.4983740000000  0.5017210000000  0.4853810000000 1.0
C      1  0.5929730000000  0.5075400000000  0.5381410000000 1.0
C      1  0.4323530000000  0.5052250000000  0.5239880000000 1.0
C      1  0.5925440000000  0.5319150000000  0.4479350000000 1.0
C      1  0.5298830000000  0.3932150000000  0.5005030000000 1.0
C      1  0.5331030000000  0.4893740000000  0.3968990000000 1.0
C      1  0.4778680000000  0.5997240000000  0.4916820000000 1.0
C      1  0.6074260000000  0.4625710000000  0.5242240000000 1.0
C      1  0.5398620000000  0.4494930000000  0.4663300000000 1.0
C      1  0.5931940000000  0.5205040000000  0.5006500000000 1.0
C      1  0.3985730000000  0.4492730000000  0.4991540000000 1.0
C      1  0.5908040000000  0.4869500000000  0.4503400000000 1.0
C      1  0.6095590000000  0.4685840000000  0.4961440000000 1.0
C      1  0.4625960000000  0.4554250000000  0.4687370000000 1.0
C      1  0.4759920000000  0.4720090000000  0.5092460000000 1.0
C      1  0.5061190000000  0.4672400000000  0.5238040000000 1.0
C      1  0.4903080000000  0.4077040000000  0.4524100000000 1.0
C      1  0.5025570000000  0.5767500000000  0.4324370000000 1.0
C      1  0.5841070000000  0.4164140000000  0.5172030000000 1.0
C      1  0.4511160000000  0.4580080000000  0.4150590000000 1.0
C      1  0.4772150000000  0.6150990000000  0.5196100000000 1.0
C      1  0.5418840000000  0.4562300000000  0.5806790000000 1.0
C      1  0.4876910000000  0.5707740000000  0.4972460000000 1.0
C      1  0.5660880000000  0.4742970000000  0.5073340000000 1.0
C      1  0.4156330000000  0.5298370000000  0.5605230000000 1.0
C      1  0.4610830000000  0.5271140000000  0.4620540000000 1.0
C      1  0.4418380000000  0.4837500000000  0.5611700000000 1.0
C      1  0.4310550000000  0.4454310000000  0.5584850000000 1.0
C      1  0.4966340000000  0.5072890000000  0.5467480000000 1.0
C      1  0.4248290000000  0.4692620000000  0.4148090000000 1.0
C      1  0.4921900000000  0.4536230000000  0.3977480000000 1.0
C      1  0.4694580000000  0.4206590000000  0.4343560000000 1.0
C      1  0.5946470000000  0.4480690000000  0.4733990000000 1.0
C      1  0.5321730000000  0.4088780000000  0.5551800000000 1.0
C      1  0.5158500000000  0.4002770000000  0.5310760000000 1.0
C      1  0.4020000000000  0.4950440000000  0.5370500000000 1.0
C      1  0.5784950000000  0.5595150000000  0.5460360000000 1.0
C      1  0.5695060000000  0.5305080000000  0.5802120000000 1.0
C      1  0.4594060000000  0.5038480000000  0.4297930000000 1.0
C      1  0.5186870000000  0.5152800000000  0.4263300000000 1.0
C      1  0.4554020000000  0.5473200000000  0.4958360000000 1.0
C      1  0.5244590000000  0.6058330000000  0.4749750000000 1.0
C      1  0.4863650000000  0.5970560000000  0.5659300000000 1.0
C      1  0.4651670000000  0.4764180000000  0.5731120000000 1.0
C      1  0.4905900000000  0.5370730000000  0.5604760000000 1.0
C      1  0.4796090000000  0.5537040000000  0.4720310000000 1.0
C      1  0.4504920000000  0.5796460000000  0.4861410000000 1.0
C      1  0.4012750000000  0.5283480000000  0.5335700000000 1.0
C      1  0.4812350000000  0.5005110000000  0.5214890000000 1.0
C      1  0.5528690000000  0.5158890000000  0.4057930000000 1.0
C      1  0.5058070000000  0.5160110000000  0.3948460000000 1.0
C      1  0.4492350000000  0.4646740000000  0.4941730000000 1.0
C      1  0.4044460000000  0.5053620000000  0.4440360000000 1.0
C      1  0.5146270000000  0.4815960000000  0.4679540000000 1.0
C      1  0.4871840000000  0.4598590000000  0.5581990000000 1.0
C      1  0.4684790000000  0.4606210000000  0.4355730000000 1.0
C      1  0.5248480000000  0.6127300000000  0.5463960000000 1.0
C      1  0.4805080000000  0.5302210000000  0.5069520000000 1.0
C      1  0.4564540000000  0.5199780000000  0.5297930000000 1.0
C      1  0.4471430000000  0.5049420000000  0.5945840000000 1.0
C      1  0.5670560000000  0.5676560000000  0.4733160000000 1.0
C      1  0.4347370000000  0.4733040000000  0.5302930000000 1.0
C      1  0.5026390000000  0.4119160000000  0.5018980000000 1.0
C      1  0.5686360000000  0.5624130000000  0.4391050000000 1.0
C      1  0.5775450000000  0.4454670000000  0.5004830000000 1.0
C      1  0.4385700000000  0.4201160000000  0.4806560000000 1.0
C      1  0.5490010000000  0.5194230000000  0.4722010000000 1.0
C      1  0.5003100000000  0.6124670000000  0.4746550000000 1.0
C      1  0.4866670000000  0.4984510000000  0.3750890000000 1.0
C      1  0.5230630000000  0.5246060000000  0.5411510000000 1.0
C      1  0.4762230000000  0.5806550000000  0.4267470000000 1.0
C      1  0.4682050000000  0.5862600000000  0.5456420000000 1.0
C      1  0.4445120000000  0.4333920000000  0.4520530000000 1.0
C      1  0.4750050000000  0.5273430000000  0.3847970000000 1.0
C      1  0.4804480000000  0.5263220000000  0.4352750000000 1.0
C      1  0.5880090000000  0.4657930000000  0.5691180000000 1.0
C      1  0.5385940000000  0.5623500000000  0.4412370000000 1.0
C      1  0.4348700000000  0.5615670000000  0.5457880000000 1.0
C      1  0.4325390000000  0.5286210000000  0.4915940000000 1.0
C      1  0.4707290000000  0.4346460000000  0.5222110000000 1.0
C      1  0.5195030000000  0.5541810000000  0.5543170000000 1.0
C      1  0.4756080000000  0.4909490000000  0.6075080000000 1.0
C      1  0.4043210000000  0.4645370000000  0.5232610000000 1.0
END
