TITL C-2778430-5657-841 -4.82236838411833e-05 125000 -219.860244888407 0 0 38 (C1) n - 1
REM
REM in /home/nfs/bkarasulu/CARBON/AIRSS/Generating-Clusters/REBO/Only-C1/SD-CG/HFTN-CG
REM
REM
REM
REM
REM
REM ./C.cell (11c1c37f851c82e70ff6c80c92926a4b)
REM
REM compiler GCC version 9.2.1 20190827 (Red Hat 9.2.1-1)
REM options -cpp -mtune=generic -march=x86-64 -g -O0 -fpre-include=/usr/include/finclude/math-vector-fortran.h
REM seed -572182294 271733290 555811206 482219900 1389243216 -433120965 1406314837 2011215982 480721471 -85648250 -2110974793 -1738810617 -475236687 -2079552846 2099678108 -2120336884 -1032367453 1961987106 2004221179 -474434863 2146861494 1215539490 -364434390 -1577477720 1025994995 1870711365 1092030304 1770238127 1396674310 1641748068 2007736380 -1703126146 -1528006127
REM
CELL 1.54180   50.00000   50.00000   50.00000   90.00000   90.00000   90.00000
LATT -1
SFAC C  
C      1  0.4475610000000  0.4407970000000  0.4750960000000 1.0
C      1  0.4450610000000  0.4586210000000  0.4536130000000 1.0
C      1  0.4701940000000  0.4772090000000  0.4993800000000 1.0
C      1  0.4829150000000  0.5193200000000  0.4288120000000 1.0
C      1  0.4204990000000  0.5297020000000  0.4747620000000 1.0
C      1  0.5282370000000  0.5437470000000  0.5418760000000 1.0
C      1  0.5787700000000  0.5484030000000  0.5309420000000 1.0
C      1  0.5044050000000  0.4327560000000  0.5635700000000 1.0
C      1  0.5086000000000  0.5236820000000  0.5410290000000 1.0
C      1  0.5687180000000  0.5145710000000  0.4682410000000 1.0
C      1  0.5326230000000  0.5625140000000  0.4994880000000 1.0
C      1  0.4519480000000  0.4965590000000  0.4904200000000 1.0
C      1  0.4636050000000  0.5655010000000  0.4696590000000 1.0
C      1  0.4790410000000  0.4264040000000  0.5434220000000 1.0
C      1  0.4727380000000  0.4387280000000  0.5734280000000 1.0
C      1  0.4639580000000  0.5004240000000  0.4281830000000 1.0
C      1  0.4455560000000  0.5227100000000  0.4827780000000 1.0
C      1  0.5237480000000  0.5392250000000  0.4574190000000 1.0
C      1  0.5453930000000  0.4756490000000  0.4997700000000 1.0
C      1  0.5663190000000  0.4903530000000  0.4896420000000 1.0
C      1  0.5195620000000  0.4741980000000  0.5075390000000 1.0
C      1  0.4919420000000  0.5355790000000  0.4949170000000 1.0
C      1  0.4961000000000  0.5160670000000  0.5161620000000 1.0
C      1  0.5025640000000  0.4858080000000  0.5794000000000 1.0
C      1  0.5052580000000  0.5072000000000  0.5634870000000 1.0
C      1  0.4668520000000  0.5416500000000  0.4825400000000 1.0
C      1  0.4708610000000  0.4318880000000  0.5178240000000 1.0
C      1  0.4633290000000  0.4493620000000  0.4972400000000 1.0
C      1  0.4506840000000  0.4790280000000  0.4372640000000 1.0
C      1  0.4364190000000  0.4159640000000  0.4745980000000 1.0
C      1  0.5501750000000  0.5297420000000  0.4546000000000 1.0
C      1  0.4948040000000  0.4875530000000  0.5095460000000 1.0
C      1  0.4972450000000  0.4589490000000  0.5824480000000 1.0
C      1  0.5878000000000  0.5143110000000  0.4942740000000 1.0
C      1  0.5932090000000  0.5329300000000  0.5140170000000 1.0
C      1  0.5037870000000  0.5326980000000  0.4388990000000 1.0
C      1  0.5158800000000  0.5478300000000  0.4838020000000 1.0
C      1  0.5536370000000  0.5523670000000  0.5399110000000 1.0
END
