TITL C-2778436-5916-1101 0.00369606373615492 125000 -914.899711016133 0 0 158 (C1) n - 1
REM
REM in /home/nfs/bkarasulu/CARBON/AIRSS/Generating-Clusters/REBO/Only-C1/SD-CG/HFTN-CG
REM
REM
REM
REM
REM
REM ./C.cell (11c1c37f851c82e70ff6c80c92926a4b)
REM
REM compiler GCC version 9.2.1 20190827 (Red Hat 9.2.1-1)
REM options -cpp -mtune=generic -march=x86-64 -g -O0 -fpre-include=/usr/include/finclude/math-vector-fortran.h
REM seed -1538859143 1943811003 -1526113654 199845727 -750848175 -1090728416 1094409596 -926601968 -1967855581 -747124319 451545538 -561069831 640302888 1121724901 821745799 1444997610 1270406541 1683044944 -2118682991 -1348421850 -334339267 -308308108 -1017328981 1191329413 -1954474641 -991518742 -1480362168 -1003114101 166896878 1538655517 -1313471528 -1586503516 1417411588
REM
CELL 1.54180   50.00000   50.00000   50.00000   90.00000   90.00000   90.00000
LATT -1
SFAC C  
C      1  0.5361500000000  0.4894580000000  0.5902230000000 1.0
C      1  0.5207720000000  0.3956590000000  0.5056750000000 1.0
C      1  0.5432950000000  0.5692760000000  0.5430930000000 1.0
C      1  0.4631090000000  0.5296680000000  0.4688500000000 1.0
C      1  0.4263470000000  0.4876340000000  0.5920750000000 1.0
C      1  0.4445970000000  0.5493320000000  0.4296110000000 1.0
C      1  0.4737930000000  0.5564540000000  0.5861010000000 1.0
C      1  0.4824510000000  0.4575450000000  0.5932390000000 1.0
C      1  0.4990080000000  0.3970290000000  0.4392420000000 1.0
C      1  0.5114050000000  0.5377250000000  0.4721920000000 1.0
C      1  0.5588080000000  0.4962290000000  0.4777700000000 1.0
C      1  0.5340000000000  0.4356160000000  0.5760530000000 1.0
C      1  0.4622800000000  0.5680880000000  0.4834270000000 1.0
C      1  0.5308320000000  0.4851560000000  0.4745100000000 1.0
C      1  0.5314140000000  0.4682390000000  0.4091200000000 1.0
C      1  0.5816540000000  0.5523330000000  0.4979340000000 1.0
C      1  0.4855290000000  0.4472100000000  0.4836380000000 1.0
C      1  0.4761830000000  0.5262580000000  0.5477490000000 1.0
C      1  0.5616950000000  0.5277130000000  0.4736130000000 1.0
C      1  0.5781790000000  0.5259480000000  0.5502610000000 1.0
C      1  0.5169340000000  0.5283070000000  0.5255040000000 1.0
C      1  0.5858420000000  0.4238100000000  0.4943510000000 1.0
C      1  0.4501550000000  0.5013640000000  0.4441410000000 1.0
C      1  0.5015790000000  0.4760270000000  0.4611730000000 1.0
C      1  0.5490790000000  0.5739160000000  0.4513370000000 1.0
C      1  0.4602530000000  0.5086840000000  0.5928580000000 1.0
C      1  0.5428700000000  0.5398110000000  0.5534420000000 1.0
C      1  0.5438880000000  0.4914770000000  0.4227650000000 1.0
C      1  0.5794970000000  0.5127930000000  0.4480960000000 1.0
C      1  0.4793970000000  0.5814200000000  0.5640580000000 1.0
C      1  0.4939740000000  0.4980350000000  0.4169910000000 1.0
C      1  0.4410820000000  0.4727620000000  0.4545610000000 1.0
C      1  0.4871550000000  0.4858170000000  0.5479890000000 1.0
C      1  0.5846280000000  0.5501140000000  0.4351510000000 1.0
C      1  0.4324720000000  0.5230210000000  0.4353670000000 1.0
C      1  0.4557870000000  0.4312380000000  0.5216580000000 1.0
C      1  0.5148050000000  0.4660230000000  0.5509370000000 1.0
C      1  0.4351170000000  0.5815690000000  0.4996640000000 1.0
C      1  0.4332480000000  0.5460510000000  0.4677270000000 1.0
C      1  0.4757880000000  0.5471200000000  0.4214570000000 1.0
C      1  0.4890140000000  0.5254370000000  0.4905850000000 1.0
C      1  0.5765350000000  0.5211860000000  0.5099660000000 1.0
C      1  0.5143530000000  0.4763390000000  0.5202810000000 1.0
C      1  0.5420120000000  0.4031320000000  0.5234250000000 1.0
C      1  0.5059690000000  0.4336580000000  0.5291750000000 1.0
C      1  0.5238930000000  0.4071850000000  0.4800700000000 1.0
C      1  0.5225910000000  0.4955920000000  0.4448220000000 1.0
C      1  0.4505430000000  0.5968270000000  0.4586890000000 1.0
C      1  0.6094330000000  0.4896680000000  0.5419410000000 1.0
C      1  0.6096770000000  0.4824170000000  0.4808180000000 1.0
C      1  0.4570260000000  0.5867210000000  0.5183990000000 1.0
C      1  0.5769280000000  0.4770850000000  0.4798900000000 1.0
C      1  0.4724510000000  0.6006360000000  0.4845740000000 1.0
C      1  0.5394580000000  0.4300080000000  0.5315670000000 1.0
C      1  0.5728750000000  0.5539100000000  0.5313810000000 1.0
C      1  0.4127480000000  0.5730700000000  0.5145730000000 1.0
C      1  0.4695940000000  0.5094860000000  0.5215760000000 1.0
C      1  0.4607720000000  0.4593500000000  0.4142380000000 1.0
C      1  0.4827160000000  0.4870140000000  0.4820790000000 1.0
C      1  0.5128580000000  0.5114610000000  0.5808710000000 1.0
C      1  0.4579540000000  0.4354070000000  0.5832440000000 1.0
C      1  0.4559580000000  0.4896680000000  0.4873870000000 1.0
C      1  0.5692790000000  0.4229590000000  0.4655260000000 1.0
C      1  0.5495020000000  0.5930880000000  0.4962100000000 1.0
C      1  0.4235280000000  0.5116140000000  0.5714120000000 1.0
C      1  0.4797320000000  0.6051820000000  0.5178540000000 1.0
C      1  0.5230860000000  0.5400420000000  0.5806410000000 1.0
C      1  0.4816300000000  0.4171090000000  0.4442880000000 1.0
C      1  0.4281160000000  0.4399540000000  0.5201200000000 1.0
C      1  0.5414950000000  0.5165750000000  0.4045720000000 1.0
C      1  0.5371000000000  0.4632070000000  0.4990200000000 1.0
C      1  0.5124760000000  0.4273770000000  0.5609680000000 1.0
C      1  0.4750120000000  0.5569190000000  0.4540320000000 1.0
C      1  0.4943370000000  0.4470490000000  0.4511390000000 1.0
C      1  0.5842940000000  0.4657400000000  0.4382790000000 1.0
C      1  0.5009870000000  0.5844570000000  0.4912650000000 1.0
C      1  0.5568740000000  0.4808630000000  0.5217210000000 1.0
C      1  0.4714280000000  0.4868840000000  0.6031600000000 1.0
C      1  0.4539400000000  0.4444240000000  0.4405230000000 1.0
C      1  0.4103810000000  0.4795670000000  0.4641860000000 1.0
C      1  0.4864300000000  0.4513250000000  0.4031130000000 1.0
C      1  0.5645170000000  0.5739380000000  0.4771720000000 1.0
C      1  0.4938710000000  0.4052900000000  0.5167180000000 1.0
C      1  0.3933840000000  0.5071130000000  0.4654190000000 1.0
C      1  0.5630600000000  0.4487100000000  0.5315000000000 1.0
C      1  0.4512990000000  0.5610490000000  0.5609480000000 1.0
C      1  0.5021280000000  0.5667840000000  0.4660960000000 1.0
C      1  0.4225400000000  0.5158190000000  0.5104330000000 1.0
C      1  0.4945610000000  0.5505010000000  0.5353430000000 1.0
C      1  0.5103230000000  0.5056860000000  0.5500380000000 1.0
C      1  0.4389000000000  0.4635270000000  0.5885220000000 1.0
C      1  0.5376190000000  0.5431810000000  0.4904050000000 1.0
C      1  0.6069320000000  0.5277210000000  0.4434060000000 1.0
C      1  0.5210170000000  0.5783490000000  0.4454120000000 1.0
C      1  0.5675250000000  0.4409780000000  0.4375720000000 1.0
C      1  0.4645180000000  0.5613300000000  0.5330340000000 1.0
C      1  0.5099690000000  0.5564530000000  0.5070820000000 1.0
C      1  0.4703970000000  0.5171640000000  0.4082310000000 1.0
C      1  0.4021040000000  0.4570590000000  0.4844170000000 1.0
C      1  0.4545880000000  0.4931940000000  0.5545930000000 1.0
C      1  0.5583970000000  0.5082070000000  0.5723650000000 1.0
C      1  0.4811740000000  0.5113540000000  0.4459750000000 1.0
C      1  0.4809630000000  0.4485270000000  0.5145160000000 1.0
C      1  0.6073680000000  0.4672940000000  0.4528900000000 1.0
C      1  0.4389270000000  0.5732330000000  0.4497060000000 1.0
C      1  0.5418020000000  0.5001190000000  0.5453180000000 1.0
C      1  0.4244060000000  0.4418190000000  0.4922530000000 1.0
C      1  0.4082200000000  0.5274140000000  0.4536300000000 1.0
C      1  0.4702490000000  0.5470940000000  0.5041200000000 1.0
C      1  0.5709220000000  0.4897140000000  0.4346910000000 1.0
C      1  0.5579720000000  0.5559550000000  0.4312120000000 1.0
C      1  0.5059120000000  0.5592710000000  0.4243410000000 1.0
C      1  0.5906660000000  0.5452100000000  0.4679330000000 1.0
C      1  0.5045820000000  0.4750550000000  0.4033770000000 1.0
C      1  0.4981570000000  0.4981540000000  0.5072100000000 1.0
C      1  0.5207250000000  0.3935980000000  0.4556890000000 1.0
C      1  0.4598860000000  0.4217800000000  0.4666510000000 1.0
C      1  0.4691250000000  0.4753130000000  0.5221900000000 1.0
C      1  0.4180630000000  0.4628920000000  0.5360240000000 1.0
C      1  0.5894130000000  0.4440000000000  0.5168900000000 1.0
C      1  0.5490100000000  0.5228990000000  0.5237570000000 1.0
C      1  0.5249730000000  0.6045700000000  0.4928460000000 1.0
C      1  0.4564940000000  0.4880750000000  0.4072920000000 1.0
C      1  0.5054130000000  0.5641400000000  0.5785790000000 1.0
C      1  0.4651980000000  0.4034940000000  0.5332690000000 1.0
C      1  0.5178590000000  0.5827710000000  0.5539050000000 1.0
C      1  0.4686060000000  0.5278370000000  0.5747070000000 1.0
C      1  0.5188170000000  0.4399270000000  0.4816910000000 1.0
C      1  0.4292990000000  0.5017460000000  0.4817130000000 1.0
C      1  0.4035450000000  0.4805170000000  0.5035760000000 1.0
C      1  0.3884530000000  0.5029410000000  0.4944220000000 1.0
C      1  0.4364350000000  0.4784250000000  0.5130410000000 1.0
C      1  0.4887850000000  0.4486760000000  0.5620120000000 1.0
C      1  0.5058320000000  0.4401290000000  0.4227360000000 1.0
C      1  0.6017490000000  0.4679390000000  0.5098450000000 1.0
C      1  0.5036790000000  0.4839570000000  0.5988050000000 1.0
C      1  0.5663860000000  0.4683090000000  0.5568300000000 1.0
C      1  0.5374390000000  0.4410420000000  0.4231560000000 1.0
C      1  0.4076730000000  0.5510770000000  0.5303820000000 1.0
C      1  0.5954030000000  0.5006580000000  0.5061330000000 1.0
C      1  0.4212410000000  0.4858890000000  0.5526310000000 1.0
C      1  0.4397890000000  0.5163810000000  0.5346040000000 1.0
C      1  0.3911340000000  0.5287130000000  0.5134680000000 1.0
C      1  0.4656680000000  0.4096280000000  0.4980680000000 1.0
C      1  0.5651870000000  0.4496880000000  0.4857350000000 1.0
C      1  0.5565910000000  0.5390430000000  0.5847720000000 1.0
C      1  0.5390600000000  0.4355780000000  0.4565850000000 1.0
C      1  0.5477410000000  0.5665100000000  0.5122700000000 1.0
C      1  0.4136060000000  0.5410550000000  0.4907980000000 1.0
C      1  0.4949770000000  0.5992380000000  0.5408680000000 1.0
C      1  0.4584610000000  0.4618760000000  0.5617190000000 1.0
C      1  0.4287060000000  0.5402680000000  0.5541920000000 1.0
C      1  0.5812490000000  0.4940990000000  0.5428740000000 1.0
C      1  0.5125840000000  0.5246030000000  0.4441720000000 1.0
C      1  0.5405560000000  0.4661060000000  0.5710410000000 1.0
C      1  0.5325450000000  0.5405810000000  0.4216590000000 1.0
C      1  0.4516690000000  0.4510350000000  0.4786920000000 1.0
C      1  0.4619720000000  0.4092050000000  0.5626510000000 1.0
END
