TITL C-2778428-5639-1459 -3.8779843190658e-05 125000 -975.148051881053 0 0 166 (C1) n - 1
REM
REM in /home/nfs/bkarasulu/CARBON/AIRSS/Generating-Clusters/REBO/Only-C1/SD-CG/HFTN-CG
REM
REM
REM
REM
REM
REM ./C.cell (11c1c37f851c82e70ff6c80c92926a4b)
REM
REM compiler GCC version 9.2.1 20190827 (Red Hat 9.2.1-1)
REM options -cpp -mtune=generic -march=x86-64 -g -O0 -fpre-include=/usr/include/finclude/math-vector-fortran.h
REM seed 1146166305 -643137990 1761959970 1721914572 2046496803 -2062275888 1734509131 -742953917 -1240985730 -1040344058 -61124508 -1865979363 -88388509 -341763796 -191814955 -1616014133 110827139 -336823014 1990761427 1210708421 1776477501 -1440470284 -1857056497 73420138 1276836520 -758682269 -1366282037 -1574376273 -247526286 1574260109 1461468587 -1553756699 860124936
REM
CELL 1.54180   50.00000   50.00000   50.00000   90.00000   90.00000   90.00000
LATT -1
SFAC C  
C      1  0.4912630000000  0.3900770000000  0.4775720000000 1.0
C      1  0.4660780000000  0.5186450000000  0.5545520000000 1.0
C      1  0.5113210000000  0.5347870000000  0.4439180000000 1.0
C      1  0.4523420000000  0.4099480000000  0.5124900000000 1.0
C      1  0.5824250000000  0.4538720000000  0.4576100000000 1.0
C      1  0.5779400000000  0.4958730000000  0.5702940000000 1.0
C      1  0.5623870000000  0.4382580000000  0.5480320000000 1.0
C      1  0.5438070000000  0.5522900000000  0.5265990000000 1.0
C      1  0.4076450000000  0.4934420000000  0.5470380000000 1.0
C      1  0.5355290000000  0.5980020000000  0.4466760000000 1.0
C      1  0.5790660000000  0.4206380000000  0.5363010000000 1.0
C      1  0.4887720000000  0.6073320000000  0.4731180000000 1.0
C      1  0.5727390000000  0.5055690000000  0.4690230000000 1.0
C      1  0.4634880000000  0.4383090000000  0.5524140000000 1.0
C      1  0.4707790000000  0.4640050000000  0.5364200000000 1.0
C      1  0.4735050000000  0.5076810000000  0.4668310000000 1.0
C      1  0.5565310000000  0.4252040000000  0.4158670000000 1.0
C      1  0.4662800000000  0.5370080000000  0.5959020000000 1.0
C      1  0.4030110000000  0.4514320000000  0.5306120000000 1.0
C      1  0.5853850000000  0.5196180000000  0.5244750000000 1.0
C      1  0.4247160000000  0.5502040000000  0.5392580000000 1.0
C      1  0.5237180000000  0.4623620000000  0.5876750000000 1.0
C      1  0.4226340000000  0.4436900000000  0.4825000000000 1.0
C      1  0.4151380000000  0.4865240000000  0.5735100000000 1.0
C      1  0.5382130000000  0.4854680000000  0.4396050000000 1.0
C      1  0.5910680000000  0.5273990000000  0.4202290000000 1.0
C      1  0.5555490000000  0.5904060000000  0.5261440000000 1.0
C      1  0.5209800000000  0.3996720000000  0.4689500000000 1.0
C      1  0.4675730000000  0.4902080000000  0.4956930000000 1.0
C      1  0.4287250000000  0.4612400000000  0.5750070000000 1.0
C      1  0.4029460000000  0.5242650000000  0.5405710000000 1.0
C      1  0.5245500000000  0.4361930000000  0.5029140000000 1.0
C      1  0.5313880000000  0.4140150000000  0.4448870000000 1.0
C      1  0.5326460000000  0.4445990000000  0.5346070000000 1.0
C      1  0.4668240000000  0.5184780000000  0.5146070000000 1.0
C      1  0.4223580000000  0.5809230000000  0.5395050000000 1.0
C      1  0.4391330000000  0.5804240000000  0.4658270000000 1.0
C      1  0.4278830000000  0.4451230000000  0.4488970000000 1.0
C      1  0.4954570000000  0.5494160000000  0.5913570000000 1.0
C      1  0.5714550000000  0.4648230000000  0.5616240000000 1.0
C      1  0.4501810000000  0.5427550000000  0.5688010000000 1.0
C      1  0.5467080000000  0.5105040000000  0.5503800000000 1.0
C      1  0.6085710000000  0.5113090000000  0.4069150000000 1.0
C      1  0.4903950000000  0.5951970000000  0.5280450000000 1.0
C      1  0.4450390000000  0.5405340000000  0.5146530000000 1.0
C      1  0.4971170000000  0.3775830000000  0.5069990000000 1.0
C      1  0.4844430000000  0.5534110000000  0.4535660000000 1.0
C      1  0.3953120000000  0.4519940000000  0.5009200000000 1.0
C      1  0.5031770000000  0.4411360000000  0.4522080000000 1.0
C      1  0.4622860000000  0.4500190000000  0.4116230000000 1.0
C      1  0.5541400000000  0.5107960000000  0.4488460000000 1.0
C      1  0.4838790000000  0.4084930000000  0.5122970000000 1.0
C      1  0.5029750000000  0.4823560000000  0.4578960000000 1.0
C      1  0.4086580000000  0.5468120000000  0.4860470000000 1.0
C      1  0.5419340000000  0.5398340000000  0.4498730000000 1.0
C      1  0.5421240000000  0.5215480000000  0.4018940000000 1.0
C      1  0.4329960000000  0.4541100000000  0.5132570000000 1.0
C      1  0.4899480000000  0.5582610000000  0.4202970000000 1.0
C      1  0.4433340000000  0.4680590000000  0.4292180000000 1.0
C      1  0.5696600000000  0.5504020000000  0.4872680000000 1.0
C      1  0.4759480000000  0.4668070000000  0.3934720000000 1.0
C      1  0.5337950000000  0.4572520000000  0.4838430000000 1.0
C      1  0.4848190000000  0.4912800000000  0.4053430000000 1.0
C      1  0.4561290000000  0.4452550000000  0.4766470000000 1.0
C      1  0.4540540000000  0.4612070000000  0.5904630000000 1.0
C      1  0.5904620000000  0.5119270000000  0.5521830000000 1.0
C      1  0.5544870000000  0.5240910000000  0.5229700000000 1.0
C      1  0.5074720000000  0.4851810000000  0.4242460000000 1.0
C      1  0.4162910000000  0.4744060000000  0.4578560000000 1.0
C      1  0.4278460000000  0.4834310000000  0.5264710000000 1.0
C      1  0.5654800000000  0.5768750000000  0.5008130000000 1.0
C      1  0.4012750000000  0.4773510000000  0.4851720000000 1.0
C      1  0.4865990000000  0.4957750000000  0.5632730000000 1.0
C      1  0.5606430000000  0.4278060000000  0.4554860000000 1.0
C      1  0.5974830000000  0.4753090000000  0.4765800000000 1.0
C      1  0.5188470000000  0.5245890000000  0.5929060000000 1.0
C      1  0.5038360000000  0.5138390000000  0.4651370000000 1.0
C      1  0.5629620000000  0.4916290000000  0.4906770000000 1.0
C      1  0.5421570000000  0.4786140000000  0.5384090000000 1.0
C      1  0.5183910000000  0.4981050000000  0.5750400000000 1.0
C      1  0.5167950000000  0.5389490000000  0.4114570000000 1.0
C      1  0.5163690000000  0.5231080000000  0.4900810000000 1.0
C      1  0.5852290000000  0.4167530000000  0.5105970000000 1.0
C      1  0.4199370000000  0.5910310000000  0.5127250000000 1.0
C      1  0.5291620000000  0.4654920000000  0.4065260000000 1.0
C      1  0.4701720000000  0.5380670000000  0.4061040000000 1.0
C      1  0.4171590000000  0.5756340000000  0.4866800000000 1.0
C      1  0.5335110000000  0.6005180000000  0.5018910000000 1.0
C      1  0.5012450000000  0.4382600000000  0.5860340000000 1.0
C      1  0.5417640000000  0.4943340000000  0.4064110000000 1.0
C      1  0.5313600000000  0.4548320000000  0.4532840000000 1.0
C      1  0.5440450000000  0.5590650000000  0.4150320000000 1.0
C      1  0.4895160000000  0.4235970000000  0.4740790000000 1.0
C      1  0.4936140000000  0.5296870000000  0.5417880000000 1.0
C      1  0.4610490000000  0.4058170000000  0.4797060000000 1.0
C      1  0.4727290000000  0.4277190000000  0.4265530000000 1.0
C      1  0.5737930000000  0.4707530000000  0.5281120000000 1.0
C      1  0.5035900000000  0.4217350000000  0.4268220000000 1.0
C      1  0.4512130000000  0.5745920000000  0.5566410000000 1.0
C      1  0.4617240000000  0.5354440000000  0.4589550000000 1.0
C      1  0.4483910000000  0.5105640000000  0.6005100000000 1.0
C      1  0.4660100000000  0.4861090000000  0.5998680000000 1.0
C      1  0.4970990000000  0.4825490000000  0.5127600000000 1.0
C      1  0.4142560000000  0.5272250000000  0.5087350000000 1.0
C      1  0.4236500000000  0.5099180000000  0.5873380000000 1.0
C      1  0.5497100000000  0.5289930000000  0.5789430000000 1.0
C      1  0.4376600000000  0.4919920000000  0.4779840000000 1.0
C      1  0.4403230000000  0.5015980000000  0.4225120000000 1.0
C      1  0.5410640000000  0.5773000000000  0.4802470000000 1.0
C      1  0.4759400000000  0.5563830000000  0.5339720000000 1.0
C      1  0.5652310000000  0.4111540000000  0.4848310000000 1.0
C      1  0.4786710000000  0.4594820000000  0.4603230000000 1.0
C      1  0.5208030000000  0.6096670000000  0.4687760000000 1.0
C      1  0.5022090000000  0.5954480000000  0.5008910000000 1.0
C      1  0.4492070000000  0.5938840000000  0.5020830000000 1.0
C      1  0.4660650000000  0.5648410000000  0.5039170000000 1.0
C      1  0.5199660000000  0.5314580000000  0.5536090000000 1.0
C      1  0.5177530000000  0.5725310000000  0.4325960000000 1.0
C      1  0.5984710000000  0.5053170000000  0.5028440000000 1.0
C      1  0.4969640000000  0.5336150000000  0.5096360000000 1.0
C      1  0.5391480000000  0.5050060000000  0.5035130000000 1.0
C      1  0.5058740000000  0.5787630000000  0.5473790000000 1.0
C      1  0.5584270000000  0.5689060000000  0.5484910000000 1.0
C      1  0.4656530000000  0.4569540000000  0.5051430000000 1.0
C      1  0.4568930000000  0.4926400000000  0.5346550000000 1.0
C      1  0.5263960000000  0.5636390000000  0.5931690000000 1.0
C      1  0.4237870000000  0.4428050000000  0.5513700000000 1.0
C      1  0.5813570000000  0.4399300000000  0.4874730000000 1.0
C      1  0.4703550000000  0.4405260000000  0.5799320000000 1.0
C      1  0.4980860000000  0.4652490000000  0.5654820000000 1.0
C      1  0.6043810000000  0.5081690000000  0.4693260000000 1.0
C      1  0.4111500000000  0.4914840000000  0.4328980000000 1.0
C      1  0.4828130000000  0.5654530000000  0.5663440000000 1.0
C      1  0.4314720000000  0.5472940000000  0.4624280000000 1.0
C      1  0.5557720000000  0.5706050000000  0.4436770000000 1.0
C      1  0.5102150000000  0.3972620000000  0.5290910000000 1.0
C      1  0.4613920000000  0.6002350000000  0.4723340000000 1.0
C      1  0.5788880000000  0.5531410000000  0.4593000000000 1.0
C      1  0.5480260000000  0.4817460000000  0.5789210000000 1.0
C      1  0.5022210000000  0.4568700000000  0.5351630000000 1.0
C      1  0.4905560000000  0.5686770000000  0.4825390000000 1.0
C      1  0.4881770000000  0.5111510000000  0.5997720000000 1.0
C      1  0.4641630000000  0.4844820000000  0.4490040000000 1.0
C      1  0.5356910000000  0.4093670000000  0.4920120000000 1.0
C      1  0.5440190000000  0.5374900000000  0.4815050000000 1.0
C      1  0.4628280000000  0.5939260000000  0.5310350000000 1.0
C      1  0.5172900000000  0.4832780000000  0.4888590000000 1.0
C      1  0.5940880000000  0.5322040000000  0.4482900000000 1.0
C      1  0.5412190000000  0.4465640000000  0.4238320000000 1.0
C      1  0.5621540000000  0.5537040000000  0.5729470000000 1.0
C      1  0.5945210000000  0.4754710000000  0.5090160000000 1.0
C      1  0.4650020000000  0.5115220000000  0.4084480000000 1.0
C      1  0.4538970000000  0.4230880000000  0.4512190000000 1.0
C      1  0.4175780000000  0.4983820000000  0.5018230000000 1.0
C      1  0.5674310000000  0.5369200000000  0.4076290000000 1.0
C      1  0.5218530000000  0.4146090000000  0.5470400000000 1.0
C      1  0.5234340000000  0.5580900000000  0.5642700000000 1.0
C      1  0.5157870000000  0.5578310000000  0.5240610000000 1.0
C      1  0.4367490000000  0.5147680000000  0.4529510000000 1.0
C      1  0.5188820000000  0.5678600000000  0.4663030000000 1.0
C      1  0.5150250000000  0.4139410000000  0.5735010000000 1.0
C      1  0.5119860000000  0.4943840000000  0.5411240000000 1.0
C      1  0.5616030000000  0.4637980000000  0.4899800000000 1.0
C      1  0.4929640000000  0.4367940000000  0.5021340000000 1.0
C      1  0.4192390000000  0.5341150000000  0.5688110000000 1.0
C      1  0.4430380000000  0.4222230000000  0.5368500000000 1.0
END
