TITL C-2778436-5916-561 0.000364063517511045 125000 -221.834712407527 0 0 39 (C1) n - 1
REM
REM in /home/nfs/bkarasulu/CARBON/AIRSS/Generating-Clusters/REBO/Only-C1/SD-CG/HFTN-CG
REM
REM
REM
REM
REM
REM ./C.cell (11c1c37f851c82e70ff6c80c92926a4b)
REM
REM compiler GCC version 9.2.1 20190827 (Red Hat 9.2.1-1)
REM options -cpp -mtune=generic -march=x86-64 -g -O0 -fpre-include=/usr/include/finclude/math-vector-fortran.h
REM seed -111299900 1185575845 -402110054 -1608574826 -1403695275 1505701202 104283689 1633013157 953753081 1858339690 -1694738521 -1597125423 961999493 -1082535558 -1114798593 1499388044 -1603071564 1411873216 -1219819331 -2055743941 -744209915 -1550253121 -1982431380 1208435191 1971966723 -2012050146 -2052027843 -1242434222 -1438791151 1010580057 -374154234 -13388600 394163424
REM
CELL 1.54180   50.00000   50.00000   50.00000   90.00000   90.00000   90.00000
LATT -1
SFAC C  
C      1  0.4671980000000  0.4675950000000  0.5251160000000 1.0
C      1  0.5334670000000  0.5308100000000  0.4520580000000 1.0
C      1  0.4315440000000  0.5190080000000  0.4545190000000 1.0
C      1  0.5065180000000  0.4420000000000  0.5059850000000 1.0
C      1  0.4738820000000  0.4417470000000  0.5094800000000 1.0
C      1  0.4982850000000  0.5575510000000  0.5146610000000 1.0
C      1  0.4835310000000  0.4870830000000  0.5052400000000 1.0
C      1  0.5546900000000  0.4174790000000  0.5294330000000 1.0
C      1  0.5459300000000  0.5184210000000  0.5237280000000 1.0
C      1  0.5211020000000  0.4548060000000  0.5308350000000 1.0
C      1  0.4736660000000  0.4913210000000  0.4402340000000 1.0
C      1  0.4607660000000  0.4603690000000  0.4864260000000 1.0
C      1  0.5126150000000  0.4808150000000  0.5406510000000 1.0
C      1  0.5278120000000  0.5027290000000  0.4503550000000 1.0
C      1  0.5597730000000  0.5332510000000  0.4979810000000 1.0
C      1  0.5018420000000  0.4905350000000  0.4685880000000 1.0
C      1  0.5478550000000  0.5443780000000  0.4732410000000 1.0
C      1  0.4525670000000  0.5033050000000  0.4634170000000 1.0
C      1  0.5221260000000  0.5038460000000  0.5253740000000 1.0
C      1  0.4636330000000  0.5067500000000  0.5361610000000 1.0
C      1  0.4657010000000  0.5333270000000  0.5488700000000 1.0
C      1  0.4466290000000  0.4997950000000  0.5135320000000 1.0
C      1  0.4473760000000  0.4855360000000  0.4882700000000 1.0
C      1  0.5025850000000  0.4879540000000  0.4352880000000 1.0
C      1  0.4892280000000  0.5434770000000  0.4621640000000 1.0
C      1  0.4919090000000  0.5365690000000  0.4947650000000 1.0
C      1  0.5101430000000  0.5462220000000  0.4450620000000 1.0
C      1  0.4828650000000  0.5533280000000  0.5378970000000 1.0
C      1  0.4511850000000  0.5383880000000  0.5714250000000 1.0
C      1  0.5208270000000  0.4167180000000  0.4956960000000 1.0
C      1  0.4946780000000  0.4642900000000  0.4842260000000 1.0
C      1  0.5251380000000  0.5674570000000  0.5107180000000 1.0
C      1  0.4838480000000  0.4845830000000  0.5451420000000 1.0
C      1  0.4812180000000  0.5130750000000  0.4728770000000 1.0
C      1  0.5436740000000  0.4404380000000  0.5400080000000 1.0
C      1  0.5001410000000  0.5093970000000  0.5079000000000 1.0
C      1  0.5340150000000  0.5690560000000  0.4824480000000 1.0
C      1  0.5468640000000  0.5508120000000  0.5230350000000 1.0
C      1  0.5431750000000  0.4057790000000  0.5071930000000 1.0
END
