TITL C-2778432-5617-563 0.00221442560251236 125000 -1108.90708327871 0 0 192 (C1) n - 1
REM
REM in /home/nfs/bkarasulu/CARBON/AIRSS/Generating-Clusters/REBO/Only-C1/SD-CG/HFTN-CG
REM
REM
REM
REM
REM
REM ./C.cell (11c1c37f851c82e70ff6c80c92926a4b)
REM
REM compiler GCC version 9.2.1 20190827 (Red Hat 9.2.1-1)
REM options -cpp -mtune=generic -march=x86-64 -g -O0 -fpre-include=/usr/include/finclude/math-vector-fortran.h
REM seed 1635704604 -1742845547 -183472971 510474289 -1416872373 1332809767 2081841579 -978937856 961328417 -2117750862 -503374510 1864640190 -1173027305 552699772 -1148074140 528594444 -1626039943 1799847372 1106544498 -316730119 -1305632732 1409745744 659863100 1550297247 1879302416 -1714788656 -976991950 -1393010108 -1228598516 2060397292 1300884412 -419632679 -2024617896
REM
CELL 1.54180   50.00000   50.00000   50.00000   90.00000   90.00000   90.00000
LATT -1
SFAC C  
C      1  0.4923000000000  0.5519760000000  0.4500820000000 1.0
C      1  0.5497600000000  0.4849900000000  0.4344680000000 1.0
C      1  0.3909870000000  0.4623350000000  0.4987530000000 1.0
C      1  0.4366520000000  0.4788030000000  0.4579850000000 1.0
C      1  0.4717480000000  0.5018230000000  0.4284970000000 1.0
C      1  0.5760760000000  0.4702480000000  0.5796320000000 1.0
C      1  0.4145240000000  0.4453170000000  0.5258020000000 1.0
C      1  0.5820310000000  0.5080820000000  0.5312080000000 1.0
C      1  0.5915920000000  0.4780510000000  0.5071570000000 1.0
C      1  0.4785810000000  0.5304550000000  0.5090940000000 1.0
C      1  0.4073200000000  0.4378210000000  0.4919700000000 1.0
C      1  0.4250940000000  0.5382700000000  0.4826270000000 1.0
C      1  0.5356580000000  0.4855800000000  0.4936840000000 1.0
C      1  0.5783640000000  0.5691320000000  0.5471750000000 1.0
C      1  0.5859870000000  0.4584650000000  0.4837950000000 1.0
C      1  0.4008480000000  0.4949260000000  0.4440410000000 1.0
C      1  0.4902130000000  0.4327770000000  0.5918310000000 1.0
C      1  0.5430280000000  0.5151950000000  0.5363690000000 1.0
C      1  0.5597030000000  0.4711660000000  0.5111200000000 1.0
C      1  0.5687410000000  0.5728820000000  0.4811970000000 1.0
C      1  0.4130390000000  0.4693450000000  0.5669390000000 1.0
C      1  0.4672870000000  0.5968670000000  0.5473800000000 1.0
C      1  0.4195060000000  0.4599340000000  0.4403730000000 1.0
C      1  0.4939040000000  0.5302540000000  0.5472320000000 1.0
C      1  0.4971420000000  0.3965130000000  0.4488790000000 1.0
C      1  0.5029950000000  0.5130910000000  0.4063110000000 1.0
C      1  0.5982460000000  0.4832890000000  0.5580720000000 1.0
C      1  0.4542350000000  0.5475050000000  0.4939510000000 1.0
C      1  0.4276840000000  0.5381300000000  0.5688100000000 1.0
C      1  0.4903480000000  0.4264220000000  0.4745330000000 1.0
C      1  0.4657990000000  0.5342660000000  0.4262940000000 1.0
C      1  0.5659520000000  0.4365790000000  0.5387410000000 1.0
C      1  0.5913120000000  0.5453930000000  0.5421450000000 1.0
C      1  0.4922720000000  0.4735120000000  0.4130480000000 1.0
C      1  0.4638050000000  0.4327960000000  0.4278330000000 1.0
C      1  0.5329150000000  0.5909150000000  0.5702470000000 1.0
C      1  0.4840030000000  0.3961490000000  0.4866550000000 1.0
C      1  0.5270210000000  0.5605130000000  0.5695330000000 1.0
C      1  0.4390710000000  0.4174350000000  0.4690940000000 1.0
C      1  0.4675850000000  0.5340860000000  0.3864930000000 1.0
C      1  0.4543770000000  0.4567450000000  0.5027570000000 1.0
C      1  0.4741140000000  0.5551260000000  0.5468100000000 1.0
C      1  0.5165330000000  0.5214420000000  0.6110760000000 1.0
C      1  0.5027870000000  0.4188920000000  0.5041990000000 1.0
C      1  0.5112040000000  0.6047690000000  0.5018020000000 1.0
C      1  0.5044320000000  0.3985090000000  0.5462570000000 1.0
C      1  0.5296550000000  0.5209060000000  0.4684460000000 1.0
C      1  0.4894500000000  0.4795610000000  0.5626000000000 1.0
C      1  0.4813870000000  0.4077200000000  0.4338990000000 1.0
C      1  0.5642650000000  0.5873050000000  0.5269940000000 1.0
C      1  0.4290700000000  0.5784710000000  0.4916760000000 1.0
C      1  0.5425010000000  0.5012790000000  0.6011670000000 1.0
C      1  0.4058590000000  0.5391860000000  0.5191010000000 1.0
C      1  0.4093730000000  0.5259740000000  0.5447950000000 1.0
C      1  0.4879330000000  0.5539710000000  0.3939960000000 1.0
C      1  0.5163200000000  0.5333690000000  0.5257530000000 1.0
C      1  0.5227090000000  0.5492820000000  0.6004540000000 1.0
C      1  0.4609310000000  0.4271240000000  0.5879980000000 1.0
C      1  0.5603140000000  0.4939100000000  0.5518090000000 1.0
C      1  0.4861580000000  0.5983790000000  0.4791320000000 1.0
C      1  0.5275600000000  0.4684610000000  0.5549780000000 1.0
C      1  0.5802300000000  0.5412070000000  0.4817180000000 1.0
C      1  0.5483830000000  0.4174700000000  0.5511810000000 1.0
C      1  0.4368350000000  0.5717910000000  0.4168490000000 1.0
C      1  0.5052400000000  0.4998040000000  0.5441030000000 1.0
C      1  0.4735910000000  0.5837200000000  0.5166590000000 1.0
C      1  0.4843630000000  0.5222380000000  0.5765570000000 1.0
C      1  0.5282420000000  0.4700790000000  0.6019170000000 1.0
C      1  0.5176920000000  0.5758460000000  0.4290180000000 1.0
C      1  0.4369600000000  0.4313530000000  0.4391600000000 1.0
C      1  0.4256540000000  0.5205610000000  0.4264200000000 1.0
C      1  0.4667990000000  0.4531610000000  0.4043240000000 1.0
C      1  0.5443200000000  0.4271890000000  0.5781900000000 1.0
C      1  0.3998270000000  0.5204700000000  0.4912760000000 1.0
C      1  0.4600780000000  0.3981380000000  0.5225170000000 1.0
C      1  0.5586950000000  0.4619990000000  0.5517960000000 1.0
C      1  0.5624650000000  0.4021560000000  0.4980250000000 1.0
C      1  0.5208830000000  0.4460300000000  0.4112500000000 1.0
C      1  0.5491880000000  0.5906330000000  0.4511690000000 1.0
C      1  0.5296150000000  0.4024260000000  0.5363020000000 1.0
C      1  0.5616400000000  0.5190930000000  0.5091840000000 1.0
C      1  0.5952170000000  0.4927050000000  0.4455980000000 1.0
C      1  0.4601810000000  0.5883700000000  0.4264320000000 1.0
C      1  0.5108690000000  0.4376980000000  0.4546100000000 1.0
C      1  0.6027000000000  0.4666550000000  0.5341260000000 1.0
C      1  0.4643740000000  0.4669010000000  0.4655200000000 1.0
C      1  0.4847290000000  0.5219050000000  0.4526670000000 1.0
C      1  0.4202510000000  0.5204190000000  0.5969840000000 1.0
C      1  0.5158680000000  0.5568440000000  0.4072970000000 1.0
C      1  0.5961930000000  0.5409170000000  0.5117300000000 1.0
C      1  0.4579470000000  0.4576390000000  0.5837880000000 1.0
C      1  0.4501950000000  0.5576780000000  0.5713580000000 1.0
C      1  0.5410200000000  0.5451990000000  0.4877220000000 1.0
C      1  0.5617130000000  0.4250710000000  0.4655230000000 1.0
C      1  0.4667010000000  0.5833450000000  0.4557410000000 1.0
C      1  0.4746030000000  0.5157270000000  0.4808000000000 1.0
C      1  0.4958870000000  0.4947090000000  0.5125780000000 1.0
C      1  0.5349890000000  0.4137830000000  0.4540030000000 1.0
C      1  0.5881850000000  0.4409360000000  0.5215860000000 1.0
C      1  0.5252790000000  0.4951980000000  0.5709750000000 1.0
C      1  0.4419430000000  0.5214290000000  0.5222190000000 1.0
C      1  0.4363230000000  0.4268840000000  0.5701770000000 1.0
C      1  0.5995510000000  0.5088870000000  0.5018350000000 1.0
C      1  0.4626410000000  0.4377630000000  0.4768740000000 1.0
C      1  0.5087660000000  0.4373980000000  0.5387720000000 1.0
C      1  0.5836660000000  0.4257030000000  0.4921920000000 1.0
C      1  0.5518410000000  0.5500070000000  0.5197890000000 1.0
C      1  0.5047910000000  0.4498240000000  0.5696950000000 1.0
C      1  0.5301230000000  0.4584860000000  0.5224670000000 1.0
C      1  0.4709680000000  0.4780810000000  0.6078500000000 1.0
C      1  0.4853480000000  0.4559930000000  0.4410160000000 1.0
C      1  0.5252370000000  0.6019780000000  0.4719170000000 1.0
C      1  0.4408900000000  0.5405470000000  0.4046010000000 1.0
C      1  0.5179830000000  0.6018120000000  0.5437940000000 1.0
C      1  0.5378000000000  0.4905610000000  0.3863340000000 1.0
C      1  0.4293780000000  0.5508200000000  0.4413500000000 1.0
C      1  0.4873630000000  0.4490990000000  0.5072680000000 1.0
C      1  0.4462260000000  0.4902710000000  0.5473360000000 1.0
C      1  0.5379120000000  0.5781360000000  0.4886600000000 1.0
C      1  0.5898290000000  0.4659930000000  0.4537410000000 1.0
C      1  0.4904410000000  0.5600570000000  0.5092570000000 1.0
C      1  0.5308760000000  0.4237420000000  0.4230500000000 1.0
C      1  0.4973590000000  0.4483830000000  0.3902020000000 1.0
C      1  0.5956170000000  0.5172250000000  0.5593600000000 1.0
C      1  0.4845850000000  0.4603650000000  0.5371090000000 1.0
C      1  0.4532420000000  0.4371650000000  0.5307150000000 1.0
C      1  0.5047870000000  0.4940860000000  0.5958400000000 1.0
C      1  0.5829020000000  0.5716320000000  0.5075300000000 1.0
C      1  0.4544030000000  0.4837030000000  0.4059650000000 1.0
C      1  0.5665020000000  0.5027870000000  0.5823870000000 1.0
C      1  0.5664400000000  0.4495350000000  0.4423690000000 1.0
C      1  0.4210580000000  0.5037020000000  0.5087110000000 1.0
C      1  0.4191990000000  0.4444900000000  0.5559240000000 1.0
C      1  0.5703980000000  0.5340410000000  0.5748350000000 1.0
C      1  0.4742240000000  0.5455150000000  0.5894290000000 1.0
C      1  0.4112870000000  0.4346150000000  0.4615950000000 1.0
C      1  0.4233820000000  0.5618140000000  0.5148840000000 1.0
C      1  0.5228360000000  0.5610180000000  0.4563870000000 1.0
C      1  0.5022170000000  0.5621470000000  0.4806190000000 1.0
C      1  0.4049730000000  0.4776930000000  0.5205490000000 1.0
C      1  0.5505820000000  0.5100170000000  0.4112660000000 1.0
C      1  0.4382910000000  0.4817290000000  0.4917790000000 1.0
C      1  0.5128250000000  0.4625530000000  0.4932720000000 1.0
C      1  0.4510160000000  0.5526020000000  0.5275130000000 1.0
C      1  0.4329710000000  0.4234370000000  0.5080790000000 1.0
C      1  0.5822150000000  0.5047010000000  0.4226170000000 1.0
C      1  0.5530430000000  0.4503480000000  0.4865960000000 1.0
C      1  0.4536580000000  0.5589040000000  0.4639030000000 1.0
C      1  0.5662260000000  0.5098200000000  0.4799970000000 1.0
C      1  0.4972860000000  0.4574470000000  0.6081450000000 1.0
C      1  0.5215890000000  0.5651970000000  0.5156700000000 1.0
C      1  0.5165670000000  0.3950820000000  0.4756120000000 1.0
C      1  0.4129750000000  0.4952860000000  0.5467390000000 1.0
C      1  0.4956710000000  0.5661310000000  0.5954660000000 1.0
C      1  0.4800930000000  0.5638980000000  0.4236220000000 1.0
C      1  0.4440820000000  0.5125920000000  0.4774500000000 1.0
C      1  0.5592800000000  0.5692000000000  0.4425870000000 1.0
C      1  0.4150590000000  0.5659290000000  0.4673040000000 1.0
C      1  0.5393600000000  0.6004970000000  0.5211740000000 1.0
C      1  0.4734000000000  0.5826180000000  0.5754010000000 1.0
C      1  0.4684950000000  0.5051220000000  0.5294910000000 1.0
C      1  0.5031780000000  0.4759250000000  0.4635150000000 1.0
C      1  0.5591800000000  0.4597090000000  0.4136070000000 1.0
C      1  0.4814760000000  0.4857600000000  0.4855040000000 1.0
C      1  0.5495400000000  0.4518110000000  0.5893580000000 1.0
C      1  0.5033210000000  0.5950130000000  0.4495360000000 1.0
C      1  0.5212090000000  0.5130530000000  0.5005720000000 1.0
C      1  0.5974890000000  0.5093440000000  0.4689750000000 1.0
C      1  0.5088890000000  0.4935320000000  0.3830090000000 1.0
C      1  0.5505090000000  0.4869210000000  0.4654180000000 1.0
C      1  0.4998790000000  0.5750580000000  0.5550780000000 1.0
C      1  0.4452160000000  0.5065500000000  0.4464390000000 1.0
C      1  0.5166920000000  0.5012730000000  0.4498330000000 1.0
C      1  0.5510060000000  0.4651730000000  0.3882920000000 1.0
C      1  0.4863670000000  0.5067200000000  0.6191540000000 1.0
C      1  0.4684610000000  0.4958320000000  0.5800290000000 1.0
C      1  0.5475620000000  0.5443850000000  0.5532290000000 1.0
C      1  0.5254200000000  0.5296560000000  0.4119320000000 1.0
C      1  0.5554150000000  0.5412090000000  0.4580020000000 1.0
C      1  0.4391280000000  0.5065040000000  0.5747070000000 1.0
C      1  0.5202680000000  0.4759510000000  0.4273660000000 1.0
C      1  0.5560070000000  0.5511570000000  0.5952750000000 1.0
C      1  0.4803100000000  0.4184790000000  0.5370770000000 1.0
C      1  0.4552520000000  0.5913680000000  0.4927110000000 1.0
C      1  0.4549330000000  0.4621620000000  0.5530620000000 1.0
C      1  0.5322980000000  0.4020130000000  0.5048570000000 1.0
C      1  0.4522220000000  0.3999700000000  0.4926910000000 1.0
C      1  0.4912920000000  0.6093280000000  0.5287590000000 1.0
C      1  0.4234370000000  0.4868370000000  0.4197410000000 1.0
C      1  0.5371670000000  0.4557300000000  0.4586530000000 1.0
C      1  0.3926790000000  0.5050380000000  0.4650060000000 1.0
C      1  0.4763500000000  0.5033050000000  0.3889220000000 1.0
END
