TITL C-2778422-5617-990 -0.000540827074922462 125000 -444.815313306532 0 0 76 (C1) n - 1
REM
REM in /home/nfs/bkarasulu/CARBON/AIRSS/Generating-Clusters/REBO/Only-C1/SD-CG/HFTN-CG
REM
REM
REM
REM
REM
REM ./C.cell (11c1c37f851c82e70ff6c80c92926a4b)
REM
REM compiler GCC version 9.2.1 20190827 (Red Hat 9.2.1-1)
REM options -cpp -mtune=generic -march=x86-64 -g -O0 -fpre-include=/usr/include/finclude/math-vector-fortran.h
REM seed -1354952641 755440774 -1952453614 731024999 1085862640 1696256091 -1031611680 -109483673 -100275392 -1680731494 -1736068050 -1725475709 735482074 -5221530 -931469190 820471347 -1758122709 1654688104 650204278 -1554796732 2074797604 1397187716 -2040824433 25621203 -2146957354 924800545 -70785222 81644069 2032064419 1488499054 694703942 -348245980 -1874935354
REM
CELL 1.54180   50.00000   50.00000   50.00000   90.00000   90.00000   90.00000
LATT -1
SFAC C  
C      1  0.4975740000000  0.4973440000000  0.4747530000000 1.0
C      1  0.5715600000000  0.4740410000000  0.5484270000000 1.0
C      1  0.4966170000000  0.5766420000000  0.5396630000000 1.0
C      1  0.5202650000000  0.5159680000000  0.4629750000000 1.0
C      1  0.4747330000000  0.4578690000000  0.5476200000000 1.0
C      1  0.5001880000000  0.4570980000000  0.5097940000000 1.0
C      1  0.4853820000000  0.4252420000000  0.5134470000000 1.0
C      1  0.4286510000000  0.5399180000000  0.5312390000000 1.0
C      1  0.4483250000000  0.5511830000000  0.4880420000000 1.0
C      1  0.5155550000000  0.4499490000000  0.4258360000000 1.0
C      1  0.4712060000000  0.4826700000000  0.4920460000000 1.0
C      1  0.5435110000000  0.4751370000000  0.4506010000000 1.0
C      1  0.4255550000000  0.5419810000000  0.5023530000000 1.0
C      1  0.5501190000000  0.5668160000000  0.4842670000000 1.0
C      1  0.5482310000000  0.4774690000000  0.5611060000000 1.0
C      1  0.5149300000000  0.4269960000000  0.4720580000000 1.0
C      1  0.4604380000000  0.4355930000000  0.4733600000000 1.0
C      1  0.4909990000000  0.5402840000000  0.5734030000000 1.0
C      1  0.5147370000000  0.4263740000000  0.5482980000000 1.0
C      1  0.5086340000000  0.5366120000000  0.5153450000000 1.0
C      1  0.5139120000000  0.4184890000000  0.5204150000000 1.0
C      1  0.5023000000000  0.4815710000000  0.5315310000000 1.0
C      1  0.4791850000000  0.5249360000000  0.5212080000000 1.0
C      1  0.3935510000000  0.5195140000000  0.4720530000000 1.0
C      1  0.4263360000000  0.4663620000000  0.4889220000000 1.0
C      1  0.4777090000000  0.5610340000000  0.5548090000000 1.0
C      1  0.5199460000000  0.5844900000000  0.5538300000000 1.0
C      1  0.4673970000000  0.5090260000000  0.4448830000000 1.0
C      1  0.4650740000000  0.4443360000000  0.5239580000000 1.0
C      1  0.4667960000000  0.5670720000000  0.4997500000000 1.0
C      1  0.5250630000000  0.4608850000000  0.4909620000000 1.0
C      1  0.5773720000000  0.4875690000000  0.5214480000000 1.0
C      1  0.5009090000000  0.5690840000000  0.4794870000000 1.0
C      1  0.5343830000000  0.5216800000000  0.5317380000000 1.0
C      1  0.4537050000000  0.4609880000000  0.5035210000000 1.0
C      1  0.4236510000000  0.5121230000000  0.5382640000000 1.0
C      1  0.4579660000000  0.4764530000000  0.4498140000000 1.0
C      1  0.5203900000000  0.4663600000000  0.4640830000000 1.0
C      1  0.4904230000000  0.4448290000000  0.4793360000000 1.0
C      1  0.4714570000000  0.4899500000000  0.5433890000000 1.0
C      1  0.4479260000000  0.4965600000000  0.5235990000000 1.0
C      1  0.4245920000000  0.4937750000000  0.4999030000000 1.0
C      1  0.4427620000000  0.4559080000000  0.4655120000000 1.0
C      1  0.5253010000000  0.5183740000000  0.4938300000000 1.0
C      1  0.5679810000000  0.4641730000000  0.4616790000000 1.0
C      1  0.4759900000000  0.4839390000000  0.4230770000000 1.0
C      1  0.5034180000000  0.4735310000000  0.4167550000000 1.0
C      1  0.5443530000000  0.5037280000000  0.4490320000000 1.0
C      1  0.5749700000000  0.4680820000000  0.4945100000000 1.0
C      1  0.5836070000000  0.5195150000000  0.5256430000000 1.0
C      1  0.5313810000000  0.4220770000000  0.4967560000000 1.0
C      1  0.4603140000000  0.5283560000000  0.4673850000000 1.0
C      1  0.4722630000000  0.5216720000000  0.5529530000000 1.0
C      1  0.5153420000000  0.5478820000000  0.5849000000000 1.0
C      1  0.4522440000000  0.5485270000000  0.5440640000000 1.0
C      1  0.5219100000000  0.4313190000000  0.4448620000000 1.0
C      1  0.4947320000000  0.4999670000000  0.5075220000000 1.0
C      1  0.5693860000000  0.5120910000000  0.4599490000000 1.0
C      1  0.4889100000000  0.4707330000000  0.4584440000000 1.0
C      1  0.5177600000000  0.4703950000000  0.5666800000000 1.0
C      1  0.5280100000000  0.5659890000000  0.4674840000000 1.0
C      1  0.5251030000000  0.4973380000000  0.5475290000000 1.0
C      1  0.5107220000000  0.5026050000000  0.4167510000000 1.0
C      1  0.5512230000000  0.4472150000000  0.4985840000000 1.0
C      1  0.4591130000000  0.5136180000000  0.4961040000000 1.0
C      1  0.5514680000000  0.5047560000000  0.5070470000000 1.0
C      1  0.5625260000000  0.5375580000000  0.5266390000000 1.0
C      1  0.4805130000000  0.5526150000000  0.4643580000000 1.0
C      1  0.5292510000000  0.5699760000000  0.5755550000000 1.0
C      1  0.5747840000000  0.5006170000000  0.4841550000000 1.0
C      1  0.4128720000000  0.5179560000000  0.4910770000000 1.0
C      1  0.4957230000000  0.5199520000000  0.4317760000000 1.0
C      1  0.5094930000000  0.5429890000000  0.4505950000000 1.0
C      1  0.4977400000000  0.5663070000000  0.5111470000000 1.0
C      1  0.5006440000000  0.4496180000000  0.5584560000000 1.0
C      1  0.5609390000000  0.5583520000000  0.5076530000000 1.0
END
