TITL C-2778429-3646-1459 0.00704111042925344 125000 -937.172905311054 0 0 160 (C1) n - 1
REM
REM in /home/nfs/bkarasulu/CARBON/AIRSS/Generating-Clusters/REBO/Only-C1/SD-CG/HFTN-CG
REM
REM
REM
REM
REM
REM ./C.cell (11c1c37f851c82e70ff6c80c92926a4b)
REM
REM compiler GCC version 9.2.1 20190827 (Red Hat 9.2.1-1)
REM options -cpp -mtune=generic -march=x86-64 -g -O0 -fpre-include=/usr/include/finclude/math-vector-fortran.h
REM seed -1203299397 698753333 -1473038295 331691147 -1373169641 -1388761192 -1207539641 -1885815995 557208210 1205579489 -75445513 -827472984 1132453226 -304208123 -46530743 -1309589153 750138848 739474354 286151267 -326008631 765407717 999626147 -1991308394 -542739339 1383718266 1948827154 1448067012 1445520768 -1053135665 -982715379 -1655794574 -687094428 -1630853088
REM
CELL 1.54180   50.00000   50.00000   50.00000   90.00000   90.00000   90.00000
LATT -1
SFAC C  
C      1  0.4391910000000  0.5506860000000  0.4646660000000 1.0
C      1  0.5925330000000  0.4648290000000  0.5100030000000 1.0
C      1  0.4722220000000  0.4393320000000  0.5136350000000 1.0
C      1  0.4586860000000  0.4705710000000  0.4095180000000 1.0
C      1  0.5827450000000  0.5523730000000  0.4824890000000 1.0
C      1  0.4855060000000  0.4171430000000  0.4408680000000 1.0
C      1  0.5105210000000  0.4542370000000  0.3997960000000 1.0
C      1  0.4554220000000  0.4963630000000  0.4900960000000 1.0
C      1  0.5410400000000  0.5427670000000  0.4288230000000 1.0
C      1  0.4898390000000  0.4393580000000  0.5816970000000 1.0
C      1  0.4238480000000  0.5688740000000  0.4417810000000 1.0
C      1  0.5656340000000  0.4586420000000  0.5818140000000 1.0
C      1  0.5128490000000  0.5661800000000  0.4132140000000 1.0
C      1  0.4556700000000  0.4128080000000  0.4512980000000 1.0
C      1  0.4127410000000  0.5542500000000  0.5155420000000 1.0
C      1  0.5613870000000  0.4502020000000  0.4766130000000 1.0
C      1  0.5038830000000  0.5167100000000  0.5705220000000 1.0
C      1  0.5759790000000  0.5101040000000  0.4480340000000 1.0
C      1  0.5597660000000  0.4257780000000  0.4889250000000 1.0
C      1  0.5035400000000  0.5396000000000  0.4076070000000 1.0
C      1  0.4773800000000  0.5376250000000  0.5494260000000 1.0
C      1  0.5475420000000  0.4073130000000  0.5137250000000 1.0
C      1  0.5548460000000  0.4899930000000  0.4797220000000 1.0
C      1  0.4924100000000  0.4382840000000  0.5491000000000 1.0
C      1  0.5070360000000  0.5473990000000  0.5452820000000 1.0
C      1  0.5329720000000  0.4654490000000  0.4740490000000 1.0
C      1  0.4920760000000  0.5045890000000  0.4764510000000 1.0
C      1  0.5659580000000  0.5682720000000  0.5323200000000 1.0
C      1  0.5162790000000  0.5236930000000  0.4684630000000 1.0
C      1  0.6064490000000  0.5063620000000  0.4917970000000 1.0
C      1  0.4535970000000  0.5793400000000  0.5406580000000 1.0
C      1  0.5380110000000  0.4485990000000  0.5895550000000 1.0
C      1  0.4839280000000  0.5379210000000  0.5889410000000 1.0
C      1  0.5013300000000  0.4850280000000  0.5243290000000 1.0
C      1  0.4327780000000  0.5901020000000  0.4647650000000 1.0
C      1  0.5203710000000  0.3951610000000  0.4722450000000 1.0
C      1  0.5522090000000  0.4522920000000  0.5523540000000 1.0
C      1  0.4325120000000  0.5802940000000  0.5203730000000 1.0
C      1  0.5586590000000  0.4802620000000  0.4472100000000 1.0
C      1  0.4860560000000  0.4947170000000  0.6137980000000 1.0
C      1  0.4483410000000  0.5439650000000  0.4231620000000 1.0
C      1  0.5022020000000  0.4261790000000  0.5045520000000 1.0
C      1  0.4841990000000  0.5020050000000  0.5074240000000 1.0
C      1  0.5649490000000  0.5602250000000  0.4381630000000 1.0
C      1  0.4996610000000  0.5180180000000  0.6097480000000 1.0
C      1  0.5116070000000  0.6068210000000  0.4794750000000 1.0
C      1  0.5423130000000  0.5534020000000  0.4726960000000 1.0
C      1  0.4892660000000  0.4825100000000  0.5560680000000 1.0
C      1  0.5436970000000  0.5865210000000  0.4948900000000 1.0
C      1  0.5572690000000  0.5862230000000  0.4436010000000 1.0
C      1  0.5294820000000  0.4904360000000  0.5855500000000 1.0
C      1  0.4286260000000  0.4404470000000  0.5134190000000 1.0
C      1  0.4486920000000  0.4282780000000  0.5357330000000 1.0
C      1  0.5511650000000  0.5478360000000  0.5766340000000 1.0
C      1  0.5252000000000  0.5088910000000  0.4984390000000 1.0
C      1  0.5025160000000  0.5572320000000  0.5014000000000 1.0
C      1  0.5174330000000  0.5847610000000  0.5122870000000 1.0
C      1  0.5269800000000  0.4757160000000  0.5051760000000 1.0
C      1  0.5316300000000  0.5846760000000  0.4630710000000 1.0
C      1  0.4639800000000  0.4537940000000  0.5881760000000 1.0
C      1  0.4170310000000  0.4768350000000  0.4432120000000 1.0
C      1  0.4164930000000  0.4645360000000  0.5226920000000 1.0
C      1  0.5715670000000  0.5199980000000  0.5138240000000 1.0
C      1  0.4873310000000  0.5740460000000  0.5362320000000 1.0
C      1  0.5231250000000  0.5171750000000  0.4044200000000 1.0
C      1  0.4891770000000  0.5943000000000  0.4956400000000 1.0
C      1  0.6061520000000  0.4917800000000  0.5178260000000 1.0
C      1  0.5723720000000  0.5498040000000  0.5578780000000 1.0
C      1  0.4053610000000  0.5147370000000  0.4815120000000 1.0
C      1  0.5661450000000  0.4865580000000  0.5106730000000 1.0
C      1  0.4687900000000  0.4751970000000  0.6047990000000 1.0
C      1  0.4710420000000  0.5674330000000  0.5071270000000 1.0
C      1  0.4756970000000  0.4033030000000  0.4977080000000 1.0
C      1  0.5933650000000  0.5311560000000  0.5554680000000 1.0
C      1  0.5272710000000  0.3877180000000  0.4981130000000 1.0
C      1  0.4657690000000  0.5409820000000  0.4597010000000 1.0
C      1  0.4821140000000  0.5353510000000  0.4855040000000 1.0
C      1  0.5596180000000  0.4327000000000  0.5282310000000 1.0
C      1  0.4889260000000  0.4400060000000  0.4776820000000 1.0
C      1  0.5180500000000  0.5853920000000  0.5460100000000 1.0
C      1  0.5349370000000  0.4057930000000  0.4499540000000 1.0
C      1  0.5163440000000  0.4172700000000  0.4304350000000 1.0
C      1  0.4358440000000  0.4299930000000  0.4396820000000 1.0
C      1  0.4845580000000  0.4588860000000  0.4104380000000 1.0
C      1  0.5868910000000  0.4378030000000  0.5219020000000 1.0
C      1  0.5123200000000  0.4635740000000  0.5728310000000 1.0
C      1  0.5552270000000  0.4844110000000  0.5938530000000 1.0
C      1  0.5258250000000  0.4980510000000  0.5540750000000 1.0
C      1  0.4189540000000  0.5253530000000  0.5649030000000 1.0
C      1  0.4211660000000  0.4690420000000  0.5504460000000 1.0
C      1  0.4928780000000  0.4068640000000  0.4708530000000 1.0
C      1  0.5348840000000  0.4846620000000  0.4240210000000 1.0
C      1  0.5336540000000  0.4251160000000  0.5576250000000 1.0
C      1  0.4954740000000  0.4090530000000  0.5399730000000 1.0
C      1  0.4692590000000  0.4030440000000  0.5282180000000 1.0
C      1  0.4432010000000  0.5129600000000  0.5163990000000 1.0
C      1  0.4314080000000  0.4305770000000  0.4875660000000 1.0
C      1  0.4807840000000  0.5718390000000  0.5888250000000 1.0
C      1  0.4491800000000  0.4964460000000  0.5428710000000 1.0
C      1  0.4763630000000  0.5819040000000  0.4486630000000 1.0
C      1  0.4543690000000  0.4973690000000  0.4063180000000 1.0
C      1  0.5507080000000  0.5412690000000  0.5228660000000 1.0
C      1  0.4426340000000  0.4607600000000  0.4330650000000 1.0
C      1  0.4517160000000  0.4123670000000  0.4794380000000 1.0
C      1  0.5514210000000  0.5133890000000  0.4245860000000 1.0
C      1  0.5963280000000  0.5049850000000  0.5411440000000 1.0
C      1  0.5622990000000  0.5091410000000  0.5434060000000 1.0
C      1  0.5585250000000  0.4231020000000  0.4476110000000 1.0
C      1  0.4723600000000  0.5086510000000  0.5605080000000 1.0
C      1  0.4438310000000  0.4499920000000  0.5616560000000 1.0
C      1  0.5080520000000  0.4918610000000  0.4127110000000 1.0
C      1  0.5519950000000  0.4493600000000  0.4347180000000 1.0
C      1  0.4842910000000  0.5304870000000  0.4336410000000 1.0
C      1  0.5677650000000  0.5707120000000  0.4996950000000 1.0
C      1  0.4139500000000  0.5096950000000  0.4514640000000 1.0
C      1  0.4687080000000  0.4616180000000  0.5443560000000 1.0
C      1  0.4197600000000  0.5441060000000  0.4849910000000 1.0
C      1  0.5298020000000  0.4430360000000  0.5151520000000 1.0
C      1  0.4111820000000  0.4878700000000  0.5030290000000 1.0
C      1  0.4649720000000  0.5918830000000  0.4760790000000 1.0
C      1  0.4614700000000  0.4568770000000  0.4888420000000 1.0
C      1  0.4274120000000  0.5338360000000  0.5906350000000 1.0
C      1  0.5293080000000  0.5427990000000  0.5009670000000 1.0
C      1  0.4262720000000  0.5427390000000  0.5437380000000 1.0
C      1  0.5473710000000  0.5919060000000  0.5413930000000 1.0
C      1  0.4792700000000  0.5300950000000  0.5186270000000 1.0
C      1  0.4380360000000  0.5923360000000  0.4960430000000 1.0
C      1  0.5858380000000  0.4651640000000  0.4791400000000 1.0
C      1  0.5282750000000  0.4413110000000  0.4181110000000 1.0
C      1  0.4561640000000  0.4752700000000  0.5170050000000 1.0
C      1  0.5136840000000  0.5430530000000  0.4458370000000 1.0
C      1  0.5149290000000  0.4575700000000  0.5385820000000 1.0
C      1  0.4514320000000  0.5460270000000  0.5917130000000 1.0
C      1  0.5219730000000  0.5619200000000  0.5704620000000 1.0
C      1  0.4201450000000  0.4485110000000  0.4635620000000 1.0
C      1  0.4628360000000  0.4635030000000  0.4587010000000 1.0
C      1  0.4179770000000  0.5359400000000  0.4343150000000 1.0
C      1  0.4620630000000  0.5592940000000  0.5633120000000 1.0
C      1  0.5416410000000  0.5691180000000  0.4069240000000 1.0
C      1  0.4855110000000  0.4482830000000  0.4388310000000 1.0
C      1  0.4473870000000  0.5135640000000  0.4300080000000 1.0
C      1  0.5935190000000  0.4914070000000  0.4696650000000 1.0
C      1  0.4205880000000  0.4975640000000  0.5582550000000 1.0
C      1  0.5233840000000  0.5350190000000  0.5916990000000 1.0
C      1  0.5337090000000  0.5286800000000  0.5461750000000 1.0
C      1  0.4222710000000  0.4791680000000  0.4758880000000 1.0
C      1  0.5481680000000  0.4794920000000  0.5387890000000 1.0
C      1  0.5077550000000  0.4597590000000  0.4608070000000 1.0
C      1  0.5932780000000  0.5312590000000  0.4973520000000 1.0
C      1  0.4451790000000  0.4992860000000  0.4605900000000 1.0
C      1  0.4866170000000  0.4990110000000  0.4299020000000 1.0
C      1  0.4112550000000  0.5199580000000  0.5146500000000 1.0
C      1  0.5794170000000  0.5432240000000  0.4553010000000 1.0
C      1  0.5179660000000  0.3979220000000  0.5276760000000 1.0
C      1  0.4567180000000  0.5709520000000  0.4317740000000 1.0
C      1  0.5054140000000  0.5751180000000  0.4437700000000 1.0
C      1  0.5160360000000  0.4188150000000  0.5746030000000 1.0
C      1  0.4509450000000  0.5449920000000  0.5203890000000 1.0
C      1  0.5482350000000  0.5199080000000  0.4748040000000 1.0
C      1  0.4867190000000  0.4846100000000  0.4557700000000 1.0
END
