TITL C-2778424-3986-658 0.000411751534454551 125000 -303.031086889935 0 0 54 (C1) n - 1
REM
REM in /home/nfs/bkarasulu/CARBON/AIRSS/Generating-Clusters/REBO/Only-C1/SD-CG/HFTN-CG
REM
REM
REM
REM
REM
REM ./C.cell (11c1c37f851c82e70ff6c80c92926a4b)
REM
REM compiler GCC version 9.2.1 20190827 (Red Hat 9.2.1-1)
REM options -cpp -mtune=generic -march=x86-64 -g -O0 -fpre-include=/usr/include/finclude/math-vector-fortran.h
REM seed -101167487 -85377340 -1565162558 1639226393 -648980150 540555249 -143204625 -1195007359 1755547965 -252853592 -1737896319 -1870183553 -1666277715 831326800 1421849547 1727965685 -1637205033 -421675932 2059859397 618205736 1838272982 886277874 1526846255 -1028914092 -2131050307 -1838008585 -1925437404 -1193009920 1604330399 -1648860123 -827927873 -1816117063 1795381716
REM
CELL 1.54180   50.00000   50.00000   50.00000   90.00000   90.00000   90.00000
LATT -1
SFAC C  
C      1  0.4888690000000  0.4277110000000  0.5159180000000 1.0
C      1  0.5192580000000  0.4579060000000  0.4525400000000 1.0
C      1  0.5583590000000  0.5170750000000  0.4701160000000 1.0
C      1  0.4622530000000  0.4322700000000  0.5046780000000 1.0
C      1  0.4586330000000  0.5185450000000  0.5572040000000 1.0
C      1  0.5068510000000  0.5140760000000  0.4704170000000 1.0
C      1  0.4919730000000  0.5624990000000  0.5533960000000 1.0
C      1  0.5096770000000  0.4130920000000  0.5020060000000 1.0
C      1  0.5027310000000  0.5478610000000  0.4502340000000 1.0
C      1  0.5082730000000  0.3861000000000  0.4988950000000 1.0
C      1  0.5274700000000  0.4556570000000  0.5340210000000 1.0
C      1  0.5041630000000  0.4823710000000  0.4942330000000 1.0
C      1  0.4504130000000  0.5351020000000  0.5323620000000 1.0
C      1  0.5045570000000  0.4993440000000  0.5457900000000 1.0
C      1  0.5547160000000  0.4951900000000  0.4499950000000 1.0
C      1  0.5233340000000  0.5225020000000  0.5434430000000 1.0
C      1  0.4616280000000  0.4807820000000  0.4655030000000 1.0
C      1  0.4733330000000  0.5570240000000  0.5278850000000 1.0
C      1  0.5299010000000  0.4287600000000  0.4899690000000 1.0
C      1  0.4792330000000  0.5053820000000  0.5616430000000 1.0
C      1  0.4924120000000  0.4724900000000  0.4657930000000 1.0
C      1  0.4972280000000  0.4484870000000  0.5340720000000 1.0
C      1  0.4434670000000  0.4427900000000  0.5247270000000 1.0
C      1  0.4411180000000  0.5240300000000  0.4565770000000 1.0
C      1  0.5219450000000  0.5565930000000  0.4985290000000 1.0
C      1  0.5556970000000  0.4610750000000  0.5331650000000 1.0
C      1  0.4652840000000  0.5663040000000  0.4768970000000 1.0
C      1  0.5276350000000  0.4916490000000  0.4718890000000 1.0
C      1  0.4485100000000  0.4847940000000  0.4967860000000 1.0
C      1  0.5159570000000  0.5512840000000  0.5581040000000 1.0
C      1  0.4791880000000  0.4746760000000  0.5361410000000 1.0
C      1  0.5492000000000  0.5426330000000  0.4617360000000 1.0
C      1  0.4890580000000  0.5174480000000  0.4432410000000 1.0
C      1  0.4527210000000  0.5158490000000  0.5071750000000 1.0
C      1  0.4500740000000  0.4700430000000  0.5260580000000 1.0
C      1  0.4987220000000  0.5232270000000  0.4979320000000 1.0
C      1  0.5481150000000  0.5599740000000  0.5179810000000 1.0
C      1  0.5043810000000  0.4891140000000  0.4394470000000 1.0
C      1  0.5508200000000  0.5082300000000  0.4998530000000 1.0
C      1  0.5001780000000  0.5734860000000  0.5148250000000 1.0
C      1  0.5373210000000  0.4501750000000  0.4749140000000 1.0
C      1  0.5533110000000  0.4758000000000  0.4848970000000 1.0
C      1  0.4600870000000  0.5057660000000  0.4481350000000 1.0
C      1  0.5345280000000  0.4801710000000  0.4342290000000 1.0
C      1  0.5234850000000  0.5534380000000  0.4680920000000 1.0
C      1  0.4612340000000  0.4545800000000  0.4863730000000 1.0
C      1  0.5161210000000  0.4816950000000  0.5232990000000 1.0
C      1  0.5282010000000  0.5258600000000  0.5121090000000 1.0
C      1  0.4818960000000  0.4992320000000  0.5128800000000 1.0
C      1  0.5631450000000  0.4804160000000  0.5152420000000 1.0
C      1  0.4226700000000  0.5476380000000  0.5350240000000 1.0
C      1  0.4779320000000  0.5453700000000  0.4980050000000 1.0
C      1  0.5441290000000  0.5492620000000  0.5429270000000 1.0
C      1  0.4486040000000  0.5371730000000  0.4826990000000 1.0
END
