TITL C-2778431-5191-835 -0.000826169065591177 125000 -275.569023533932 0 0 47 (C1) n - 1
REM
REM in /home/nfs/bkarasulu/CARBON/AIRSS/Generating-Clusters/REBO/Only-C1/SD-CG/HFTN-CG
REM
REM
REM
REM
REM
REM ./C.cell (11c1c37f851c82e70ff6c80c92926a4b)
REM
REM compiler GCC version 9.2.1 20190827 (Red Hat 9.2.1-1)
REM options -cpp -mtune=generic -march=x86-64 -g -O0 -fpre-include=/usr/include/finclude/math-vector-fortran.h
REM seed -1134025183 -2104808586 -2142303757 1168445137 -1442600641 426366416 1314109577 -1900159824 818835511 -1819501297 1686178480 990557519 -1490923746 1698385617 -2090573409 -711067346 2029781720 -1941003202 1135511186 8595428 -1324803783 -991426115 -2007126073 1363353205 -299781395 -561205960 -1912802887 472345088 1800353992 -454824884 1979116920 -1111100385 -1953115743
REM
CELL 1.54180   50.00000   50.00000   50.00000   90.00000   90.00000   90.00000
LATT -1
SFAC C  
C      1  0.5466830000000  0.5381240000000  0.4421290000000 1.0
C      1  0.5470740000000  0.5148540000000  0.5484750000000 1.0
C      1  0.4969220000000  0.5465570000000  0.4892290000000 1.0
C      1  0.5434140000000  0.4667130000000  0.4713160000000 1.0
C      1  0.4321220000000  0.5009790000000  0.5128700000000 1.0
C      1  0.4472230000000  0.4798350000000  0.5532530000000 1.0
C      1  0.5630380000000  0.4620690000000  0.4891970000000 1.0
C      1  0.4374360000000  0.5381190000000  0.4802660000000 1.0
C      1  0.5349150000000  0.4628220000000  0.4410930000000 1.0
C      1  0.5980630000000  0.4758250000000  0.5256640000000 1.0
C      1  0.4496050000000  0.5269240000000  0.5522170000000 1.0
C      1  0.4985020000000  0.5162230000000  0.5469010000000 1.0
C      1  0.4656330000000  0.4915090000000  0.4300640000000 1.0
C      1  0.4620290000000  0.4082940000000  0.5346410000000 1.0
C      1  0.6223310000000  0.5025910000000  0.5580900000000 1.0
C      1  0.4230930000000  0.5139890000000  0.4888120000000 1.0
C      1  0.4844460000000  0.5247390000000  0.4676700000000 1.0
C      1  0.4441210000000  0.5090170000000  0.4432960000000 1.0
C      1  0.4683210000000  0.4783470000000  0.4573660000000 1.0
C      1  0.4267110000000  0.4952800000000  0.4652520000000 1.0
C      1  0.5573720000000  0.5296410000000  0.5213790000000 1.0
C      1  0.4529550000000  0.4775080000000  0.5049640000000 1.0
C      1  0.4571000000000  0.4339890000000  0.5331340000000 1.0
C      1  0.5176190000000  0.4874040000000  0.5797670000000 1.0
C      1  0.5153400000000  0.4830670000000  0.4621010000000 1.0
C      1  0.5828570000000  0.4639530000000  0.5069990000000 1.0
C      1  0.5190730000000  0.5372680000000  0.4276060000000 1.0
C      1  0.5415640000000  0.5406210000000  0.5012950000000 1.0
C      1  0.4743650000000  0.5165900000000  0.5635300000000 1.0
C      1  0.5150200000000  0.5484740000000  0.5092490000000 1.0
C      1  0.5119230000000  0.4802000000000  0.4286640000000 1.0
C      1  0.4937770000000  0.5057610000000  0.5210440000000 1.0
C      1  0.5422790000000  0.5402260000000  0.4728540000000 1.0
C      1  0.4923040000000  0.4764870000000  0.5838730000000 1.0
C      1  0.5786340000000  0.5159580000000  0.5416280000000 1.0
C      1  0.4899500000000  0.4941380000000  0.4730820000000 1.0
C      1  0.5230150000000  0.5074600000000  0.5599880000000 1.0
C      1  0.6006020000000  0.4983180000000  0.5423440000000 1.0
C      1  0.4519230000000  0.4609800000000  0.5315520000000 1.0
C      1  0.4560130000000  0.5311420000000  0.4590700000000 1.0
C      1  0.4690210000000  0.4881450000000  0.5721360000000 1.0
C      1  0.5109510000000  0.5419250000000  0.4588520000000 1.0
C      1  0.4819510000000  0.4904940000000  0.5023600000000 1.0
C      1  0.4915670000000  0.4963150000000  0.4176620000000 1.0
C      1  0.4454160000000  0.4739040000000  0.4741810000000 1.0
C      1  0.5011090000000  0.5226750000000  0.4115990000000 1.0
C      1  0.4346160000000  0.5045480000000  0.5412840000000 1.0
END
