TITL C-2778436-5916-61 -0.00370684650220467 125000 -938.227454080102 0 0 162 (C1) n - 1
REM
REM in /home/nfs/bkarasulu/CARBON/AIRSS/Generating-Clusters/REBO/Only-C1/SD-CG/HFTN-CG
REM
REM
REM
REM
REM
REM ./C.cell (11c1c37f851c82e70ff6c80c92926a4b)
REM
REM compiler GCC version 9.2.1 20190827 (Red Hat 9.2.1-1)
REM options -cpp -mtune=generic -march=x86-64 -g -O0 -fpre-include=/usr/include/finclude/math-vector-fortran.h
REM seed -1120634568 1865490009 9538899 -1839950738 -508754216 1681813093 -453826910 748597055 -803630616 1941538705 -177047214 294059296 -960705472 2010120999 913834759 -496177260 -1174590884 1123544557 -144563829 1945234919 1309575380 -1772680408 -1535537927 2120374369 -1476400448 1385403038 -1015246475 349557064 1234267343 -1783886099 164431694 1820534145 2042919987
REM
CELL 1.54180   50.00000   50.00000   50.00000   90.00000   90.00000   90.00000
LATT -1
SFAC C  
C      1  0.4850280000000  0.5472130000000  0.4847540000000 1.0
C      1  0.5325150000000  0.4817640000000  0.4901730000000 1.0
C      1  0.4797690000000  0.5939250000000  0.4895500000000 1.0
C      1  0.6045250000000  0.5259150000000  0.5224400000000 1.0
C      1  0.5098630000000  0.5318400000000  0.4367140000000 1.0
C      1  0.4892170000000  0.5375220000000  0.5902580000000 1.0
C      1  0.4824890000000  0.4439150000000  0.6009290000000 1.0
C      1  0.4846220000000  0.5405490000000  0.4145850000000 1.0
C      1  0.4718660000000  0.4933550000000  0.5625010000000 1.0
C      1  0.5308420000000  0.4485830000000  0.5407760000000 1.0
C      1  0.4472200000000  0.4657180000000  0.5309250000000 1.0
C      1  0.5600720000000  0.5231010000000  0.5588210000000 1.0
C      1  0.4140510000000  0.5383900000000  0.5225030000000 1.0
C      1  0.6003040000000  0.5568900000000  0.5087490000000 1.0
C      1  0.5183880000000  0.4074570000000  0.5405350000000 1.0
C      1  0.4668830000000  0.5187440000000  0.5928430000000 1.0
C      1  0.4260050000000  0.5014710000000  0.5708630000000 1.0
C      1  0.3946970000000  0.4809680000000  0.4586640000000 1.0
C      1  0.4544430000000  0.3957040000000  0.4983710000000 1.0
C      1  0.4104670000000  0.5570710000000  0.4521990000000 1.0
C      1  0.5570080000000  0.5136390000000  0.4201320000000 1.0
C      1  0.6019700000000  0.4712840000000  0.5276720000000 1.0
C      1  0.5651950000000  0.5013210000000  0.5022430000000 1.0
C      1  0.4782450000000  0.4451680000000  0.5167700000000 1.0
C      1  0.4610370000000  0.5578050000000  0.4766440000000 1.0
C      1  0.5040210000000  0.4717460000000  0.4736530000000 1.0
C      1  0.5206080000000  0.4757930000000  0.6015700000000 1.0
C      1  0.5171250000000  0.5468530000000  0.4071940000000 1.0
C      1  0.5756750000000  0.4344360000000  0.4898660000000 1.0
C      1  0.4731270000000  0.4745910000000  0.4230360000000 1.0
C      1  0.4347090000000  0.5232050000000  0.5022780000000 1.0
C      1  0.5501430000000  0.4718930000000  0.4557980000000 1.0
C      1  0.4141500000000  0.4836800000000  0.5156310000000 1.0
C      1  0.5402310000000  0.5714670000000  0.5132160000000 1.0
C      1  0.5502800000000  0.4720350000000  0.5515290000000 1.0
C      1  0.4369640000000  0.5108130000000  0.4146950000000 1.0
C      1  0.4832760000000  0.5275080000000  0.5042990000000 1.0
C      1  0.5554990000000  0.5358870000000  0.4631540000000 1.0
C      1  0.4981960000000  0.5647390000000  0.5888240000000 1.0
C      1  0.4308240000000  0.4751500000000  0.5709480000000 1.0
C      1  0.4280380000000  0.4272170000000  0.4643440000000 1.0
C      1  0.5290010000000  0.5621790000000  0.5909740000000 1.0
C      1  0.4307370000000  0.5752820000000  0.4976190000000 1.0
C      1  0.5272610000000  0.5984460000000  0.5066390000000 1.0
C      1  0.5513900000000  0.5615430000000  0.4215780000000 1.0
C      1  0.5044640000000  0.5052320000000  0.4075110000000 1.0
C      1  0.4929130000000  0.4700590000000  0.6039790000000 1.0
C      1  0.4467960000000  0.5223750000000  0.5736690000000 1.0
C      1  0.4966920000000  0.5144720000000  0.5657070000000 1.0
C      1  0.5199310000000  0.4310040000000  0.5660990000000 1.0
C      1  0.4570490000000  0.4448860000000  0.4669960000000 1.0
C      1  0.5081450000000  0.4868720000000  0.5487040000000 1.0
C      1  0.5208990000000  0.4696910000000  0.4237110000000 1.0
C      1  0.5244050000000  0.4419270000000  0.4311890000000 1.0
C      1  0.4821600000000  0.5823730000000  0.5701340000000 1.0
C      1  0.5530560000000  0.5308810000000  0.5026760000000 1.0
C      1  0.4905140000000  0.4177810000000  0.5574910000000 1.0
C      1  0.4691580000000  0.4894440000000  0.4818210000000 1.0
C      1  0.4772630000000  0.4915810000000  0.3938010000000 1.0
C      1  0.5978890000000  0.4979660000000  0.5422700000000 1.0
C      1  0.5344220000000  0.5295460000000  0.5993290000000 1.0
C      1  0.4002540000000  0.4507360000000  0.4983680000000 1.0
C      1  0.4879300000000  0.5054430000000  0.4599890000000 1.0
C      1  0.3957060000000  0.5120790000000  0.4732370000000 1.0
C      1  0.4991300000000  0.4672420000000  0.5256030000000 1.0
C      1  0.4972270000000  0.5939310000000  0.5442890000000 1.0
C      1  0.4536130000000  0.4545570000000  0.4993390000000 1.0
C      1  0.5393930000000  0.4527580000000  0.4768840000000 1.0
C      1  0.4944430000000  0.4851390000000  0.5013890000000 1.0
C      1  0.4922290000000  0.4255650000000  0.4983160000000 1.0
C      1  0.5222590000000  0.4051550000000  0.4818140000000 1.0
C      1  0.5384710000000  0.5079390000000  0.4737070000000 1.0
C      1  0.5997790000000  0.5147270000000  0.4699210000000 1.0
C      1  0.4310140000000  0.4098730000000  0.5078260000000 1.0
C      1  0.5378800000000  0.4838130000000  0.4026430000000 1.0
C      1  0.4464000000000  0.4573180000000  0.4303690000000 1.0
C      1  0.5502420000000  0.4338480000000  0.4435720000000 1.0
C      1  0.4121240000000  0.5275260000000  0.5545180000000 1.0
C      1  0.6098130000000  0.4764000000000  0.4985630000000 1.0
C      1  0.4637800000000  0.5852430000000  0.4603870000000 1.0
C      1  0.5544540000000  0.5579420000000  0.4854300000000 1.0
C      1  0.4750750000000  0.4899190000000  0.5947470000000 1.0
C      1  0.4658270000000  0.4303430000000  0.5398470000000 1.0
C      1  0.4255080000000  0.4689830000000  0.4508520000000 1.0
C      1  0.5791050000000  0.4913200000000  0.4783740000000 1.0
C      1  0.5362280000000  0.4577540000000  0.5792600000000 1.0
C      1  0.4409370000000  0.5386740000000  0.4762680000000 1.0
C      1  0.4751340000000  0.4674220000000  0.4562470000000 1.0
C      1  0.5219840000000  0.5093920000000  0.5351600000000 1.0
C      1  0.4683530000000  0.5654500000000  0.4259850000000 1.0
C      1  0.5754680000000  0.4954780000000  0.5681940000000 1.0
C      1  0.5047170000000  0.5897130000000  0.4666970000000 1.0
C      1  0.4474640000000  0.4494680000000  0.5609980000000 1.0
C      1  0.4408140000000  0.4920980000000  0.4960760000000 1.0
C      1  0.4013450000000  0.5435830000000  0.4744830000000 1.0
C      1  0.5948110000000  0.4442680000000  0.5449520000000 1.0
C      1  0.5617440000000  0.5699700000000  0.5375610000000 1.0
C      1  0.5797780000000  0.5761090000000  0.5100330000000 1.0
C      1  0.5721860000000  0.4572010000000  0.5218400000000 1.0
C      1  0.5103390000000  0.5566850000000  0.4678500000000 1.0
C      1  0.5110050000000  0.5436910000000  0.5574510000000 1.0
C      1  0.5146580000000  0.3954160000000  0.5104060000000 1.0
C      1  0.5001320000000  0.6005260000000  0.5159860000000 1.0
C      1  0.4726090000000  0.4086610000000  0.4759910000000 1.0
C      1  0.5461450000000  0.5024790000000  0.4432460000000 1.0
C      1  0.4348330000000  0.4261790000000  0.5310480000000 1.0
C      1  0.5488820000000  0.4198360000000  0.5409350000000 1.0
C      1  0.5813250000000  0.4837010000000  0.4458870000000 1.0
C      1  0.4362100000000  0.5264940000000  0.4514180000000 1.0
C      1  0.6118290000000  0.5059270000000  0.4958910000000 1.0
C      1  0.5697900000000  0.5093450000000  0.5315950000000 1.0
C      1  0.5124160000000  0.5546980000000  0.5183790000000 1.0
C      1  0.4191380000000  0.5024980000000  0.4502410000000 1.0
C      1  0.5511470000000  0.4338170000000  0.5098670000000 1.0
C      1  0.4068990000000  0.5015710000000  0.5358910000000 1.0
C      1  0.4595700000000  0.5191360000000  0.5219870000000 1.0
C      1  0.5908050000000  0.4593290000000  0.4757560000000 1.0
C      1  0.4601370000000  0.4918820000000  0.5369540000000 1.0
C      1  0.4548480000000  0.5364300000000  0.5476920000000 1.0
C      1  0.4706910000000  0.4333470000000  0.5788660000000 1.0
C      1  0.5862050000000  0.5338270000000  0.4567600000000 1.0
C      1  0.4600740000000  0.5687290000000  0.5421580000000 1.0
C      1  0.4116270000000  0.5555010000000  0.4976580000000 1.0
C      1  0.5335450000000  0.5344570000000  0.5260120000000 1.0
C      1  0.5612680000000  0.5899620000000  0.4850620000000 1.0
C      1  0.5574710000000  0.4829000000000  0.5890200000000 1.0
C      1  0.4167850000000  0.4523960000000  0.5274410000000 1.0
C      1  0.4865070000000  0.5633300000000  0.5212670000000 1.0
C      1  0.4458010000000  0.5401660000000  0.4240560000000 1.0
C      1  0.4995550000000  0.4096490000000  0.4624910000000 1.0
C      1  0.5226840000000  0.5337990000000  0.4858590000000 1.0
C      1  0.4356330000000  0.4864150000000  0.4163870000000 1.0
C      1  0.5805310000000  0.4494090000000  0.4443900000000 1.0
C      1  0.5078040000000  0.5658230000000  0.4348380000000 1.0
C      1  0.5083130000000  0.5109320000000  0.5062200000000 1.0
C      1  0.5330860000000  0.6031210000000  0.4772740000000 1.0
C      1  0.5383720000000  0.5015310000000  0.6069030000000 1.0
C      1  0.4498680000000  0.4198950000000  0.4438960000000 1.0
C      1  0.4395910000000  0.5671300000000  0.4442400000000 1.0
C      1  0.4837610000000  0.3939580000000  0.5107300000000 1.0
C      1  0.5409900000000  0.5447370000000  0.4391350000000 1.0
C      1  0.4263210000000  0.4647190000000  0.4826560000000 1.0
C      1  0.5477320000000  0.4788830000000  0.5185460000000 1.0
C      1  0.4998620000000  0.4278900000000  0.4393240000000 1.0
C      1  0.4732470000000  0.4359850000000  0.4315300000000 1.0
C      1  0.3919790000000  0.4831380000000  0.4913120000000 1.0
C      1  0.5341650000000  0.5292910000000  0.5692380000000 1.0
C      1  0.5422890000000  0.4234440000000  0.4718910000000 1.0
C      1  0.5168760000000  0.5715040000000  0.5541790000000 1.0
C      1  0.4285030000000  0.5565200000000  0.5471920000000 1.0
C      1  0.5607500000000  0.4690400000000  0.4230560000000 1.0
C      1  0.5455830000000  0.5750030000000  0.5641500000000 1.0
C      1  0.5151160000000  0.4888190000000  0.4477060000000 1.0
C      1  0.4588700000000  0.5799460000000  0.5100660000000 1.0
C      1  0.4826220000000  0.5041400000000  0.4307700000000 1.0
C      1  0.5778510000000  0.5418060000000  0.5379700000000 1.0
C      1  0.5328520000000  0.5176160000000  0.3991390000000 1.0
C      1  0.4146430000000  0.4235280000000  0.4881280000000 1.0
C      1  0.5661240000000  0.4423150000000  0.5580670000000 1.0
C      1  0.5179350000000  0.4421020000000  0.5113340000000 1.0
C      1  0.4873210000000  0.5899680000000  0.4373740000000 1.0
C      1  0.4701270000000  0.5207920000000  0.3949590000000 1.0
END
