TITL C-2778434-4341-657 0.00291199850388602 125000 -647.756461341604 0 0 112 (C1) n - 1
REM
REM in /home/nfs/bkarasulu/CARBON/AIRSS/Generating-Clusters/REBO/Only-C1/SD-CG/HFTN-CG
REM
REM
REM
REM
REM
REM ./C.cell (11c1c37f851c82e70ff6c80c92926a4b)
REM
REM compiler GCC version 9.2.1 20190827 (Red Hat 9.2.1-1)
REM options -cpp -mtune=generic -march=x86-64 -g -O0 -fpre-include=/usr/include/finclude/math-vector-fortran.h
REM seed 2008400264 547357936 -1218467739 -1110624646 58093437 1844770636 -201994038 523759019 -799093570 -1517715096 1429363966 794814046 -369450706 1203971984 756191271 -938514549 -1322136853 2072491368 382249898 1397786327 -1759600813 1843091906 -849270245 -437810367 -340923915 174232489 2049945051 -985254063 2068134886 1098390281 1396686333 1219618330 -749036052
REM
CELL 1.54180   50.00000   50.00000   50.00000   90.00000   90.00000   90.00000
LATT -1
SFAC C  
C      1  0.4235090000000  0.5083220000000  0.5401320000000 1.0
C      1  0.4993520000000  0.5612050000000  0.4709670000000 1.0
C      1  0.4390330000000  0.4430820000000  0.5055490000000 1.0
C      1  0.5424620000000  0.4472280000000  0.4968060000000 1.0
C      1  0.4516320000000  0.5533830000000  0.5298860000000 1.0
C      1  0.5450250000000  0.3913770000000  0.5443350000000 1.0
C      1  0.5004140000000  0.5598100000000  0.5663670000000 1.0
C      1  0.5389950000000  0.4608080000000  0.5251420000000 1.0
C      1  0.5581730000000  0.5679490000000  0.5352110000000 1.0
C      1  0.4859360000000  0.4509220000000  0.4172400000000 1.0
C      1  0.4999340000000  0.4877860000000  0.5652460000000 1.0
C      1  0.4363980000000  0.5670390000000  0.5040520000000 1.0
C      1  0.5124850000000  0.5503370000000  0.4262280000000 1.0
C      1  0.5517770000000  0.5193800000000  0.5156210000000 1.0
C      1  0.5603220000000  0.4517520000000  0.4680100000000 1.0
C      1  0.5471080000000  0.4886190000000  0.4802250000000 1.0
C      1  0.4693960000000  0.5668020000000  0.4451120000000 1.0
C      1  0.5254560000000  0.5199620000000  0.5886880000000 1.0
C      1  0.4678810000000  0.5541820000000  0.4829920000000 1.0
C      1  0.4994910000000  0.5823610000000  0.5169670000000 1.0
C      1  0.5806890000000  0.4913980000000  0.5438490000000 1.0
C      1  0.4883590000000  0.4289340000000  0.4351850000000 1.0
C      1  0.5327900000000  0.4725430000000  0.4258430000000 1.0
C      1  0.4361560000000  0.4819730000000  0.5129760000000 1.0
C      1  0.4716270000000  0.4733560000000  0.5893970000000 1.0
C      1  0.4647010000000  0.4857300000000  0.5285130000000 1.0
C      1  0.4403990000000  0.4469720000000  0.5346590000000 1.0
C      1  0.4918430000000  0.4485580000000  0.4696360000000 1.0
C      1  0.4956420000000  0.5344320000000  0.5806820000000 1.0
C      1  0.5614390000000  0.5397920000000  0.5533270000000 1.0
C      1  0.5223950000000  0.4879530000000  0.5869990000000 1.0
C      1  0.4782390000000  0.4209800000000  0.5155000000000 1.0
C      1  0.5054970000000  0.4337940000000  0.5038280000000 1.0
C      1  0.4689620000000  0.4517900000000  0.4918060000000 1.0
C      1  0.4081310000000  0.5102920000000  0.5098350000000 1.0
C      1  0.4825680000000  0.4618910000000  0.5199850000000 1.0
C      1  0.4276770000000  0.4758970000000  0.4441410000000 1.0
C      1  0.5076210000000  0.4663330000000  0.5013550000000 1.0
C      1  0.5546820000000  0.5614910000000  0.4615680000000 1.0
C      1  0.5537930000000  0.4908130000000  0.5270580000000 1.0
C      1  0.5960970000000  0.5115850000000  0.5116770000000 1.0
C      1  0.5777210000000  0.5521650000000  0.4825530000000 1.0
C      1  0.5101110000000  0.4642050000000  0.4100110000000 1.0
C      1  0.5248680000000  0.5896880000000  0.4998220000000 1.0
C      1  0.4033110000000  0.4993890000000  0.4861960000000 1.0
C      1  0.5338080000000  0.4163170000000  0.5012630000000 1.0
C      1  0.5061270000000  0.5515330000000  0.5277390000000 1.0
C      1  0.5277700000000  0.5743820000000  0.4717160000000 1.0
C      1  0.5397510000000  0.5414000000000  0.4380470000000 1.0
C      1  0.4791590000000  0.5357560000000  0.5338240000000 1.0
C      1  0.4782530000000  0.4145460000000  0.4820380000000 1.0
C      1  0.5417160000000  0.4502940000000  0.4437320000000 1.0
C      1  0.5905540000000  0.5239850000000  0.4858660000000 1.0
C      1  0.4416240000000  0.5267340000000  0.4457110000000 1.0
C      1  0.5676910000000  0.4925450000000  0.5731880000000 1.0
C      1  0.4437630000000  0.5547520000000  0.4553290000000 1.0
C      1  0.4827460000000  0.4456810000000  0.5792830000000 1.0
C      1  0.4676830000000  0.4341350000000  0.5443900000000 1.0
C      1  0.4962810000000  0.4805060000000  0.4657380000000 1.0
C      1  0.4857490000000  0.5033920000000  0.4849590000000 1.0
C      1  0.5259840000000  0.4047970000000  0.5295040000000 1.0
C      1  0.4330560000000  0.5297950000000  0.5176600000000 1.0
C      1  0.4911700000000  0.4209160000000  0.5656510000000 1.0
C      1  0.5004190000000  0.4120640000000  0.5384080000000 1.0
C      1  0.4548720000000  0.5088740000000  0.4700980000000 1.0
C      1  0.5744930000000  0.5448460000000  0.5158830000000 1.0
C      1  0.5813400000000  0.5038490000000  0.4674940000000 1.0
C      1  0.5296420000000  0.5635610000000  0.5492950000000 1.0
C      1  0.5474900000000  0.5714010000000  0.5057230000000 1.0
C      1  0.4871740000000  0.5464940000000  0.4358360000000 1.0
C      1  0.5219540000000  0.4973970000000  0.5006930000000 1.0
C      1  0.4634110000000  0.4690010000000  0.4280120000000 1.0
C      1  0.5411260000000  0.5431710000000  0.4941560000000 1.0
C      1  0.5159160000000  0.4322200000000  0.4514270000000 1.0
C      1  0.4771000000000  0.5828730000000  0.4960900000000 1.0
C      1  0.4800600000000  0.5171620000000  0.4482420000000 1.0
C      1  0.4775190000000  0.5188950000000  0.4085430000000 1.0
C      1  0.4791260000000  0.5876670000000  0.4643140000000 1.0
C      1  0.4769050000000  0.5096940000000  0.5155470000000 1.0
C      1  0.4744510000000  0.5094930000000  0.5717100000000 1.0
C      1  0.4651150000000  0.4243810000000  0.4550540000000 1.0
C      1  0.4675860000000  0.4663340000000  0.5563040000000 1.0
C      1  0.4499220000000  0.5155600000000  0.4199370000000 1.0
C      1  0.5192610000000  0.5291070000000  0.5117370000000 1.0
C      1  0.4449790000000  0.4736380000000  0.4806560000000 1.0
C      1  0.5468100000000  0.4751600000000  0.5829100000000 1.0
C      1  0.5313810000000  0.5300690000000  0.4684890000000 1.0
C      1  0.5114360000000  0.4145590000000  0.4767660000000 1.0
C      1  0.4157240000000  0.4621910000000  0.4938980000000 1.0
C      1  0.4488140000000  0.5011140000000  0.5617710000000 1.0
C      1  0.4106880000000  0.4872980000000  0.4631720000000 1.0
C      1  0.4870580000000  0.4875660000000  0.4371020000000 1.0
C      1  0.5089790000000  0.4654440000000  0.5410180000000 1.0
C      1  0.5896890000000  0.4815930000000  0.5122980000000 1.0
C      1  0.4301460000000  0.5669210000000  0.4800960000000 1.0
C      1  0.5773650000000  0.4753310000000  0.4847300000000 1.0
C      1  0.4596700000000  0.5769210000000  0.5481810000000 1.0
C      1  0.5282020000000  0.5324390000000  0.5578190000000 1.0
C      1  0.5515840000000  0.5080970000000  0.4558770000000 1.0
C      1  0.5249200000000  0.4674920000000  0.4749490000000 1.0
C      1  0.4403460000000  0.4883670000000  0.4189750000000 1.0
C      1  0.5583620000000  0.5199400000000  0.5796110000000 1.0
C      1  0.5347930000000  0.5064100000000  0.4288340000000 1.0
C      1  0.4502890000000  0.4527940000000  0.4541310000000 1.0
C      1  0.4870640000000  0.5796520000000  0.5485850000000 1.0
C      1  0.5010450000000  0.5294790000000  0.4701040000000 1.0
C      1  0.5867000000000  0.5242170000000  0.5396980000000 1.0
C      1  0.4305590000000  0.4764070000000  0.5464240000000 1.0
C      1  0.5038330000000  0.5076870000000  0.4177390000000 1.0
C      1  0.5206620000000  0.4948230000000  0.5321690000000 1.0
C      1  0.4568530000000  0.5283170000000  0.4963420000000 1.0
C      1  0.5041870000000  0.5163020000000  0.5463410000000 1.0
END
