TITL C-2778424-3986-753 -0.00229144577289481 125000 -395.67787668894 0 0 68 (C1) n - 1
REM
REM in /home/nfs/bkarasulu/CARBON/AIRSS/Generating-Clusters/REBO/Only-C1/SD-CG/HFTN-CG
REM
REM
REM
REM
REM
REM ./C.cell (11c1c37f851c82e70ff6c80c92926a4b)
REM
REM compiler GCC version 9.2.1 20190827 (Red Hat 9.2.1-1)
REM options -cpp -mtune=generic -march=x86-64 -g -O0 -fpre-include=/usr/include/finclude/math-vector-fortran.h
REM seed 80416686 188939661 733005662 -1741302759 -313236018 -1036862050 -712138719 703277448 -1983236170 -142132599 -141155105 -675767110 -1552359595 -99657143 1972710531 -1212999683 1843775281 -575450344 322343841 580201217 -1940320770 2090560764 -898213284 -236500844 -1563571148 1389502007 -1026784464 287356866 1941869672 1244385638 -1769861261 457233117 -881948201
REM
CELL 1.54180   50.00000   50.00000   50.00000   90.00000   90.00000   90.00000
LATT -1
SFAC C  
C      1  0.5135360000000  0.4771650000000  0.4861290000000 1.0
C      1  0.5417660000000  0.5019030000000  0.5693930000000 1.0
C      1  0.4426870000000  0.5112730000000  0.5273600000000 1.0
C      1  0.5009160000000  0.4290440000000  0.5107530000000 1.0
C      1  0.5344320000000  0.4744160000000  0.5684820000000 1.0
C      1  0.4688160000000  0.5025310000000  0.4983690000000 1.0
C      1  0.4746560000000  0.4847180000000  0.5268400000000 1.0
C      1  0.5152700000000  0.5184750000000  0.5722030000000 1.0
C      1  0.5061570000000  0.5626240000000  0.5340240000000 1.0
C      1  0.5283500000000  0.4248490000000  0.5025090000000 1.0
C      1  0.5396140000000  0.5614590000000  0.5306400000000 1.0
C      1  0.5458380000000  0.4432130000000  0.5145850000000 1.0
C      1  0.4683480000000  0.4563530000000  0.4522180000000 1.0
C      1  0.4966610000000  0.4450420000000  0.5346350000000 1.0
C      1  0.4408400000000  0.5230730000000  0.4480050000000 1.0
C      1  0.4882520000000  0.5518010000000  0.4364730000000 1.0
C      1  0.5112950000000  0.4702630000000  0.5361500000000 1.0
C      1  0.5581320000000  0.5105800000000  0.5475370000000 1.0
C      1  0.5533670000000  0.4552800000000  0.4279660000000 1.0
C      1  0.4840860000000  0.5651880000000  0.5091600000000 1.0
C      1  0.4374050000000  0.5112710000000  0.4935480000000 1.0
C      1  0.4899970000000  0.5331950000000  0.4652250000000 1.0
C      1  0.4328670000000  0.4804620000000  0.4832280000000 1.0
C      1  0.5100450000000  0.4700290000000  0.5814340000000 1.0
C      1  0.5596910000000  0.4896640000000  0.5257170000000 1.0
C      1  0.4649150000000  0.5686340000000  0.4883880000000 1.0
C      1  0.5168570000000  0.5357850000000  0.4355180000000 1.0
C      1  0.5332700000000  0.4624470000000  0.4451450000000 1.0
C      1  0.5430340000000  0.4643440000000  0.5394210000000 1.0
C      1  0.5145900000000  0.5064070000000  0.4320450000000 1.0
C      1  0.4841430000000  0.4350270000000  0.5580850000000 1.0
C      1  0.4729090000000  0.4731950000000  0.5950340000000 1.0
C      1  0.4873270000000  0.4488940000000  0.5823480000000 1.0
C      1  0.5182660000000  0.5769990000000  0.4836010000000 1.0
C      1  0.5319030000000  0.4221930000000  0.4742010000000 1.0
C      1  0.4632490000000  0.5295140000000  0.4806090000000 1.0
C      1  0.4298150000000  0.5410880000000  0.5186830000000 1.0
C      1  0.5331140000000  0.5041090000000  0.4792240000000 1.0
C      1  0.5438150000000  0.4723410000000  0.5004940000000 1.0
C      1  0.4898810000000  0.4413860000000  0.4633360000000 1.0
C      1  0.4707230000000  0.5231980000000  0.5362510000000 1.0
C      1  0.5179290000000  0.4410590000000  0.4576830000000 1.0
C      1  0.5611150000000  0.5010990000000  0.4940140000000 1.0
C      1  0.5232240000000  0.5786480000000  0.5095810000000 1.0
C      1  0.4413640000000  0.5509910000000  0.4957040000000 1.0
C      1  0.4440060000000  0.4529710000000  0.4689330000000 1.0
C      1  0.5452990000000  0.5448060000000  0.4508740000000 1.0
C      1  0.5489150000000  0.5353890000000  0.5389100000000 1.0
C      1  0.4835050000000  0.5162820000000  0.5597260000000 1.0
C      1  0.5040740000000  0.5020090000000  0.5285630000000 1.0
C      1  0.4703240000000  0.5677250000000  0.4607380000000 1.0
C      1  0.5793890000000  0.5208550000000  0.4797890000000 1.0
C      1  0.5293590000000  0.4907380000000  0.4502910000000 1.0
C      1  0.4949800000000  0.5001020000000  0.4684130000000 1.0
C      1  0.4848380000000  0.4736020000000  0.4965560000000 1.0
C      1  0.5686410000000  0.5375320000000  0.4610070000000 1.0
C      1  0.4573480000000  0.4534070000000  0.4992490000000 1.0
C      1  0.4725930000000  0.4860930000000  0.4493950000000 1.0
C      1  0.4553020000000  0.5459750000000  0.4426620000000 1.0
C      1  0.4921620000000  0.4986020000000  0.5867780000000 1.0
C      1  0.5154380000000  0.5315340000000  0.5413820000000 1.0
C      1  0.4453640000000  0.4979820000000  0.4568580000000 1.0
C      1  0.4423870000000  0.4789430000000  0.5162480000000 1.0
C      1  0.4861790000000  0.5346250000000  0.5143510000000 1.0
C      1  0.4822740000000  0.4342650000000  0.4903670000000 1.0
C      1  0.4901250000000  0.4962600000000  0.4252260000000 1.0
C      1  0.5066090000000  0.5148980000000  0.4971860000000 1.0
C      1  0.5164210000000  0.5541710000000  0.4645490000000 1.0
END
