TITL C-2778426-5645-328 0.00202487626094503 125000 -1019.73929870362 0 0 176 (C1) n - 1
REM
REM in /home/nfs/bkarasulu/CARBON/AIRSS/Generating-Clusters/REBO/Only-C1/SD-CG/HFTN-CG
REM
REM
REM
REM
REM
REM ./C.cell (11c1c37f851c82e70ff6c80c92926a4b)
REM
REM compiler GCC version 9.2.1 20190827 (Red Hat 9.2.1-1)
REM options -cpp -mtune=generic -march=x86-64 -g -O0 -fpre-include=/usr/include/finclude/math-vector-fortran.h
REM seed -468742613 437032862 -1998749069 1158742019 1345716109 2134899778 -513914094 1860559552 2055312183 738239900 932221431 1137557384 -2129966062 2079380606 735741095 -1839502880 -5894919 -1499936900 2008435410 977690210 -1137779632 298007347 541595602 -2015615315 -1040688077 -440937145 -1852422275 1280264330 -1204278676 -1896198044 1903958932 91852252 149623515
REM
CELL 1.54180   50.00000   50.00000   50.00000   90.00000   90.00000   90.00000
LATT -1
SFAC C  
C      1  0.4197920000000  0.5600050000000  0.5047950000000 1.0
C      1  0.5482280000000  0.4754820000000  0.4171340000000 1.0
C      1  0.4347190000000  0.5284590000000  0.4779730000000 1.0
C      1  0.5266740000000  0.4058180000000  0.5631300000000 1.0
C      1  0.4226990000000  0.5073350000000  0.4976110000000 1.0
C      1  0.4324000000000  0.4259330000000  0.4552960000000 1.0
C      1  0.4413770000000  0.5167350000000  0.3696520000000 1.0
C      1  0.4842330000000  0.3807020000000  0.4721560000000 1.0
C      1  0.4769370000000  0.4876340000000  0.3884930000000 1.0
C      1  0.5807290000000  0.5503180000000  0.5002650000000 1.0
C      1  0.4651390000000  0.4113640000000  0.4890850000000 1.0
C      1  0.5463390000000  0.4690830000000  0.5550780000000 1.0
C      1  0.6146960000000  0.5426660000000  0.5197170000000 1.0
C      1  0.5592110000000  0.4530070000000  0.5046810000000 1.0
C      1  0.4322790000000  0.4599260000000  0.5812280000000 1.0
C      1  0.5684120000000  0.5331510000000  0.4296080000000 1.0
C      1  0.5248980000000  0.4921360000000  0.5981500000000 1.0
C      1  0.5501490000000  0.4096000000000  0.5440060000000 1.0
C      1  0.5487780000000  0.5462880000000  0.4959690000000 1.0
C      1  0.4717250000000  0.4593640000000  0.5823160000000 1.0
C      1  0.5061740000000  0.4405780000000  0.5121870000000 1.0
C      1  0.5163340000000  0.5072640000000  0.5681510000000 1.0
C      1  0.4867810000000  0.5172620000000  0.5681680000000 1.0
C      1  0.5161430000000  0.4758010000000  0.5629780000000 1.0
C      1  0.5958450000000  0.4378670000000  0.4923660000000 1.0
C      1  0.5941160000000  0.4590110000000  0.5381980000000 1.0
C      1  0.4889040000000  0.5829710000000  0.5131230000000 1.0
C      1  0.4224810000000  0.5399160000000  0.5554020000000 1.0
C      1  0.4952880000000  0.4735250000000  0.5418570000000 1.0
C      1  0.5141570000000  0.4856920000000  0.4688860000000 1.0
C      1  0.4489680000000  0.5133770000000  0.5920300000000 1.0
C      1  0.4508180000000  0.4625610000000  0.4850090000000 1.0
C      1  0.4445220000000  0.4070770000000  0.4724180000000 1.0
C      1  0.5690280000000  0.4844750000000  0.5712840000000 1.0
C      1  0.5751850000000  0.4953360000000  0.4405160000000 1.0
C      1  0.5695300000000  0.4556450000000  0.4341020000000 1.0
C      1  0.4279350000000  0.5744020000000  0.4759450000000 1.0
C      1  0.5862600000000  0.5578810000000  0.5311550000000 1.0
C      1  0.4913140000000  0.4479320000000  0.6003170000000 1.0
C      1  0.4952720000000  0.4077580000000  0.5651600000000 1.0
C      1  0.4472170000000  0.5358940000000  0.5759860000000 1.0
C      1  0.5233890000000  0.4605460000000  0.4899680000000 1.0
C      1  0.4447650000000  0.5012930000000  0.4650330000000 1.0
C      1  0.3975420000000  0.5382080000000  0.4987070000000 1.0
C      1  0.5383240000000  0.4642840000000  0.4465950000000 1.0
C      1  0.5374320000000  0.4164240000000  0.5067370000000 1.0
C      1  0.5603440000000  0.4760250000000  0.4698430000000 1.0
C      1  0.3931390000000  0.5202530000000  0.5211710000000 1.0
C      1  0.4454260000000  0.4817650000000  0.6015170000000 1.0
C      1  0.5606680000000  0.5149680000000  0.5217330000000 1.0
C      1  0.4588120000000  0.5493100000000  0.4792390000000 1.0
C      1  0.4898210000000  0.3944850000000  0.4487130000000 1.0
C      1  0.5299220000000  0.4268540000000  0.4266170000000 1.0
C      1  0.4401970000000  0.4601560000000  0.5370180000000 1.0
C      1  0.4411200000000  0.5010110000000  0.5216670000000 1.0
C      1  0.5856860000000  0.4549810000000  0.4747620000000 1.0
C      1  0.5080890000000  0.5903320000000  0.5368890000000 1.0
C      1  0.6095320000000  0.5037240000000  0.5553060000000 1.0
C      1  0.4297720000000  0.5630070000000  0.5371920000000 1.0
C      1  0.5165280000000  0.5170550000000  0.4772880000000 1.0
C      1  0.4241710000000  0.4912290000000  0.5697950000000 1.0
C      1  0.3932780000000  0.5086260000000  0.4820840000000 1.0
C      1  0.4931660000000  0.5858670000000  0.4426910000000 1.0
C      1  0.5263770000000  0.4912150000000  0.5061480000000 1.0
C      1  0.5068810000000  0.5283920000000  0.3976350000000 1.0
C      1  0.4819700000000  0.5513070000000  0.5119260000000 1.0
C      1  0.5152860000000  0.4189900000000  0.4805310000000 1.0
C      1  0.5274700000000  0.5022080000000  0.4420060000000 1.0
C      1  0.5095780000000  0.4190090000000  0.4493380000000 1.0
C      1  0.5364440000000  0.5658550000000  0.4748630000000 1.0
C      1  0.4660960000000  0.6026850000000  0.4965560000000 1.0
C      1  0.5083710000000  0.5381390000000  0.6034980000000 1.0
C      1  0.4111770000000  0.5175930000000  0.5762860000000 1.0
C      1  0.4886820000000  0.5335920000000  0.4768540000000 1.0
C      1  0.5885690000000  0.5290410000000  0.4567020000000 1.0
C      1  0.4198020000000  0.4552930000000  0.4921210000000 1.0
C      1  0.4792160000000  0.5353750000000  0.3971590000000 1.0
C      1  0.5040160000000  0.4232830000000  0.5902910000000 1.0
C      1  0.4363670000000  0.4416410000000  0.5165720000000 1.0
C      1  0.5046030000000  0.5626460000000  0.4731020000000 1.0
C      1  0.5496030000000  0.5745160000000  0.4457030000000 1.0
C      1  0.5516950000000  0.4069650000000  0.4714460000000 1.0
C      1  0.5075960000000  0.4533610000000  0.4463530000000 1.0
C      1  0.4785340000000  0.5193890000000  0.5069080000000 1.0
C      1  0.5431250000000  0.5396530000000  0.5382910000000 1.0
C      1  0.4708490000000  0.4653190000000  0.4058840000000 1.0
C      1  0.4678790000000  0.4693320000000  0.5518750000000 1.0
C      1  0.5383610000000  0.5990110000000  0.4664620000000 1.0
C      1  0.5370960000000  0.4428930000000  0.5262100000000 1.0
C      1  0.4859560000000  0.4915100000000  0.4746030000000 1.0
C      1  0.4861430000000  0.4324890000000  0.4786220000000 1.0
C      1  0.5504520000000  0.5732890000000  0.5115020000000 1.0
C      1  0.5092360000000  0.6067980000000  0.4593690000000 1.0
C      1  0.5318990000000  0.5328860000000  0.4531050000000 1.0
C      1  0.5482800000000  0.5594290000000  0.5654840000000 1.0
C      1  0.4635260000000  0.5877970000000  0.4455660000000 1.0
C      1  0.4477560000000  0.5740240000000  0.4238980000000 1.0
C      1  0.4370290000000  0.5415680000000  0.4293000000000 1.0
C      1  0.4860940000000  0.4138230000000  0.5158480000000 1.0
C      1  0.5021620000000  0.5784980000000  0.5761200000000 1.0
C      1  0.5266090000000  0.5254960000000  0.5050130000000 1.0
C      1  0.4856730000000  0.4409520000000  0.4153760000000 1.0
C      1  0.4031570000000  0.4804690000000  0.4990690000000 1.0
C      1  0.4529110000000  0.5934830000000  0.5261810000000 1.0
C      1  0.4251640000000  0.5506990000000  0.4578680000000 1.0
C      1  0.4757390000000  0.4397640000000  0.4479230000000 1.0
C      1  0.5391650000000  0.5394120000000  0.5907330000000 1.0
C      1  0.4851350000000  0.5439320000000  0.5857700000000 1.0
C      1  0.4730860000000  0.4925060000000  0.5841030000000 1.0
C      1  0.5809740000000  0.4695810000000  0.5116430000000 1.0
C      1  0.4851870000000  0.5235090000000  0.4445070000000 1.0
C      1  0.4708290000000  0.5210540000000  0.5394130000000 1.0
C      1  0.5437980000000  0.6020310000000  0.4973630000000 1.0
C      1  0.5423230000000  0.5011110000000  0.5469780000000 1.0
C      1  0.5013880000000  0.5020080000000  0.4270190000000 1.0
C      1  0.5140230000000  0.4426370000000  0.4083780000000 1.0
C      1  0.5239850000000  0.5456660000000  0.4120030000000 1.0
C      1  0.5554360000000  0.4284800000000  0.4454700000000 1.0
C      1  0.4152590000000  0.5154850000000  0.5365990000000 1.0
C      1  0.5585180000000  0.5149200000000  0.4636610000000 1.0
C      1  0.4173880000000  0.4734550000000  0.5455240000000 1.0
C      1  0.5080310000000  0.5124750000000  0.6156110000000 1.0
C      1  0.5200770000000  0.4598320000000  0.5927640000000 1.0
C      1  0.5962680000000  0.5496150000000  0.4775840000000 1.0
C      1  0.4556410000000  0.5887220000000  0.5601280000000 1.0
C      1  0.5894370000000  0.4314250000000  0.5194850000000 1.0
C      1  0.5543120000000  0.5000130000000  0.4917930000000 1.0
C      1  0.4260080000000  0.5941500000000  0.5470350000000 1.0
C      1  0.4124130000000  0.4957160000000  0.4588820000000 1.0
C      1  0.4310490000000  0.4808640000000  0.4337250000000 1.0
C      1  0.5475740000000  0.4391080000000  0.5573050000000 1.0
C      1  0.4471300000000  0.4174720000000  0.5235490000000 1.0
C      1  0.4111890000000  0.4440800000000  0.4651840000000 1.0
C      1  0.5070220000000  0.4955030000000  0.3948140000000 1.0
C      1  0.5264850000000  0.5707650000000  0.5865370000000 1.0
C      1  0.4430350000000  0.5095420000000  0.4193620000000 1.0
C      1  0.5929030000000  0.4921610000000  0.4985190000000 1.0
C      1  0.4583610000000  0.5121750000000  0.3916040000000 1.0
C      1  0.5108420000000  0.5421680000000  0.5279080000000 1.0
C      1  0.4510800000000  0.4959160000000  0.5509240000000 1.0
C      1  0.5531220000000  0.5064590000000  0.4213230000000 1.0
C      1  0.3961140000000  0.4767560000000  0.5289110000000 1.0
C      1  0.4602300000000  0.4939920000000  0.4941180000000 1.0
C      1  0.4473380000000  0.4565990000000  0.4515810000000 1.0
C      1  0.5370120000000  0.5962250000000  0.5303940000000 1.0
C      1  0.4709740000000  0.5553410000000  0.4139810000000 1.0
C      1  0.4706520000000  0.5739680000000  0.5792800000000 1.0
C      1  0.4986940000000  0.4794970000000  0.5149950000000 1.0
C      1  0.5505390000000  0.5550100000000  0.4255540000000 1.0
C      1  0.5613030000000  0.5750290000000  0.5424300000000 1.0
C      1  0.5943390000000  0.4796020000000  0.5591290000000 1.0
C      1  0.4500730000000  0.5914360000000  0.4710410000000 1.0
C      1  0.5911280000000  0.5292300000000  0.5488090000000 1.0
C      1  0.5947130000000  0.4703070000000  0.4478270000000 1.0
C      1  0.5133360000000  0.5585180000000  0.4405010000000 1.0
C      1  0.5484550000000  0.4405970000000  0.4770270000000 1.0
C      1  0.4601240000000  0.5510280000000  0.5481110000000 1.0
C      1  0.4714720000000  0.4164990000000  0.5467000000000 1.0
C      1  0.4533930000000  0.5663040000000  0.5056710000000 1.0
C      1  0.4848310000000  0.4758250000000  0.4344800000000 1.0
C      1  0.4645610000000  0.5002470000000  0.4421330000000 1.0
C      1  0.5678040000000  0.4128000000000  0.5211630000000 1.0
C      1  0.4923410000000  0.5622740000000  0.5481900000000 1.0
C      1  0.5242590000000  0.4687480000000  0.3999990000000 1.0
C      1  0.4813760000000  0.4590210000000  0.4969960000000 1.0
C      1  0.5513870000000  0.5082510000000  0.5873700000000 1.0
C      1  0.4934500000000  0.5907150000000  0.4822160000000 1.0
C      1  0.4965030000000  0.3877640000000  0.4963610000000 1.0
C      1  0.5291450000000  0.3894670000000  0.4901870000000 1.0
C      1  0.5639390000000  0.5234340000000  0.5604460000000 1.0
C      1  0.4045120000000  0.4654440000000  0.4475750000000 1.0
C      1  0.4521350000000  0.4363060000000  0.5667800000000 1.0
C      1  0.5355980000000  0.4305800000000  0.5858170000000 1.0
C      1  0.4656800000000  0.5479190000000  0.4474670000000 1.0
C      1  0.5933350000000  0.5164260000000  0.5172050000000 1.0
C      1  0.5945400000000  0.4975830000000  0.4686370000000 1.0
END
