TITL C-2778435-5768-17 0.176605339582209 125000 -588.201001754876 0 0 102 (C1) n - 1
REM
REM in /home/nfs/bkarasulu/CARBON/AIRSS/Generating-Clusters/REBO/Only-C1/SD-CG/HFTN-CG
REM
REM
REM
REM
REM
REM ./C.cell (11c1c37f851c82e70ff6c80c92926a4b)
REM
REM compiler GCC version 9.2.1 20190827 (Red Hat 9.2.1-1)
REM options -cpp -mtune=generic -march=x86-64 -g -O0 -fpre-include=/usr/include/finclude/math-vector-fortran.h
REM seed 576060901 1895587644 -1992770445 604121777 -829579353 1663601149 1193906108 1365619678 1614895000 1554387324 -610649713 976376482 1225056203 1658326268 -1842803981 99704103 1271846561 -1670726315 2062372526 -1913615807 -1516206069 560349306 -2029171230 -2062052129 1160051885 -1350210431 1267284735 1724410143 1894949701 1732973242 1200895767 623858145 668043609
REM
CELL 1.54180   50.00000   50.00000   50.00000   90.00000   90.00000   90.00000
LATT -1
SFAC C  
C      1  0.4741430000000  0.4624060000000  0.5160410000000 1.0
C      1  0.4502400000000  0.5341880000000  0.4235030000000 1.0
C      1  0.5262570000000  0.5579330000000  0.5482220000000 1.0
C      1  0.5772880000000  0.5194860000000  0.4578320000000 1.0
C      1  0.4198640000000  0.5085230000000  0.5184060000000 1.0
C      1  0.5148360000000  0.5541100000000  0.4424140000000 1.0
C      1  0.4605320000000  0.4193930000000  0.4985290000000 1.0
C      1  0.4910690000000  0.5699870000000  0.4542200000000 1.0
C      1  0.4926170000000  0.5231920000000  0.5315430000000 1.0
C      1  0.6002400000000  0.5591700000000  0.5455430000000 1.0
C      1  0.5035200000000  0.4806600000000  0.5990540000000 1.0
C      1  0.5764710000000  0.4597830000000  0.5024300000000 1.0
C      1  0.4406660000000  0.5248470000000  0.4782840000000 1.0
C      1  0.4693300000000  0.5378440000000  0.5746190000000 1.0
C      1  0.4171070000000  0.4846220000000  0.4718420000000 1.0
C      1  0.5188190000000  0.4414950000000  0.3730580000000 1.0
C      1  0.5795510000000  0.5450920000000  0.5382640000000 1.0
C      1  0.4696860000000  0.5659270000000  0.5633530000000 1.0
C      1  0.4621740000000  0.5594840000000  0.4395120000000 1.0
C      1  0.4727120000000  0.4883140000000  0.4226680000000 1.0
C      1  0.4960760000000  0.5275750000000  0.5788180000000 1.0
C      1  0.4339080000000  0.4394830000000  0.5052400000000 1.0
C      1  0.5260560000000  0.5617220000000  0.4903060000000 1.0
C      1  0.4611200000000  0.4343460000000  0.4588390000000 1.0
C      1  0.4655360000000  0.5168820000000  0.4086200000000 1.0
C      1  0.5602970000000  0.5418640000000  0.4588140000000 1.0
C      1  0.4481200000000  0.4484480000000  0.4390950000000 1.0
C      1  0.4481660000000  0.5740330000000  0.5477620000000 1.0
C      1  0.5686870000000  0.5071700000000  0.5054600000000 1.0
C      1  0.4681720000000  0.5075250000000  0.5370410000000 1.0
C      1  0.4656350000000  0.4798200000000  0.5580380000000 1.0
C      1  0.5507290000000  0.4578340000000  0.4559250000000 1.0
C      1  0.5338440000000  0.5350130000000  0.4790760000000 1.0
C      1  0.4407830000000  0.5271970000000  0.5321480000000 1.0
C      1  0.4565000000000  0.4504900000000  0.5497450000000 1.0
C      1  0.5105490000000  0.4695420000000  0.5011540000000 1.0
C      1  0.4943620000000  0.5507870000000  0.5462900000000 1.0
C      1  0.4926470000000  0.4606780000000  0.5356870000000 1.0
C      1  0.5501590000000  0.5799420000000  0.5051940000000 1.0
C      1  0.4455960000000  0.5243450000000  0.5652480000000 1.0
C      1  0.5386090000000  0.4537840000000  0.5572750000000 1.0
C      1  0.5362320000000  0.4290700000000  0.5463800000000 1.0
C      1  0.5370610000000  0.4825300000000  0.5121430000000 1.0
C      1  0.4207580000000  0.5065910000000  0.4901590000000 1.0
C      1  0.4284480000000  0.4586260000000  0.4842260000000 1.0
C      1  0.4466170000000  0.5555430000000  0.5203770000000 1.0
C      1  0.4731560000000  0.5457010000000  0.4686610000000 1.0
C      1  0.4908460000000  0.4223360000000  0.5696710000000 1.0
C      1  0.4466200000000  0.4758010000000  0.4330380000000 1.0
C      1  0.5120700000000  0.4464290000000  0.4291480000000 1.0
C      1  0.4289530000000  0.5206300000000  0.4402710000000 1.0
C      1  0.5743250000000  0.5143460000000  0.5382350000000 1.0
C      1  0.5362020000000  0.4956320000000  0.4854610000000 1.0
C      1  0.4855040000000  0.5103100000000  0.4425300000000 1.0
C      1  0.5840130000000  0.4845390000000  0.5246690000000 1.0
C      1  0.5521100000000  0.5095450000000  0.5614460000000 1.0
C      1  0.4829100000000  0.4167230000000  0.4727180000000 1.0
C      1  0.5113280000000  0.5272760000000  0.5039100000000 1.0
C      1  0.4531950000000  0.4813030000000  0.4882710000000 1.0
C      1  0.4699390000000  0.5130480000000  0.4706720000000 1.0
C      1  0.4405660000000  0.5558140000000  0.4899460000000 1.0
C      1  0.5456310000000  0.4994650000000  0.4322270000000 1.0
C      1  0.5769620000000  0.4342940000000  0.5153120000000 1.0
C      1  0.5254660000000  0.4419050000000  0.4541080000000 1.0
C      1  0.4729450000000  0.4274210000000  0.5498410000000 1.0
C      1  0.5494170000000  0.4820060000000  0.5438920000000 1.0
C      1  0.4523090000000  0.4854650000000  0.5208240000000 1.0
C      1  0.5384550000000  0.5884050000000  0.4741040000000 1.0
C      1  0.5236060000000  0.5815500000000  0.5248780000000 1.0
C      1  0.5422320000000  0.5239300000000  0.5165350000000 1.0
C      1  0.5364890000000  0.5100240000000  0.4563340000000 1.0
C      1  0.5103310000000  0.4488820000000  0.3969410000000 1.0
C      1  0.5237470000000  0.5284030000000  0.5626770000000 1.0
C      1  0.4921290000000  0.4676720000000  0.4150530000000 1.0
C      1  0.5129960000000  0.4408790000000  0.5007820000000 1.0
C      1  0.5044200000000  0.5847310000000  0.4777430000000 1.0
C      1  0.4673640000000  0.5724510000000  0.4862880000000 1.0
C      1  0.4862070000000  0.4802760000000  0.5803100000000 1.0
C      1  0.4271590000000  0.4927050000000  0.4453560000000 1.0
C      1  0.5202480000000  0.5081330000000  0.5374650000000 1.0
C      1  0.4984100000000  0.5825750000000  0.5100170000000 1.0
C      1  0.5059040000000  0.5275950000000  0.4367520000000 1.0
C      1  0.5073720000000  0.5062170000000  0.4809000000000 1.0
C      1  0.5163190000000  0.4762290000000  0.5456860000000 1.0
C      1  0.4381740000000  0.4957840000000  0.5604860000000 1.0
C      1  0.4675140000000  0.4504930000000  0.4869120000000 1.0
C      1  0.5824640000000  0.4637370000000  0.5500470000000 1.0
C      1  0.5401090000000  0.5634050000000  0.4517670000000 1.0
C      1  0.5239520000000  0.4259290000000  0.5220810000000 1.0
C      1  0.4349360000000  0.5496560000000  0.4569650000000 1.0
C      1  0.5746700000000  0.4982990000000  0.4763110000000 1.0
C      1  0.4342010000000  0.4514910000000  0.5314670000000 1.0
C      1  0.5517000000000  0.5535560000000  0.5266400000000 1.0
C      1  0.4786170000000  0.5666880000000  0.5233420000000 1.0
C      1  0.5540280000000  0.4732180000000  0.4315350000000 1.0
C      1  0.4713220000000  0.4111640000000  0.5264650000000 1.0
C      1  0.5090740000000  0.4291050000000  0.4747810000000 1.0
C      1  0.5807670000000  0.4369050000000  0.5427860000000 1.0
C      1  0.5681130000000  0.4693350000000  0.4770840000000 1.0
C      1  0.4217120000000  0.4810100000000  0.5350650000000 1.0
C      1  0.5639820000000  0.5060240000000  0.5893410000000 1.0
C      1  0.4850250000000  0.4862600000000  0.4858580000000 1.0
END
