TITL C-2778437-8639-351 -0.00503756604268819 125000 -708.145731511052 0 0 123 (C1) n - 1
REM
REM in /home/nfs/bkarasulu/CARBON/AIRSS/Generating-Clusters/REBO/Only-C1/SD-CG/HFTN-CG
REM
REM
REM
REM
REM
REM ./C.cell (11c1c37f851c82e70ff6c80c92926a4b)
REM
REM compiler GCC version 9.2.1 20190827 (Red Hat 9.2.1-1)
REM options -cpp -mtune=generic -march=x86-64 -g -O0 -fpre-include=/usr/include/finclude/math-vector-fortran.h
REM seed -372388199 -1972726910 -1467769800 380555011 716118347 2035685458 -1827723642 1308492332 2046203766 -1521361471 -2089335539 -1880885675 -1977583179 -881685811 -1683859080 1149923490 732794817 -32737464 -1060088834 1307698843 -226134981 -588017353 -997063332 546831235 945048195 70827808 -986496357 -1304425734 1905448183 -295676973 1382875881 325187207 -1185892158
REM
CELL 1.54180   50.00000   50.00000   50.00000   90.00000   90.00000   90.00000
LATT -1
SFAC C  
C      1  0.4873750000000  0.5958430000000  0.4869220000000 1.0
C      1  0.5444150000000  0.5607270000000  0.4864090000000 1.0
C      1  0.4580320000000  0.4759230000000  0.4646720000000 1.0
C      1  0.5420400000000  0.4678460000000  0.4777470000000 1.0
C      1  0.5287680000000  0.5943310000000  0.5210400000000 1.0
C      1  0.4690580000000  0.5818990000000  0.5630190000000 1.0
C      1  0.5644160000000  0.4671940000000  0.4271730000000 1.0
C      1  0.5834240000000  0.4594580000000  0.5153010000000 1.0
C      1  0.5186790000000  0.5438630000000  0.4938680000000 1.0
C      1  0.4733540000000  0.5524770000000  0.5736780000000 1.0
C      1  0.4173620000000  0.4517780000000  0.5155770000000 1.0
C      1  0.5577060000000  0.4594030000000  0.5365500000000 1.0
C      1  0.4784620000000  0.5004830000000  0.5796240000000 1.0
C      1  0.5488070000000  0.5181770000000  0.4636520000000 1.0
C      1  0.5642590000000  0.5220490000000  0.4134370000000 1.0
C      1  0.5837920000000  0.5621480000000  0.5211480000000 1.0
C      1  0.4618080000000  0.4343510000000  0.5574980000000 1.0
C      1  0.4617340000000  0.5029000000000  0.5419250000000 1.0
C      1  0.4977950000000  0.4623530000000  0.5921480000000 1.0
C      1  0.4868570000000  0.3978510000000  0.5198890000000 1.0
C      1  0.5081470000000  0.5900580000000  0.5481260000000 1.0
C      1  0.5529060000000  0.4848820000000  0.5533090000000 1.0
C      1  0.5101380000000  0.4388820000000  0.5417130000000 1.0
C      1  0.5420060000000  0.5274390000000  0.5511600000000 1.0
C      1  0.4159280000000  0.5185940000000  0.4842730000000 1.0
C      1  0.5408640000000  0.5068750000000  0.4069090000000 1.0
C      1  0.5206040000000  0.4602290000000  0.4133060000000 1.0
C      1  0.4733430000000  0.4968800000000  0.4833370000000 1.0
C      1  0.4321620000000  0.5695520000000  0.5295560000000 1.0
C      1  0.5578170000000  0.4092910000000  0.4630550000000 1.0
C      1  0.4809460000000  0.4277890000000  0.5351210000000 1.0
C      1  0.5216800000000  0.4316350000000  0.4294070000000 1.0
C      1  0.5006380000000  0.4847410000000  0.4915080000000 1.0
C      1  0.5655340000000  0.4578740000000  0.4598340000000 1.0
C      1  0.4111870000000  0.4715830000000  0.4966700000000 1.0
C      1  0.4715970000000  0.5610140000000  0.4230710000000 1.0
C      1  0.4609460000000  0.5821590000000  0.5370450000000 1.0
C      1  0.5165150000000  0.5220410000000  0.4060830000000 1.0
C      1  0.4136920000000  0.4468670000000  0.5431010000000 1.0
C      1  0.4978420000000  0.4742230000000  0.4221610000000 1.0
C      1  0.4415780000000  0.4222640000000  0.4768280000000 1.0
C      1  0.4721980000000  0.4618010000000  0.4209680000000 1.0
C      1  0.5544080000000  0.4380300000000  0.4355770000000 1.0
C      1  0.5391060000000  0.5680300000000  0.5362440000000 1.0
C      1  0.4562980000000  0.5020180000000  0.5093710000000 1.0
C      1  0.4422650000000  0.4405450000000  0.4559110000000 1.0
C      1  0.4264060000000  0.4997390000000  0.4591100000000 1.0
C      1  0.5066540000000  0.5509350000000  0.4565800000000 1.0
C      1  0.5351160000000  0.4056930000000  0.4474170000000 1.0
C      1  0.5729960000000  0.5130190000000  0.5143500000000 1.0
C      1  0.4818980000000  0.5058690000000  0.4533680000000 1.0
C      1  0.4816290000000  0.4327470000000  0.5012640000000 1.0
C      1  0.5653340000000  0.5118430000000  0.4875930000000 1.0
C      1  0.5014020000000  0.4945690000000  0.5602210000000 1.0
C      1  0.4582300000000  0.5334030000000  0.5164790000000 1.0
C      1  0.4640750000000  0.5700110000000  0.4522480000000 1.0
C      1  0.4422720000000  0.4371780000000  0.5057250000000 1.0
C      1  0.4690280000000  0.5575170000000  0.5204780000000 1.0
C      1  0.5240420000000  0.5671300000000  0.4355650000000 1.0
C      1  0.4669550000000  0.4412700000000  0.4402120000000 1.0
C      1  0.5275830000000  0.4363030000000  0.5977820000000 1.0
C      1  0.5058410000000  0.5447120000000  0.5809110000000 1.0
C      1  0.4376520000000  0.4681500000000  0.5825310000000 1.0
C      1  0.4483970000000  0.5384590000000  0.4337860000000 1.0
C      1  0.4622850000000  0.5831120000000  0.4798920000000 1.0
C      1  0.5350740000000  0.5889710000000  0.4904940000000 1.0
C      1  0.6221440000000  0.5271330000000  0.5153710000000 1.0
C      1  0.4403370000000  0.4832650000000  0.4101570000000 1.0
C      1  0.4956550000000  0.5950890000000  0.5171560000000 1.0
C      1  0.5183100000000  0.4804390000000  0.4699810000000 1.0
C      1  0.5861120000000  0.5311290000000  0.4681010000000 1.0
C      1  0.4737960000000  0.5226260000000  0.4328690000000 1.0
C      1  0.4076520000000  0.4981900000000  0.5051210000000 1.0
C      1  0.4243540000000  0.5456440000000  0.4993440000000 1.0
C      1  0.5220510000000  0.4216560000000  0.4897580000000 1.0
C      1  0.4957650000000  0.5630100000000  0.5096000000000 1.0
C      1  0.5212610000000  0.4760150000000  0.5935820000000 1.0
C      1  0.5075730000000  0.5722820000000  0.5679010000000 1.0
C      1  0.4217490000000  0.5374600000000  0.5322540000000 1.0
C      1  0.4915280000000  0.4279770000000  0.4456270000000 1.0
C      1  0.4408440000000  0.5725470000000  0.4965750000000 1.0
C      1  0.4579070000000  0.4879490000000  0.5942550000000 1.0
C      1  0.4251210000000  0.4677280000000  0.4673610000000 1.0
C      1  0.5797550000000  0.4505670000000  0.4891860000000 1.0
C      1  0.4939310000000  0.5366280000000  0.4145010000000 1.0
C      1  0.5534810000000  0.4306090000000  0.4867050000000 1.0
C      1  0.5486300000000  0.4344810000000  0.5513670000000 1.0
C      1  0.4798150000000  0.4758930000000  0.5322740000000 1.0
C      1  0.5958080000000  0.5338660000000  0.5141060000000 1.0
C      1  0.4591550000000  0.4740330000000  0.5569030000000 1.0
C      1  0.5036340000000  0.4888920000000  0.4461850000000 1.0
C      1  0.5408960000000  0.4122970000000  0.5363750000000 1.0
C      1  0.5132080000000  0.5974470000000  0.4725460000000 1.0
C      1  0.5445590000000  0.4572780000000  0.5065410000000 1.0
C      1  0.4082440000000  0.5095670000000  0.5303310000000 1.0
C      1  0.4759100000000  0.4534120000000  0.5779510000000 1.0
C      1  0.5182610000000  0.5472100000000  0.5265420000000 1.0
C      1  0.6138330000000  0.5283940000000  0.4684280000000 1.0
C      1  0.4772630000000  0.5257670000000  0.5567680000000 1.0
C      1  0.4898840000000  0.5374320000000  0.4765510000000 1.0
C      1  0.5005270000000  0.4730950000000  0.5165460000000 1.0
C      1  0.5346960000000  0.5386060000000  0.4479830000000 1.0
C      1  0.4355710000000  0.5307010000000  0.4609980000000 1.0
C      1  0.5594230000000  0.5086680000000  0.5388390000000 1.0
C      1  0.4466950000000  0.5484300000000  0.5526900000000 1.0
C      1  0.5111290000000  0.4144220000000  0.4638340000000 1.0
C      1  0.4505360000000  0.4704780000000  0.5034990000000 1.0
C      1  0.5728470000000  0.5508360000000  0.4918450000000 1.0
C      1  0.5260970000000  0.4430240000000  0.5715310000000 1.0
C      1  0.5656740000000  0.5672800000000  0.5404300000000 1.0
C      1  0.5273330000000  0.5250460000000  0.5791700000000 1.0
C      1  0.5145300000000  0.4148420000000  0.5179770000000 1.0
C      1  0.5118090000000  0.4693150000000  0.5553450000000 1.0
C      1  0.4629750000000  0.5443050000000  0.4704540000000 1.0
C      1  0.5194700000000  0.5943610000000  0.4445250000000 1.0
C      1  0.4599600000000  0.4084270000000  0.5071930000000 1.0
C      1  0.5372790000000  0.4934470000000  0.5777240000000 1.0
C      1  0.4338060000000  0.4439200000000  0.5631550000000 1.0
C      1  0.5086090000000  0.5234140000000  0.5441350000000 1.0
C      1  0.5432310000000  0.4781250000000  0.4113370000000 1.0
C      1  0.4428580000000  0.4844440000000  0.4358260000000 1.0
C      1  0.5723180000000  0.5289200000000  0.4386220000000 1.0
C      1  0.4728460000000  0.4550030000000  0.4871470000000 1.0
END
