TITL C-2778424-3986-621 -0.000766331258994154 125000 -242.7201535574 0 0 45 (C1) n - 1
REM
REM in /home/nfs/bkarasulu/CARBON/AIRSS/Generating-Clusters/REBO/Only-C1/SD-CG/HFTN-CG
REM
REM
REM
REM
REM
REM ./C.cell (11c1c37f851c82e70ff6c80c92926a4b)
REM
REM compiler GCC version 9.2.1 20190827 (Red Hat 9.2.1-1)
REM options -cpp -mtune=generic -march=x86-64 -g -O0 -fpre-include=/usr/include/finclude/math-vector-fortran.h
REM seed 9453385 1445979790 764435286 -1410089341 1443671511 1037842992 857937516 -136701708 1718107471 -1951174467 -45644284 -569761316 -552186252 1010437828 460201293 -1580679568 1633007054 1213440461 228049040 1989066689 867227524 1076002565 95425807 -2046023984 1220048335 -1755618065 966913576 -1673513995 244658159 -449541143 2098529544 682381767 1944259452
REM
CELL 1.54180   50.00000   50.00000   50.00000   90.00000   90.00000   90.00000
LATT -1
SFAC C  
C      1  0.4921680000000  0.4894230000000  0.4709020000000 1.0
C      1  0.4704570000000  0.4807250000000  0.5032780000000 1.0
C      1  0.5145810000000  0.5634220000000  0.5072990000000 1.0
C      1  0.4956910000000  0.5037010000000  0.5238280000000 1.0
C      1  0.4713710000000  0.5346250000000  0.4812010000000 1.0
C      1  0.5677280000000  0.5389050000000  0.4869200000000 1.0
C      1  0.4779470000000  0.5298460000000  0.4485190000000 1.0
C      1  0.5001010000000  0.5671940000000  0.5344880000000 1.0
C      1  0.5247500000000  0.4928560000000  0.5163220000000 1.0
C      1  0.5441300000000  0.5389100000000  0.4979680000000 1.0
C      1  0.5103550000000  0.5432420000000  0.5557220000000 1.0
C      1  0.4723630000000  0.4869260000000  0.5372070000000 1.0
C      1  0.5470790000000  0.5149170000000  0.5296290000000 1.0
C      1  0.5367010000000  0.4947520000000  0.5543640000000 1.0
C      1  0.4790940000000  0.4539800000000  0.4434650000000 1.0
C      1  0.5388180000000  0.4541300000000  0.4841830000000 1.0
C      1  0.5135250000000  0.5352030000000  0.4880550000000 1.0
C      1  0.5295380000000  0.4723500000000  0.4395080000000 1.0
C      1  0.4773560000000  0.4737520000000  0.5634850000000 1.0
C      1  0.5349910000000  0.4670590000000  0.5476020000000 1.0
C      1  0.5100500000000  0.5227710000000  0.4587160000000 1.0
C      1  0.4852260000000  0.5102490000000  0.4939680000000 1.0
C      1  0.5606210000000  0.5027730000000  0.5024940000000 1.0
C      1  0.4936780000000  0.4386860000000  0.4694610000000 1.0
C      1  0.4418830000000  0.4926310000000  0.5283730000000 1.0
C      1  0.4983640000000  0.5546470000000  0.4595610000000 1.0
C      1  0.4363640000000  0.4800080000000  0.5025650000000 1.0
C      1  0.4743860000000  0.4811750000000  0.4496600000000 1.0
C      1  0.4675860000000  0.5625230000000  0.5263880000000 1.0
C      1  0.5107840000000  0.4441510000000  0.4409710000000 1.0
C      1  0.5223850000000  0.4935320000000  0.4608890000000 1.0
C      1  0.5383850000000  0.4850420000000  0.4865180000000 1.0
C      1  0.4285660000000  0.4530990000000  0.4972210000000 1.0
C      1  0.4662880000000  0.5593090000000  0.4979480000000 1.0
C      1  0.5319920000000  0.5437360000000  0.5294510000000 1.0
C      1  0.4643840000000  0.5047690000000  0.4369480000000 1.0
C      1  0.5406590000000  0.4467930000000  0.4559520000000 1.0
C      1  0.5113170000000  0.4438890000000  0.4980890000000 1.0
C      1  0.4502260000000  0.4356910000000  0.4969780000000 1.0
C      1  0.4782580000000  0.4505010000000  0.4960290000000 1.0
C      1  0.4923090000000  0.5684840000000  0.4847440000000 1.0
C      1  0.5253120000000  0.4602400000000  0.5212390000000 1.0
C      1  0.5125610000000  0.5129100000000  0.5492960000000 1.0
C      1  0.4780400000000  0.5539950000000  0.5566180000000 1.0
C      1  0.4816290000000  0.4624760000000  0.5859760000000 1.0
END
