TITL C-2778432-5617-376 -0.100497147850496 125000 -507.867343824528 0 0 88 (C1) n - 1
REM
REM in /home/nfs/bkarasulu/CARBON/AIRSS/Generating-Clusters/REBO/Only-C1/SD-CG/HFTN-CG
REM
REM
REM
REM
REM
REM ./C.cell (11c1c37f851c82e70ff6c80c92926a4b)
REM
REM compiler GCC version 9.2.1 20190827 (Red Hat 9.2.1-1)
REM options -cpp -mtune=generic -march=x86-64 -g -O0 -fpre-include=/usr/include/finclude/math-vector-fortran.h
REM seed 2077001406 1172322231 -1615880173 -494055946 872922227 -154504237 -1520453931 1820331033 -2032909373 1166434948 -2013114314 1522645834 425766926 -694408804 807875976 -1802133719 365372551 -229393940 -1819994220 1413426270 720273076 136491848 1420670739 -882909407 -60601573 -2091640250 -568637824 -445971633 499749414 -2082553237 -1990430983 996829054 -1114528177
REM
CELL 1.54180   50.00000   50.00000   50.00000   90.00000   90.00000   90.00000
LATT -1
SFAC C  
C      1  0.5642280000000  0.4397060000000  0.4837460000000 1.0
C      1  0.5581640000000  0.4581250000000  0.4575960000000 1.0
C      1  0.5079180000000  0.5593850000000  0.5605180000000 1.0
C      1  0.4872280000000  0.5850250000000  0.5171810000000 1.0
C      1  0.4670860000000  0.4936650000000  0.4303840000000 1.0
C      1  0.5106410000000  0.5016740000000  0.4571320000000 1.0
C      1  0.5086870000000  0.4527870000000  0.4283050000000 1.0
C      1  0.4959340000000  0.4997040000000  0.4136600000000 1.0
C      1  0.4961300000000  0.4812390000000  0.4691520000000 1.0
C      1  0.4098280000000  0.4965740000000  0.4413850000000 1.0
C      1  0.4695150000000  0.5122280000000  0.4988110000000 1.0
C      1  0.4316350000000  0.5192660000000  0.5600430000000 1.0
C      1  0.5305840000000  0.5492700000000  0.4567060000000 1.0
C      1  0.4829160000000  0.5143520000000  0.5792520000000 1.0
C      1  0.4172510000000  0.5439730000000  0.5153760000000 1.0
C      1  0.4418600000000  0.4755340000000  0.5209230000000 1.0
C      1  0.5315880000000  0.4316110000000  0.5505220000000 1.0
C      1  0.5278800000000  0.4464630000000  0.4474110000000 1.0
C      1  0.5086490000000  0.5146330000000  0.5396910000000 1.0
C      1  0.4432060000000  0.5448760000000  0.4657080000000 1.0
C      1  0.5640160000000  0.5242550000000  0.4885370000000 1.0
C      1  0.4343410000000  0.4711920000000  0.4783960000000 1.0
C      1  0.4347350000000  0.4921340000000  0.4533540000000 1.0
C      1  0.5186870000000  0.4340630000000  0.4729030000000 1.0
C      1  0.4926060000000  0.5522760000000  0.5134690000000 1.0
C      1  0.4810830000000  0.5373880000000  0.4581080000000 1.0
C      1  0.5414940000000  0.5696130000000  0.4969940000000 1.0
C      1  0.5105630000000  0.4606080000000  0.4915040000000 1.0
C      1  0.5305100000000  0.5191020000000  0.5750850000000 1.0
C      1  0.4409170000000  0.4683940000000  0.5479360000000 1.0
C      1  0.4533000000000  0.5723660000000  0.4820700000000 1.0
C      1  0.4708620000000  0.4873740000000  0.4802380000000 1.0
C      1  0.5574220000000  0.5475170000000  0.5073010000000 1.0
C      1  0.5437900000000  0.4784710000000  0.5045840000000 1.0
C      1  0.5373100000000  0.5066940000000  0.4864820000000 1.0
C      1  0.4937810000000  0.3840230000000  0.4900620000000 1.0
C      1  0.5010480000000  0.4716670000000  0.5482380000000 1.0
C      1  0.4833740000000  0.4878060000000  0.5674440000000 1.0
C      1  0.5418130000000  0.4215230000000  0.4853200000000 1.0
C      1  0.5301160000000  0.5617540000000  0.5427070000000 1.0
C      1  0.5278780000000  0.4193260000000  0.5227050000000 1.0
C      1  0.4284040000000  0.5547160000000  0.4924550000000 1.0
C      1  0.5073790000000  0.4428880000000  0.5623000000000 1.0
C      1  0.4940460000000  0.5523360000000  0.4407420000000 1.0
C      1  0.5372410000000  0.5286020000000  0.4313120000000 1.0
C      1  0.5840450000000  0.4745620000000  0.4525900000000 1.0
C      1  0.5851550000000  0.5030490000000  0.4942450000000 1.0
C      1  0.4556640000000  0.5223380000000  0.5846490000000 1.0
C      1  0.5405970000000  0.5152430000000  0.5458290000000 1.0
C      1  0.5154120000000  0.5264400000000  0.4753000000000 1.0
C      1  0.5755920000000  0.4529170000000  0.5048180000000 1.0
C      1  0.4885910000000  0.4682670000000  0.5166450000000 1.0
C      1  0.4436400000000  0.5480740000000  0.5713690000000 1.0
C      1  0.5540280000000  0.4888290000000  0.5413610000000 1.0
C      1  0.4607810000000  0.5128260000000  0.5461940000000 1.0
C      1  0.5429840000000  0.5074570000000  0.5966740000000 1.0
C      1  0.4917540000000  0.3592160000000  0.4812500000000 1.0
C      1  0.5368730000000  0.4761350000000  0.4729920000000 1.0
C      1  0.5321710000000  0.4503580000000  0.5156060000000 1.0
C      1  0.4556020000000  0.5182570000000  0.4505680000000 1.0
C      1  0.5493540000000  0.5420280000000  0.5343730000000 1.0
C      1  0.4257600000000  0.5208650000000  0.5288260000000 1.0
C      1  0.4828330000000  0.4992120000000  0.5258080000000 1.0
C      1  0.4886730000000  0.4695770000000  0.4190380000000 1.0
C      1  0.5741290000000  0.4836970000000  0.5158580000000 1.0
C      1  0.5574580000000  0.5297850000000  0.4579280000000 1.0
C      1  0.5337830000000  0.5746250000000  0.4705790000000 1.0
C      1  0.5164040000000  0.5956950000000  0.4641620000000 1.0
C      1  0.4857460000000  0.5751940000000  0.5496150000000 1.0
C      1  0.4685570000000  0.4358640000000  0.4803600000000 1.0
C      1  0.5167930000000  0.5087910000000  0.4302010000000 1.0
C      1  0.4879930000000  0.5350660000000  0.4894440000000 1.0
C      1  0.4605230000000  0.4607220000000  0.4982280000000 1.0
C      1  0.4634030000000  0.4404870000000  0.4526380000000 1.0
C      1  0.5345190000000  0.4658730000000  0.5444700000000 1.0
C      1  0.5053470000000  0.5332000000000  0.5749370000000 1.0
C      1  0.4542540000000  0.4656860000000  0.4443340000000 1.0
C      1  0.4615340000000  0.5594240000000  0.5539930000000 1.0
C      1  0.5092130000000  0.4060220000000  0.5075820000000 1.0
C      1  0.5190060000000  0.5739550000000  0.5166050000000 1.0
C      1  0.4576950000000  0.4749570000000  0.5684970000000 1.0
C      1  0.4734560000000  0.5902820000000  0.4900140000000 1.0
C      1  0.4408870000000  0.5029300000000  0.5132520000000 1.0
C      1  0.4699250000000  0.4213280000000  0.4343470000000 1.0
C      1  0.5952000000000  0.4910040000000  0.4715830000000 1.0
C      1  0.4833420000000  0.4146210000000  0.4897900000000 1.0
C      1  0.4829470000000  0.5369860000000  0.5387310000000 1.0
C      1  0.4907310000000  0.6019740000000  0.4709700000000 1.0
END
