TITL C-2778435-5768-427 0.00161027689961421 125000 -923.627475969836 0 0 159 (C1) n - 1
REM
REM in /home/nfs/bkarasulu/CARBON/AIRSS/Generating-Clusters/REBO/Only-C1/SD-CG/HFTN-CG
REM
REM
REM
REM
REM
REM ./C.cell (11c1c37f851c82e70ff6c80c92926a4b)
REM
REM compiler GCC version 9.2.1 20190827 (Red Hat 9.2.1-1)
REM options -cpp -mtune=generic -march=x86-64 -g -O0 -fpre-include=/usr/include/finclude/math-vector-fortran.h
REM seed 1951440676 -1651509920 -1709216596 1441420377 1825156924 -251627961 1109032012 1084895074 143834558 309905597 1615693935 -1896372208 -118060244 1689170772 -1484942151 -2070823094 540670250 -1593059643 -548941739 1798052319 1543830957 -1604438740 556270912 988365364 -2112746508 -197156324 67974865 1237339704 -1014506981 -2127216589 -108767173 -215877214 1380395635
REM
CELL 1.54180   50.00000   50.00000   50.00000   90.00000   90.00000   90.00000
LATT -1
SFAC C  
C      1  0.4901120000000  0.5017440000000  0.4432800000000 1.0
C      1  0.5534850000000  0.4804390000000  0.4756910000000 1.0
C      1  0.4650970000000  0.5088380000000  0.4576420000000 1.0
C      1  0.4719770000000  0.5171020000000  0.5211240000000 1.0
C      1  0.5482750000000  0.5157490000000  0.3937770000000 1.0
C      1  0.4756510000000  0.5906660000000  0.5442110000000 1.0
C      1  0.6199500000000  0.5189570000000  0.4195300000000 1.0
C      1  0.5160430000000  0.5373910000000  0.5001800000000 1.0
C      1  0.4770540000000  0.4782940000000  0.4098250000000 1.0
C      1  0.5000480000000  0.5268100000000  0.5254450000000 1.0
C      1  0.4426240000000  0.4690160000000  0.5701320000000 1.0
C      1  0.4641670000000  0.4251300000000  0.5536700000000 1.0
C      1  0.3986150000000  0.5037640000000  0.5042600000000 1.0
C      1  0.4509890000000  0.4909040000000  0.4118990000000 1.0
C      1  0.4386260000000  0.5345110000000  0.5753920000000 1.0
C      1  0.5933010000000  0.4471510000000  0.4829900000000 1.0
C      1  0.3994400000000  0.5004800000000  0.5581910000000 1.0
C      1  0.4681900000000  0.4518720000000  0.4522160000000 1.0
C      1  0.4491000000000  0.5196710000000  0.4066930000000 1.0
C      1  0.5364380000000  0.4843180000000  0.4401700000000 1.0
C      1  0.5526800000000  0.4419370000000  0.4326350000000 1.0
C      1  0.5044080000000  0.5936690000000  0.4912220000000 1.0
C      1  0.5005550000000  0.4038310000000  0.4448070000000 1.0
C      1  0.4698200000000  0.4867990000000  0.5469660000000 1.0
C      1  0.5066120000000  0.4372170000000  0.4711100000000 1.0
C      1  0.5044400000000  0.5831470000000  0.4610060000000 1.0
C      1  0.5826840000000  0.5479780000000  0.5268550000000 1.0
C      1  0.4242600000000  0.4448130000000  0.5284020000000 1.0
C      1  0.4839360000000  0.3958000000000  0.5121880000000 1.0
C      1  0.4549990000000  0.5467580000000  0.5005570000000 1.0
C      1  0.5350130000000  0.5299390000000  0.4198590000000 1.0
C      1  0.4729040000000  0.5345130000000  0.4014830000000 1.0
C      1  0.5015510000000  0.4756300000000  0.5890250000000 1.0
C      1  0.4857640000000  0.4517990000000  0.4936920000000 1.0
C      1  0.5254100000000  0.4809090000000  0.4109360000000 1.0
C      1  0.5449900000000  0.4285280000000  0.4613330000000 1.0
C      1  0.5841500000000  0.5402240000000  0.4991170000000 1.0
C      1  0.5733080000000  0.4410330000000  0.5270250000000 1.0
C      1  0.5206950000000  0.4525290000000  0.5403950000000 1.0
C      1  0.4748510000000  0.4318080000000  0.5262910000000 1.0
C      1  0.4280570000000  0.5273770000000  0.5506770000000 1.0
C      1  0.5298050000000  0.4896780000000  0.6017470000000 1.0
C      1  0.5522300000000  0.4649420000000  0.5980120000000 1.0
C      1  0.5309570000000  0.4226580000000  0.5434180000000 1.0
C      1  0.4354050000000  0.5327450000000  0.4281500000000 1.0
C      1  0.5785010000000  0.5215480000000  0.5451750000000 1.0
C      1  0.4976540000000  0.4563380000000  0.4258170000000 1.0
C      1  0.5207010000000  0.5510660000000  0.5940760000000 1.0
C      1  0.5314950000000  0.4586740000000  0.4618710000000 1.0
C      1  0.4050100000000  0.5225150000000  0.4812660000000 1.0
C      1  0.4146580000000  0.4467560000000  0.4607950000000 1.0
C      1  0.5066810000000  0.4757460000000  0.4878530000000 1.0
C      1  0.4972130000000  0.5233880000000  0.4199170000000 1.0
C      1  0.3712770000000  0.5143320000000  0.5544510000000 1.0
C      1  0.4442920000000  0.5071240000000  0.5368130000000 1.0
C      1  0.5445470000000  0.4139610000000  0.4921880000000 1.0
C      1  0.5579070000000  0.5540380000000  0.4420480000000 1.0
C      1  0.4067080000000  0.4792200000000  0.4543070000000 1.0
C      1  0.4367880000000  0.4555930000000  0.4426840000000 1.0
C      1  0.4492400000000  0.5682730000000  0.4639650000000 1.0
C      1  0.5212660000000  0.5012870000000  0.5647590000000 1.0
C      1  0.5738140000000  0.5009350000000  0.5196930000000 1.0
C      1  0.4949480000000  0.4729110000000  0.4554880000000 1.0
C      1  0.3986100000000  0.5098140000000  0.4529770000000 1.0
C      1  0.5158440000000  0.5186310000000  0.5937330000000 1.0
C      1  0.4318390000000  0.5433900000000  0.4800950000000 1.0
C      1  0.4775500000000  0.5740330000000  0.4457640000000 1.0
C      1  0.4828680000000  0.4294430000000  0.4309850000000 1.0
C      1  0.5328460000000  0.5780550000000  0.4422680000000 1.0
C      1  0.5442860000000  0.5505660000000  0.5117790000000 1.0
C      1  0.4360200000000  0.5809200000000  0.4928680000000 1.0
C      1  0.4550290000000  0.4730830000000  0.5195800000000 1.0
C      1  0.4263340000000  0.4894380000000  0.5177700000000 1.0
C      1  0.5946750000000  0.5428310000000  0.4733970000000 1.0
C      1  0.5051960000000  0.4233050000000  0.5131010000000 1.0
C      1  0.5761050000000  0.5199480000000  0.5755050000000 1.0
C      1  0.5658270000000  0.4990720000000  0.4498600000000 1.0
C      1  0.5585250000000  0.4609460000000  0.5713400000000 1.0
C      1  0.4721930000000  0.4123590000000  0.4566810000000 1.0
C      1  0.5362530000000  0.4984620000000  0.4941290000000 1.0
C      1  0.5542390000000  0.5716440000000  0.4664810000000 1.0
C      1  0.5483120000000  0.5285000000000  0.5331600000000 1.0
C      1  0.5295070000000  0.5148320000000  0.4453040000000 1.0
C      1  0.5792260000000  0.4634660000000  0.4651480000000 1.0
C      1  0.5433720000000  0.4132630000000  0.5192110000000 1.0
C      1  0.4925480000000  0.4588590000000  0.5263550000000 1.0
C      1  0.4029670000000  0.4526040000000  0.5127140000000 1.0
C      1  0.5383950000000  0.5787020000000  0.5293050000000 1.0
C      1  0.4607140000000  0.4843450000000  0.4785370000000 1.0
C      1  0.4298570000000  0.4871630000000  0.4858210000000 1.0
C      1  0.4575650000000  0.5398810000000  0.4497650000000 1.0
C      1  0.5240630000000  0.4500800000000  0.5038770000000 1.0
C      1  0.5049050000000  0.5667270000000  0.5107350000000 1.0
C      1  0.5929940000000  0.4345890000000  0.5073920000000 1.0
C      1  0.4972130000000  0.5855980000000  0.5665540000000 1.0
C      1  0.5042340000000  0.5425850000000  0.5504300000000 1.0
C      1  0.5692540000000  0.5702470000000  0.5359300000000 1.0
C      1  0.4885280000000  0.5405530000000  0.4642630000000 1.0
C      1  0.5199770000000  0.5526830000000  0.4586690000000 1.0
C      1  0.4817680000000  0.5986530000000  0.5168380000000 1.0
C      1  0.4811840000000  0.5577400000000  0.4883180000000 1.0
C      1  0.6025820000000  0.4705110000000  0.5513880000000 1.0
C      1  0.4007670000000  0.4735380000000  0.4881420000000 1.0
C      1  0.4754160000000  0.4228990000000  0.4841040000000 1.0
C      1  0.5804800000000  0.4521820000000  0.5537790000000 1.0
C      1  0.4309350000000  0.4806190000000  0.4294740000000 1.0
C      1  0.6016310000000  0.4912240000000  0.5332000000000 1.0
C      1  0.4194800000000  0.4852260000000  0.5684430000000 1.0
C      1  0.5514660000000  0.4554450000000  0.5153330000000 1.0
C      1  0.5580540000000  0.5764600000000  0.4947010000000 1.0
C      1  0.4553090000000  0.5695240000000  0.5475230000000 1.0
C      1  0.5778330000000  0.5309300000000  0.4484690000000 1.0
C      1  0.4577290000000  0.4044640000000  0.5027550000000 1.0
C      1  0.4977460000000  0.5675490000000  0.5892850000000 1.0
C      1  0.4509680000000  0.4430010000000  0.5109890000000 1.0
C      1  0.4088190000000  0.5251460000000  0.4328760000000 1.0
C      1  0.4489730000000  0.4526170000000  0.4802880000000 1.0
C      1  0.5749280000000  0.4595830000000  0.4368810000000 1.0
C      1  0.5214510000000  0.4065550000000  0.4679650000000 1.0
C      1  0.5425440000000  0.5305110000000  0.4714320000000 1.0
C      1  0.4412700000000  0.4441800000000  0.5550240000000 1.0
C      1  0.5467370000000  0.5550440000000  0.5805700000000 1.0
C      1  0.5131330000000  0.3918750000000  0.5021840000000 1.0
C      1  0.4211510000000  0.5659180000000  0.5123980000000 1.0
C      1  0.4657340000000  0.5849230000000  0.4961110000000 1.0
C      1  0.5016520000000  0.4944920000000  0.4058690000000 1.0
C      1  0.5105040000000  0.4250720000000  0.5675350000000 1.0
C      1  0.4848580000000  0.4120420000000  0.5680280000000 1.0
C      1  0.4233840000000  0.4316830000000  0.4843380000000 1.0
C      1  0.5010470000000  0.4869260000000  0.5415430000000 1.0
C      1  0.5252800000000  0.5042760000000  0.5251290000000 1.0
C      1  0.4918500000000  0.5303780000000  0.5759420000000 1.0
C      1  0.5102750000000  0.5174930000000  0.4738610000000 1.0
C      1  0.5391420000000  0.5469060000000  0.3923330000000 1.0
C      1  0.5731830000000  0.5465580000000  0.5858200000000 1.0
C      1  0.5789240000000  0.4864410000000  0.4209250000000 1.0
C      1  0.4840630000000  0.5549030000000  0.4241460000000 1.0
C      1  0.4475400000000  0.5630500000000  0.5745960000000 1.0
C      1  0.4708760000000  0.5505510000000  0.5923870000000 1.0
C      1  0.5840650000000  0.5843180000000  0.5016300000000 1.0
C      1  0.4639160000000  0.5166930000000  0.5863160000000 1.0
C      1  0.5085850000000  0.4505580000000  0.5799370000000 1.0
C      1  0.5299330000000  0.4512920000000  0.4185630000000 1.0
C      1  0.5959380000000  0.5129610000000  0.4282780000000 1.0
C      1  0.5337720000000  0.5973300000000  0.5035360000000 1.0
C      1  0.4303030000000  0.4091250000000  0.4994920000000 1.0
C      1  0.4132620000000  0.5458250000000  0.5306530000000 1.0
C      1  0.5627150000000  0.4920350000000  0.3954430000000 1.0
C      1  0.5512050000000  0.4826940000000  0.5276790000000 1.0
C      1  0.5368980000000  0.4748680000000  0.5545070000000 1.0
C      1  0.4797100000000  0.4900380000000  0.5035350000000 1.0
C      1  0.4561310000000  0.5466440000000  0.5299330000000 1.0
C      1  0.3947030000000  0.5193740000000  0.5303090000000 1.0
C      1  0.5578860000000  0.5026160000000  0.5870610000000 1.0
C      1  0.5324330000000  0.5330590000000  0.5603630000000 1.0
C      1  0.5623280000000  0.5191720000000  0.4939970000000 1.0
C      1  0.4705440000000  0.4860200000000  0.5796070000000 1.0
C      1  0.4351150000000  0.5131390000000  0.4685770000000 1.0
C      1  0.5106530000000  0.5717620000000  0.5417910000000 1.0
END
