TITL C-2778430-5657-1430 -0.00150779257149687 125000 -752.446303202143 0 0 131 (C1) n - 1
REM
REM in /home/nfs/bkarasulu/CARBON/AIRSS/Generating-Clusters/REBO/Only-C1/SD-CG/HFTN-CG
REM
REM
REM
REM
REM
REM ./C.cell (11c1c37f851c82e70ff6c80c92926a4b)
REM
REM compiler GCC version 9.2.1 20190827 (Red Hat 9.2.1-1)
REM options -cpp -mtune=generic -march=x86-64 -g -O0 -fpre-include=/usr/include/finclude/math-vector-fortran.h
REM seed 2131781473 236530486 -149332768 1332704429 1642097325 -1705603309 980690890 -1072263665 -1070969815 1101539491 -1799798389 -1838100146 1606906495 1317276991 -1100858721 1842705677 395316469 -1702827325 1377932202 1503818732 1729702433 161329120 -1872025645 1472640125 1369133563 -1084709418 1551167620 -1698793260 -887020145 -475420328 -1874805089 -1291865307 1659353653
REM
CELL 1.54180   50.00000   50.00000   50.00000   90.00000   90.00000   90.00000
LATT -1
SFAC C  
C      1  0.5550150000000  0.4367170000000  0.5408590000000 1.0
C      1  0.4321070000000  0.5183760000000  0.4831110000000 1.0
C      1  0.4714880000000  0.5993260000000  0.4935050000000 1.0
C      1  0.5512550000000  0.5075640000000  0.4136440000000 1.0
C      1  0.4949650000000  0.4085730000000  0.5447300000000 1.0
C      1  0.4636600000000  0.4226360000000  0.5452970000000 1.0
C      1  0.4948470000000  0.4232870000000  0.4680470000000 1.0
C      1  0.4572320000000  0.5878940000000  0.4384940000000 1.0
C      1  0.5281920000000  0.5019980000000  0.5978540000000 1.0
C      1  0.5224900000000  0.5525290000000  0.5749640000000 1.0
C      1  0.4653270000000  0.4762240000000  0.4138420000000 1.0
C      1  0.4620850000000  0.5511520000000  0.5263730000000 1.0
C      1  0.4484600000000  0.4877110000000  0.5861400000000 1.0
C      1  0.5447280000000  0.4786210000000  0.4152920000000 1.0
C      1  0.4605700000000  0.5414790000000  0.5687150000000 1.0
C      1  0.4293110000000  0.4509550000000  0.4792690000000 1.0
C      1  0.4232290000000  0.5507750000000  0.4792260000000 1.0
C      1  0.5062940000000  0.4507500000000  0.3998670000000 1.0
C      1  0.5353720000000  0.5234590000000  0.5817110000000 1.0
C      1  0.4627210000000  0.4872480000000  0.4520250000000 1.0
C      1  0.5032140000000  0.5738520000000  0.4293950000000 1.0
C      1  0.4834950000000  0.5320500000000  0.5454470000000 1.0
C      1  0.5787570000000  0.4804450000000  0.5402410000000 1.0
C      1  0.5037490000000  0.5093830000000  0.5616670000000 1.0
C      1  0.5308400000000  0.5107050000000  0.4475950000000 1.0
C      1  0.6036280000000  0.5144320000000  0.4793890000000 1.0
C      1  0.4319150000000  0.4614880000000  0.5714470000000 1.0
C      1  0.4535580000000  0.5399970000000  0.4553990000000 1.0
C      1  0.4624340000000  0.5507400000000  0.4864670000000 1.0
C      1  0.5374030000000  0.6156270000000  0.4621900000000 1.0
C      1  0.5918240000000  0.4725480000000  0.5093020000000 1.0
C      1  0.5186830000000  0.6044420000000  0.4783370000000 1.0
C      1  0.4560950000000  0.4663600000000  0.4890910000000 1.0
C      1  0.4823680000000  0.4506160000000  0.4197400000000 1.0
C      1  0.4621520000000  0.5802110000000  0.5384160000000 1.0
C      1  0.4314030000000  0.5304940000000  0.5660410000000 1.0
C      1  0.5052350000000  0.5929660000000  0.5269410000000 1.0
C      1  0.4498570000000  0.4906760000000  0.5521930000000 1.0
C      1  0.5186320000000  0.4525280000000  0.5362390000000 1.0
C      1  0.5589740000000  0.4153770000000  0.5145990000000 1.0
C      1  0.5026170000000  0.4937390000000  0.4810540000000 1.0
C      1  0.5278320000000  0.4850610000000  0.5608340000000 1.0
C      1  0.5861840000000  0.5339920000000  0.4613110000000 1.0
C      1  0.4601170000000  0.4366050000000  0.4411140000000 1.0
C      1  0.5436170000000  0.4395590000000  0.4960160000000 1.0
C      1  0.4962170000000  0.4128910000000  0.5108490000000 1.0
C      1  0.5231960000000  0.5523840000000  0.4120340000000 1.0
C      1  0.5369300000000  0.5298380000000  0.4006350000000 1.0
C      1  0.4463750000000  0.4217070000000  0.5198750000000 1.0
C      1  0.4701870000000  0.4121240000000  0.4977730000000 1.0
C      1  0.4414730000000  0.4606690000000  0.4509410000000 1.0
C      1  0.5491310000000  0.5639380000000  0.5290410000000 1.0
C      1  0.4139670000000  0.4831090000000  0.5537570000000 1.0
C      1  0.4990840000000  0.4536560000000  0.5930240000000 1.0
C      1  0.5243160000000  0.5915530000000  0.5025310000000 1.0
C      1  0.4182110000000  0.5269670000000  0.5222250000000 1.0
C      1  0.5869950000000  0.5645110000000  0.4662020000000 1.0
C      1  0.4812840000000  0.4480110000000  0.4840330000000 1.0
C      1  0.5301000000000  0.4977820000000  0.4712660000000 1.0
C      1  0.5224240000000  0.5096830000000  0.5185170000000 1.0
C      1  0.4777360000000  0.5985160000000  0.5224590000000 1.0
C      1  0.5254860000000  0.5425990000000  0.4741510000000 1.0
C      1  0.4845560000000  0.4845660000000  0.5705620000000 1.0
C      1  0.4602940000000  0.5727330000000  0.5656190000000 1.0
C      1  0.5503610000000  0.4586220000000  0.4362710000000 1.0
C      1  0.4971170000000  0.4500330000000  0.4475140000000 1.0
C      1  0.5549270000000  0.4645470000000  0.5570840000000 1.0
C      1  0.4856640000000  0.4468740000000  0.5444300000000 1.0
C      1  0.5890490000000  0.4637690000000  0.4761840000000 1.0
C      1  0.5611470000000  0.5091790000000  0.5402300000000 1.0
C      1  0.4854560000000  0.5912790000000  0.4437580000000 1.0
C      1  0.5436460000000  0.5298590000000  0.5095510000000 1.0
C      1  0.5902090000000  0.5207720000000  0.5273560000000 1.0
C      1  0.5053220000000  0.4319520000000  0.5675920000000 1.0
C      1  0.4444290000000  0.4816240000000  0.5143840000000 1.0
C      1  0.5559770000000  0.4985530000000  0.4881760000000 1.0
C      1  0.4183550000000  0.4988830000000  0.5073400000000 1.0
C      1  0.5279790000000  0.4554470000000  0.5752800000000 1.0
C      1  0.5458990000000  0.5601250000000  0.4951750000000 1.0
C      1  0.5626860000000  0.5204210000000  0.4406860000000 1.0
C      1  0.4416770000000  0.5697490000000  0.4582650000000 1.0
C      1  0.5628540000000  0.4551320000000  0.5143820000000 1.0
C      1  0.5262270000000  0.4191390000000  0.5360790000000 1.0
C      1  0.4634500000000  0.4152420000000  0.4643460000000 1.0
C      1  0.4245750000000  0.4470440000000  0.5128540000000 1.0
C      1  0.5132080000000  0.4843180000000  0.5323150000000 1.0
C      1  0.5710160000000  0.5425590000000  0.5207940000000 1.0
C      1  0.5554180000000  0.4875440000000  0.5151660000000 1.0
C      1  0.5275240000000  0.4686790000000  0.3937790000000 1.0
C      1  0.4798380000000  0.4851930000000  0.5368700000000 1.0
C      1  0.4158220000000  0.5121460000000  0.5617340000000 1.0
C      1  0.4866960000000  0.4605780000000  0.5141710000000 1.0
C      1  0.5141200000000  0.4413920000000  0.5053150000000 1.0
C      1  0.4424570000000  0.4600310000000  0.5387590000000 1.0
C      1  0.6026510000000  0.5039150000000  0.5084660000000 1.0
C      1  0.5556770000000  0.5282500000000  0.4733070000000 1.0
C      1  0.5138300000000  0.5372970000000  0.5350020000000 1.0
C      1  0.4910680000000  0.6019510000000  0.4708770000000 1.0
C      1  0.5164860000000  0.5478610000000  0.4439800000000 1.0
C      1  0.5508880000000  0.4332540000000  0.4669360000000 1.0
C      1  0.5741040000000  0.4505400000000  0.4568050000000 1.0
C      1  0.4645350000000  0.5132220000000  0.4730690000000 1.0
C      1  0.5350140000000  0.5659450000000  0.5531290000000 1.0
C      1  0.4392940000000  0.4211460000000  0.4864480000000 1.0
C      1  0.5305240000000  0.4786460000000  0.3685580000000 1.0
C      1  0.4972690000000  0.5239160000000  0.4688090000000 1.0
C      1  0.4681080000000  0.4961440000000  0.5004550000000 1.0
C      1  0.5117110000000  0.5623970000000  0.5155500000000 1.0
C      1  0.4350780000000  0.5468090000000  0.5107560000000 1.0
C      1  0.4711660000000  0.5131530000000  0.5840950000000 1.0
C      1  0.5257020000000  0.4378170000000  0.4474530000000 1.0
C      1  0.4931760000000  0.5139990000000  0.5070080000000 1.0
C      1  0.4688190000000  0.4601310000000  0.5864060000000 1.0
C      1  0.5010920000000  0.5186830000000  0.4353220000000 1.0
C      1  0.4498700000000  0.5215030000000  0.4313290000000 1.0
C      1  0.4073070000000  0.4735530000000  0.5253460000000 1.0
C      1  0.4364610000000  0.4774040000000  0.4236070000000 1.0
C      1  0.5391210000000  0.5246840000000  0.5516250000000 1.0
C      1  0.4512060000000  0.5807400000000  0.4875650000000 1.0
C      1  0.4529220000000  0.4360540000000  0.5713440000000 1.0
C      1  0.4972940000000  0.5351350000000  0.5825140000000 1.0
C      1  0.5686090000000  0.5745910000000  0.4800850000000 1.0
C      1  0.4868010000000  0.5435230000000  0.5063040000000 1.0
C      1  0.4875470000000  0.4739360000000  0.4657370000000 1.0
C      1  0.4767810000000  0.5047170000000  0.4260250000000 1.0
C      1  0.3956900000000  0.5557560000000  0.4769010000000 1.0
C      1  0.4283610000000  0.5048170000000  0.4261560000000 1.0
C      1  0.5152880000000  0.4794250000000  0.6045110000000 1.0
C      1  0.5282660000000  0.4040630000000  0.5050610000000 1.0
C      1  0.5832590000000  0.4923580000000  0.4756330000000 1.0
C      1  0.5240290000000  0.4135730000000  0.4730600000000 1.0
END
