TITL C-2778429-3646-228 -0.00237718619629082 125000 -1104.68765015145 0 0 188 (C1) n - 1
REM
REM in /home/nfs/bkarasulu/CARBON/AIRSS/Generating-Clusters/REBO/Only-C1/SD-CG/HFTN-CG
REM
REM
REM
REM
REM
REM ./C.cell (11c1c37f851c82e70ff6c80c92926a4b)
REM
REM compiler GCC version 9.2.1 20190827 (Red Hat 9.2.1-1)
REM options -cpp -mtune=generic -march=x86-64 -g -O0 -fpre-include=/usr/include/finclude/math-vector-fortran.h
REM seed -107400794 505811290 -2144953395 -259196547 -956019506 57362908 1992016954 1902469833 -390026250 1766616992 -353398189 1304524901 1291224225 -1715961050 1808633384 746513038 -553355891 -1936308512 1859557913 459815976 -401095921 143990948 1970511763 624187839 1127785693 -1876767800 279612429 1595827476 -1084156733 1985120414 1899287923 -723270463 -1207220060
REM
CELL 1.54180   50.00000   50.00000   50.00000   90.00000   90.00000   90.00000
LATT -1
SFAC C  
C      1  0.5365340000000  0.4016260000000  0.5204070000000 1.0
C      1  0.4396780000000  0.4981960000000  0.4088550000000 1.0
C      1  0.5047320000000  0.5856410000000  0.4853710000000 1.0
C      1  0.4705720000000  0.4604500000000  0.5426620000000 1.0
C      1  0.4524410000000  0.5134700000000  0.4432650000000 1.0
C      1  0.3983040000000  0.4874790000000  0.5089460000000 1.0
C      1  0.4634590000000  0.4883160000000  0.4889970000000 1.0
C      1  0.4718220000000  0.5630580000000  0.5347800000000 1.0
C      1  0.5001120000000  0.5090320000000  0.4554600000000 1.0
C      1  0.5009010000000  0.5135220000000  0.5849450000000 1.0
C      1  0.5151270000000  0.3914540000000  0.5031560000000 1.0
C      1  0.5412090000000  0.5746870000000  0.4429050000000 1.0
C      1  0.4964620000000  0.5467930000000  0.4844680000000 1.0
C      1  0.4889690000000  0.5193390000000  0.4012700000000 1.0
C      1  0.5853130000000  0.5653000000000  0.5180860000000 1.0
C      1  0.4992850000000  0.5912410000000  0.5647300000000 1.0
C      1  0.5897370000000  0.5269360000000  0.5369320000000 1.0
C      1  0.4292940000000  0.5509880000000  0.5248660000000 1.0
C      1  0.4775290000000  0.4965820000000  0.6030020000000 1.0
C      1  0.4304040000000  0.5189640000000  0.5958190000000 1.0
C      1  0.5031630000000  0.4948090000000  0.5314960000000 1.0
C      1  0.4661370000000  0.4560600000000  0.4484070000000 1.0
C      1  0.4759090000000  0.5662340000000  0.4657480000000 1.0
C      1  0.5189470000000  0.4680940000000  0.4301770000000 1.0
C      1  0.5430870000000  0.5161060000000  0.5498860000000 1.0
C      1  0.5291680000000  0.5174610000000  0.6127230000000 1.0
C      1  0.5030940000000  0.4335500000000  0.5290770000000 1.0
C      1  0.6016550000000  0.5080490000000  0.5533850000000 1.0
C      1  0.4518200000000  0.5021930000000  0.5869460000000 1.0
C      1  0.5759600000000  0.4910660000000  0.4350760000000 1.0
C      1  0.5251440000000  0.4460900000000  0.4517510000000 1.0
C      1  0.4468550000000  0.5702180000000  0.4490440000000 1.0
C      1  0.5634820000000  0.5468840000000  0.5792380000000 1.0
C      1  0.5588010000000  0.4387100000000  0.4865690000000 1.0
C      1  0.4974110000000  0.5132240000000  0.6245680000000 1.0
C      1  0.4723190000000  0.5042030000000  0.5309790000000 1.0
C      1  0.5176300000000  0.5603260000000  0.4244250000000 1.0
C      1  0.5292240000000  0.4175660000000  0.4405500000000 1.0
C      1  0.5757610000000  0.5139310000000  0.5129540000000 1.0
C      1  0.4175840000000  0.4713740000000  0.5528580000000 1.0
C      1  0.5077800000000  0.5259370000000  0.5340980000000 1.0
C      1  0.5361430000000  0.4470120000000  0.4094230000000 1.0
C      1  0.5164310000000  0.4884030000000  0.6004110000000 1.0
C      1  0.6021490000000  0.5221140000000  0.4614330000000 1.0
C      1  0.4509940000000  0.4036530000000  0.4452220000000 1.0
C      1  0.4556770000000  0.4405140000000  0.5738150000000 1.0
C      1  0.4665720000000  0.4657720000000  0.5935460000000 1.0
C      1  0.4449940000000  0.5041200000000  0.5100590000000 1.0
C      1  0.5101650000000  0.5424620000000  0.6001230000000 1.0
C      1  0.4645430000000  0.5450380000000  0.5695940000000 1.0
C      1  0.4346690000000  0.4159990000000  0.4944580000000 1.0
C      1  0.5808080000000  0.4325290000000  0.5284370000000 1.0
C      1  0.5609020000000  0.5071990000000  0.5752600000000 1.0
C      1  0.5948560000000  0.4757410000000  0.4864370000000 1.0
C      1  0.5375480000000  0.4849770000000  0.4756360000000 1.0
C      1  0.5496000000000  0.5172720000000  0.3958070000000 1.0
C      1  0.5200650000000  0.4710090000000  0.3906060000000 1.0
C      1  0.4213050000000  0.5773230000000  0.4851750000000 1.0
C      1  0.5872430000000  0.4595050000000  0.5128330000000 1.0
C      1  0.5562160000000  0.5525400000000  0.5122100000000 1.0
C      1  0.4504560000000  0.5557050000000  0.5019320000000 1.0
C      1  0.4802250000000  0.5526190000000  0.4362740000000 1.0
C      1  0.4707030000000  0.4144960000000  0.5646030000000 1.0
C      1  0.4146530000000  0.5256770000000  0.4402060000000 1.0
C      1  0.5157000000000  0.4050120000000  0.4759390000000 1.0
C      1  0.4407550000000  0.4479630000000  0.5439240000000 1.0
C      1  0.4421350000000  0.5424030000000  0.4300260000000 1.0
C      1  0.5794510000000  0.4632680000000  0.5710280000000 1.0
C      1  0.4262020000000  0.5869240000000  0.5077230000000 1.0
C      1  0.4551670000000  0.5012530000000  0.5597680000000 1.0
C      1  0.4352970000000  0.5005110000000  0.4637630000000 1.0
C      1  0.5490790000000  0.4486720000000  0.5106360000000 1.0
C      1  0.5421390000000  0.4636560000000  0.5567220000000 1.0
C      1  0.5646470000000  0.4102930000000  0.5166570000000 1.0
C      1  0.5842100000000  0.4912000000000  0.5686360000000 1.0
C      1  0.5154190000000  0.5660660000000  0.4636140000000 1.0
C      1  0.4878270000000  0.4183450000000  0.4145190000000 1.0
C      1  0.4708650000000  0.4740520000000  0.3794420000000 1.0
C      1  0.4629810000000  0.5335180000000  0.5374970000000 1.0
C      1  0.5241710000000  0.5732350000000  0.5259340000000 1.0
C      1  0.4613250000000  0.4453320000000  0.4987800000000 1.0
C      1  0.4185390000000  0.4412590000000  0.4780870000000 1.0
C      1  0.5104740000000  0.4538340000000  0.5045850000000 1.0
C      1  0.5348550000000  0.4928980000000  0.4437160000000 1.0
C      1  0.4976130000000  0.4603630000000  0.5999870000000 1.0
C      1  0.4124020000000  0.4687420000000  0.4582750000000 1.0
C      1  0.5670480000000  0.5383140000000  0.4155880000000 1.0
C      1  0.4779980000000  0.4866550000000  0.4581500000000 1.0
C      1  0.5458300000000  0.5679290000000  0.4884580000000 1.0
C      1  0.4654330000000  0.4998500000000  0.3882890000000 1.0
C      1  0.5715590000000  0.4617560000000  0.4462220000000 1.0
C      1  0.4605000000000  0.4121370000000  0.4206760000000 1.0
C      1  0.5272710000000  0.5380760000000  0.4485210000000 1.0
C      1  0.4888670000000  0.6128940000000  0.5254720000000 1.0
C      1  0.5728380000000  0.4382070000000  0.5556460000000 1.0
C      1  0.4160150000000  0.5256990000000  0.5715020000000 1.0
C      1  0.5735560000000  0.4949920000000  0.4680910000000 1.0
C      1  0.4650540000000  0.5426290000000  0.4078340000000 1.0
C      1  0.5347250000000  0.5439810000000  0.5322460000000 1.0
C      1  0.4152820000000  0.4920970000000  0.4326500000000 1.0
C      1  0.5487710000000  0.5200290000000  0.4374030000000 1.0
C      1  0.4634210000000  0.5532870000000  0.5983160000000 1.0
C      1  0.4749220000000  0.5948270000000  0.5443680000000 1.0
C      1  0.4871370000000  0.4070200000000  0.4616050000000 1.0
C      1  0.5643140000000  0.5228310000000  0.4827360000000 1.0
C      1  0.4651100000000  0.5355960000000  0.4880820000000 1.0
C      1  0.4409410000000  0.5412200000000  0.6109650000000 1.0
C      1  0.4841670000000  0.3987810000000  0.5004190000000 1.0
C      1  0.6009640000000  0.5095000000000  0.4901770000000 1.0
C      1  0.4320460000000  0.4543170000000  0.5032720000000 1.0
C      1  0.5615350000000  0.4692760000000  0.5331930000000 1.0
C      1  0.3998680000000  0.5195660000000  0.4668530000000 1.0
C      1  0.4947160000000  0.5741370000000  0.5133110000000 1.0
C      1  0.5499030000000  0.4576350000000  0.4649510000000 1.0
C      1  0.4920960000000  0.4590270000000  0.5605000000000 1.0
C      1  0.4738390000000  0.5915200000000  0.4450370000000 1.0
C      1  0.4804650000000  0.4632230000000  0.5148760000000 1.0
C      1  0.4945700000000  0.5355320000000  0.5616970000000 1.0
C      1  0.4929940000000  0.6102510000000  0.4665760000000 1.0
C      1  0.5242950000000  0.4184680000000  0.5397020000000 1.0
C      1  0.4358950000000  0.4666370000000  0.5786830000000 1.0
C      1  0.5034840000000  0.4424200000000  0.3999660000000 1.0
C      1  0.4679620000000  0.4894070000000  0.4264150000000 1.0
C      1  0.4349080000000  0.5421020000000  0.5547580000000 1.0
C      1  0.4749030000000  0.4370680000000  0.4708740000000 1.0
C      1  0.5653400000000  0.4757880000000  0.4096000000000 1.0
C      1  0.4967620000000  0.5523400000000  0.4000320000000 1.0
C      1  0.4617570000000  0.3766870000000  0.5339570000000 1.0
C      1  0.4947740000000  0.4811790000000  0.4110780000000 1.0
C      1  0.4560250000000  0.4518210000000  0.4200960000000 1.0
C      1  0.5999280000000  0.4541160000000  0.4605490000000 1.0
C      1  0.5138810000000  0.4748380000000  0.5516190000000 1.0
C      1  0.4319930000000  0.4670070000000  0.4165340000000 1.0
C      1  0.5438820000000  0.4013540000000  0.4612600000000 1.0
C      1  0.5257800000000  0.4345010000000  0.5884070000000 1.0
C      1  0.4651640000000  0.5819220000000  0.5005260000000 1.0
C      1  0.3995510000000  0.4896330000000  0.4779470000000 1.0
C      1  0.4580780000000  0.4016000000000  0.4784600000000 1.0
C      1  0.5478470000000  0.5699230000000  0.5594810000000 1.0
C      1  0.3970780000000  0.5118090000000  0.5240720000000 1.0
C      1  0.5522490000000  0.4987530000000  0.5257390000000 1.0
C      1  0.5333290000000  0.4779840000000  0.5065290000000 1.0
C      1  0.5032870000000  0.4077680000000  0.4351880000000 1.0
C      1  0.5493400000000  0.5955750000000  0.4930470000000 1.0
C      1  0.5817300000000  0.5564010000000  0.4635150000000 1.0
C      1  0.5172740000000  0.6064710000000  0.5188550000000 1.0
C      1  0.4151680000000  0.4680030000000  0.5206340000000 1.0
C      1  0.4047080000000  0.5378730000000  0.5140840000000 1.0
C      1  0.4336070000000  0.5051610000000  0.5395010000000 1.0
C      1  0.5831950000000  0.5216060000000  0.4401110000000 1.0
C      1  0.5415670000000  0.4300170000000  0.5606460000000 1.0
C      1  0.5299380000000  0.4605040000000  0.6100020000000 1.0
C      1  0.4796470000000  0.4233110000000  0.5150730000000 1.0
C      1  0.4191370000000  0.5538350000000  0.4603950000000 1.0
C      1  0.4408410000000  0.4211540000000  0.5243510000000 1.0
C      1  0.5292140000000  0.5965130000000  0.5492510000000 1.0
C      1  0.4729740000000  0.4510490000000  0.3969850000000 1.0
C      1  0.5321450000000  0.5366240000000  0.5746440000000 1.0
C      1  0.5646130000000  0.4128960000000  0.4767470000000 1.0
C      1  0.4041380000000  0.5026330000000  0.5536280000000 1.0
C      1  0.4443910000000  0.5832050000000  0.5339620000000 1.0
C      1  0.4653530000000  0.6027540000000  0.4830230000000 1.0
C      1  0.5094870000000  0.5066540000000  0.4253170000000 1.0
C      1  0.5132400000000  0.5029860000000  0.4819950000000 1.0
C      1  0.5664050000000  0.5605990000000  0.4412600000000 1.0
C      1  0.5530640000000  0.4561790000000  0.5882230000000 1.0
C      1  0.5965010000000  0.4344420000000  0.4336420000000 1.0
C      1  0.5674310000000  0.4435010000000  0.4179930000000 1.0
C      1  0.5758300000000  0.5538360000000  0.5483020000000 1.0
C      1  0.5381530000000  0.5377500000000  0.4798640000000 1.0
C      1  0.4441490000000  0.4692500000000  0.4683150000000 1.0
C      1  0.5151470000000  0.5287130000000  0.5010200000000 1.0
C      1  0.5572190000000  0.5218680000000  0.6015690000000 1.0
C      1  0.5456970000000  0.4899290000000  0.3948050000000 1.0
C      1  0.4578610000000  0.4025890000000  0.5413340000000 1.0
C      1  0.4945880000000  0.4334340000000  0.5793020000000 1.0
C      1  0.4947510000000  0.5883560000000  0.5957680000000 1.0
C      1  0.4755390000000  0.5276140000000  0.4567070000000 1.0
C      1  0.5070180000000  0.4379930000000  0.4769520000000 1.0
C      1  0.4001870000000  0.5440070000000  0.4871700000000 1.0
C      1  0.5146020000000  0.5623550000000  0.5631780000000 1.0
C      1  0.5214140000000  0.6136890000000  0.4860120000000 1.0
C      1  0.5894650000000  0.5444980000000  0.4916280000000 1.0
C      1  0.4236880000000  0.5119240000000  0.4903950000000 1.0
C      1  0.4937510000000  0.4897240000000  0.5006080000000 1.0
C      1  0.4907690000000  0.5802490000000  0.4191800000000 1.0
C      1  0.4892510000000  0.5630100000000  0.6051770000000 1.0
C      1  0.5729210000000  0.5957140000000  0.5090420000000 1.0
END
