TITL C-2778434-4341-473 -0.000155306628034562 125000 -769.742271121624 0 0 134 (C1) n - 1
REM
REM in /home/nfs/bkarasulu/CARBON/AIRSS/Generating-Clusters/REBO/Only-C1/SD-CG/HFTN-CG
REM
REM
REM
REM
REM
REM ./C.cell (11c1c37f851c82e70ff6c80c92926a4b)
REM
REM compiler GCC version 9.2.1 20190827 (Red Hat 9.2.1-1)
REM options -cpp -mtune=generic -march=x86-64 -g -O0 -fpre-include=/usr/include/finclude/math-vector-fortran.h
REM seed -2036933822 -1956960020 -805837217 399609642 894423316 -2114925517 1496544201 1315582956 -1951838828 -1447088962 1977300428 25970384 230176582 533950755 -513074881 -847677541 1259575449 1646702607 -690980792 1876928467 441700316 -1969806660 -1783392471 1535149121 -902560390 -63393875 156374500 -739980189 1630552713 1697834908 1079527800 322430454 -672118266
REM
CELL 1.54180   50.00000   50.00000   50.00000   90.00000   90.00000   90.00000
LATT -1
SFAC C  
C      1  0.4208750000000  0.5152990000000  0.4835030000000 1.0
C      1  0.4298560000000  0.5036750000000  0.5771820000000 1.0
C      1  0.5400600000000  0.5784790000000  0.5377390000000 1.0
C      1  0.4733000000000  0.3982830000000  0.5146100000000 1.0
C      1  0.4433080000000  0.5520220000000  0.5553940000000 1.0
C      1  0.5719140000000  0.4846190000000  0.4395800000000 1.0
C      1  0.4805700000000  0.5056900000000  0.4281440000000 1.0
C      1  0.4613310000000  0.4327640000000  0.5451830000000 1.0
C      1  0.5969740000000  0.5317400000000  0.5116340000000 1.0
C      1  0.4786970000000  0.4508600000000  0.4208340000000 1.0
C      1  0.5588130000000  0.4925980000000  0.4938470000000 1.0
C      1  0.5209200000000  0.4240030000000  0.5522540000000 1.0
C      1  0.5438650000000  0.4323470000000  0.5690480000000 1.0
C      1  0.5826850000000  0.4902900000000  0.5253940000000 1.0
C      1  0.4642500000000  0.5224380000000  0.5850110000000 1.0
C      1  0.5324500000000  0.5817730000000  0.4439320000000 1.0
C      1  0.4935490000000  0.4418000000000  0.4979170000000 1.0
C      1  0.4390850000000  0.5608820000000  0.5065450000000 1.0
C      1  0.5847560000000  0.4656180000000  0.4647420000000 1.0
C      1  0.5625170000000  0.5758370000000  0.4895890000000 1.0
C      1  0.5532740000000  0.5800260000000  0.4571440000000 1.0
C      1  0.4542490000000  0.4858230000000  0.5378310000000 1.0
C      1  0.4829260000000  0.5331820000000  0.4570580000000 1.0
C      1  0.5617230000000  0.4156810000000  0.5199970000000 1.0
C      1  0.5434480000000  0.4777390000000  0.5667380000000 1.0
C      1  0.5104130000000  0.5430600000000  0.4867260000000 1.0
C      1  0.5321030000000  0.4839260000000  0.4432600000000 1.0
C      1  0.4561670000000  0.5351020000000  0.5170340000000 1.0
C      1  0.4862920000000  0.5236910000000  0.5630430000000 1.0
C      1  0.5358750000000  0.5309350000000  0.5169800000000 1.0
C      1  0.5160310000000  0.5104160000000  0.4796480000000 1.0
C      1  0.4350910000000  0.5095930000000  0.4055390000000 1.0
C      1  0.5041620000000  0.5730490000000  0.4343710000000 1.0
C      1  0.4392900000000  0.5069250000000  0.5073340000000 1.0
C      1  0.5899280000000  0.5054900000000  0.4957290000000 1.0
C      1  0.4572100000000  0.4921480000000  0.4143150000000 1.0
C      1  0.5507560000000  0.4608410000000  0.4273680000000 1.0
C      1  0.5594730000000  0.4625020000000  0.5086240000000 1.0
C      1  0.5705500000000  0.5210210000000  0.5489160000000 1.0
C      1  0.5487570000000  0.4963170000000  0.5264740000000 1.0
C      1  0.4658790000000  0.4296980000000  0.4850260000000 1.0
C      1  0.4847530000000  0.4239380000000  0.4379870000000 1.0
C      1  0.5084570000000  0.5179810000000  0.5177760000000 1.0
C      1  0.4854210000000  0.5330420000000  0.4117890000000 1.0
C      1  0.4746760000000  0.4474470000000  0.5795690000000 1.0
C      1  0.4732710000000  0.5457920000000  0.5445090000000 1.0
C      1  0.5120580000000  0.4590240000000  0.4512160000000 1.0
C      1  0.5258320000000  0.5661510000000  0.5013950000000 1.0
C      1  0.5047820000000  0.4904030000000  0.4982820000000 1.0
C      1  0.5652940000000  0.5665330000000  0.5209840000000 1.0
C      1  0.4524540000000  0.5904770000000  0.5126320000000 1.0
C      1  0.4161300000000  0.4943570000000  0.4663160000000 1.0
C      1  0.5162060000000  0.5742190000000  0.5602220000000 1.0
C      1  0.4296780000000  0.5031960000000  0.5494920000000 1.0
C      1  0.4442700000000  0.5410830000000  0.5817700000000 1.0
C      1  0.4351820000000  0.5154120000000  0.4381830000000 1.0
C      1  0.4740850000000  0.5829300000000  0.4258870000000 1.0
C      1  0.5451920000000  0.4303570000000  0.4415770000000 1.0
C      1  0.4846020000000  0.5352710000000  0.5024010000000 1.0
C      1  0.5159770000000  0.5287610000000  0.5710570000000 1.0
C      1  0.4573160000000  0.4937380000000  0.5945830000000 1.0
C      1  0.4568520000000  0.4722530000000  0.4795440000000 1.0
C      1  0.5708520000000  0.4426470000000  0.5338060000000 1.0
C      1  0.4532040000000  0.5422990000000  0.4487520000000 1.0
C      1  0.3932880000000  0.5144410000000  0.5178300000000 1.0
C      1  0.4835860000000  0.5665470000000  0.4609880000000 1.0
C      1  0.5156200000000  0.6079930000000  0.4731690000000 1.0
C      1  0.5194930000000  0.4480630000000  0.5276880000000 1.0
C      1  0.5306980000000  0.4798390000000  0.5945620000000 1.0
C      1  0.4912490000000  0.4489870000000  0.5435480000000 1.0
C      1  0.5471440000000  0.4189040000000  0.4726520000000 1.0
C      1  0.5003070000000  0.4711730000000  0.4228510000000 1.0
C      1  0.4543930000000  0.4171120000000  0.5212870000000 1.0
C      1  0.5348780000000  0.5958250000000  0.4887710000000 1.0
C      1  0.4781830000000  0.5027100000000  0.5244000000000 1.0
C      1  0.4958920000000  0.6049920000000  0.5075500000000 1.0
C      1  0.5393350000000  0.4590910000000  0.4841820000000 1.0
C      1  0.4977530000000  0.4966710000000  0.5493850000000 1.0
C      1  0.6020550000000  0.5083500000000  0.4678330000000 1.0
C      1  0.5500560000000  0.5444590000000  0.4913340000000 1.0
C      1  0.5208050000000  0.5545920000000  0.5786400000000 1.0
C      1  0.4602060000000  0.4721420000000  0.5070740000000 1.0
C      1  0.4138070000000  0.5417720000000  0.4422780000000 1.0
C      1  0.5322650000000  0.4326740000000  0.5000610000000 1.0
C      1  0.5779270000000  0.5417640000000  0.5301260000000 1.0
C      1  0.5007310000000  0.4088760000000  0.5029280000000 1.0
C      1  0.4399160000000  0.4336870000000  0.5014930000000 1.0
C      1  0.4923380000000  0.4135910000000  0.4701430000000 1.0
C      1  0.4231650000000  0.4558890000000  0.4935120000000 1.0
C      1  0.4544430000000  0.5686220000000  0.4325830000000 1.0
C      1  0.4630210000000  0.4406790000000  0.4560020000000 1.0
C      1  0.5727690000000  0.4878840000000  0.5572300000000 1.0
C      1  0.5150110000000  0.4275920000000  0.4506010000000 1.0
C      1  0.5460400000000  0.5315910000000  0.4644130000000 1.0
C      1  0.4430580000000  0.4848150000000  0.4509470000000 1.0
C      1  0.5887030000000  0.4458010000000  0.4872090000000 1.0
C      1  0.5085770000000  0.5479080000000  0.4161770000000 1.0
C      1  0.5402730000000  0.5467300000000  0.5441960000000 1.0
C      1  0.5377810000000  0.5146890000000  0.5531650000000 1.0
C      1  0.5621700000000  0.5171860000000  0.4380920000000 1.0
C      1  0.5102480000000  0.5850410000000  0.5225140000000 1.0
C      1  0.5244530000000  0.4790290000000  0.5409300000000 1.0
C      1  0.5136470000000  0.5013430000000  0.4222110000000 1.0
C      1  0.4158870000000  0.4544320000000  0.4660610000000 1.0
C      1  0.4682830000000  0.5949440000000  0.5346500000000 1.0
C      1  0.5429540000000  0.4991950000000  0.4681080000000 1.0
C      1  0.4825940000000  0.4680210000000  0.4585330000000 1.0
C      1  0.5159770000000  0.5407000000000  0.4543810000000 1.0
C      1  0.4196930000000  0.4657190000000  0.5385960000000 1.0
C      1  0.5929060000000  0.4600660000000  0.5159550000000 1.0
C      1  0.4513530000000  0.4636900000000  0.4254570000000 1.0
C      1  0.5935130000000  0.5174240000000  0.4461790000000 1.0
C      1  0.4550000000000  0.4735160000000  0.5700340000000 1.0
C      1  0.4855370000000  0.5959310000000  0.4775090000000 1.0
C      1  0.4387520000000  0.4525300000000  0.5532250000000 1.0
C      1  0.4270560000000  0.5389620000000  0.4699620000000 1.0
C      1  0.4886200000000  0.4213250000000  0.5627800000000 1.0
C      1  0.4696450000000  0.5079070000000  0.4916220000000 1.0
C      1  0.5092740000000  0.4643040000000  0.4926210000000 1.0
C      1  0.4237160000000  0.5494960000000  0.5346850000000 1.0
C      1  0.4214240000000  0.4782960000000  0.5128980000000 1.0
C      1  0.4331630000000  0.4464620000000  0.4467270000000 1.0
C      1  0.5701730000000  0.4224710000000  0.4916670000000 1.0
C      1  0.4137170000000  0.5222790000000  0.5339410000000 1.0
C      1  0.5035560000000  0.4769370000000  0.5952950000000 1.0
C      1  0.5282510000000  0.4094810000000  0.5232210000000 1.0
C      1  0.4818910000000  0.4836940000000  0.6108220000000 1.0
C      1  0.4886330000000  0.5720320000000  0.5436600000000 1.0
C      1  0.5319510000000  0.5273220000000  0.4274440000000 1.0
C      1  0.5548130000000  0.4559750000000  0.4603570000000 1.0
C      1  0.4944670000000  0.4715010000000  0.5661700000000 1.0
C      1  0.4590620000000  0.5756540000000  0.4829580000000 1.0
C      1  0.4782800000000  0.5009030000000  0.4617880000000 1.0
C      1  0.5646600000000  0.4542800000000  0.5611740000000 1.0
END
