TITL C-2778428-5639-441 0.000936416788440758 125000 -839.27328142904 0 0 144 (C1) n - 1
REM
REM in /home/nfs/bkarasulu/CARBON/AIRSS/Generating-Clusters/REBO/Only-C1/SD-CG/HFTN-CG
REM
REM
REM
REM
REM
REM ./C.cell (11c1c37f851c82e70ff6c80c92926a4b)
REM
REM compiler GCC version 9.2.1 20190827 (Red Hat 9.2.1-1)
REM options -cpp -mtune=generic -march=x86-64 -g -O0 -fpre-include=/usr/include/finclude/math-vector-fortran.h
REM seed -1000399147 626807786 -2000590922 -646380898 -1689450775 370244039 133715675 -1920234894 652231214 -620977552 -1790700113 2299590 2145147436 481980270 -1542053487 908856986 2081350008 1080525915 -1772570788 265971408 777362894 741812910 2059982463 574474402 -2026893681 -1318656666 223368837 1609284773 1152677202 1649076827 244099141 474521436 1203879443
REM
CELL 1.54180   50.00000   50.00000   50.00000   90.00000   90.00000   90.00000
LATT -1
SFAC C  
C      1  0.5012140000000  0.5450970000000  0.4916350000000 1.0
C      1  0.4357670000000  0.5151850000000  0.4776560000000 1.0
C      1  0.4264120000000  0.5041830000000  0.5663760000000 1.0
C      1  0.5622590000000  0.4378530000000  0.4366890000000 1.0
C      1  0.5558580000000  0.4154360000000  0.4968550000000 1.0
C      1  0.4891940000000  0.5289730000000  0.5951450000000 1.0
C      1  0.5029730000000  0.4742020000000  0.4351700000000 1.0
C      1  0.4725800000000  0.4120230000000  0.4432310000000 1.0
C      1  0.5096040000000  0.5370110000000  0.5432230000000 1.0
C      1  0.4606140000000  0.4771860000000  0.4981620000000 1.0
C      1  0.4848120000000  0.5484070000000  0.4497480000000 1.0
C      1  0.4633520000000  0.4878500000000  0.5971850000000 1.0
C      1  0.5179470000000  0.5461200000000  0.4274840000000 1.0
C      1  0.5225290000000  0.4796280000000  0.5360730000000 1.0
C      1  0.5036790000000  0.5223190000000  0.4261130000000 1.0
C      1  0.4819440000000  0.4302530000000  0.4822500000000 1.0
C      1  0.4769220000000  0.5512390000000  0.4192880000000 1.0
C      1  0.4180520000000  0.4681590000000  0.4777790000000 1.0
C      1  0.4531870000000  0.4334590000000  0.4310410000000 1.0
C      1  0.4356700000000  0.4577350000000  0.5729290000000 1.0
C      1  0.4197940000000  0.5668500000000  0.4737430000000 1.0
C      1  0.5755250000000  0.4755790000000  0.5399530000000 1.0
C      1  0.5190290000000  0.5705500000000  0.4439270000000 1.0
C      1  0.5038510000000  0.5501980000000  0.5737410000000 1.0
C      1  0.5048820000000  0.5825310000000  0.4656950000000 1.0
C      1  0.5630440000000  0.4648950000000  0.5675150000000 1.0
C      1  0.5752150000000  0.5285840000000  0.4960240000000 1.0
C      1  0.4684240000000  0.4525570000000  0.5391450000000 1.0
C      1  0.6151000000000  0.5248450000000  0.4939560000000 1.0
C      1  0.4858200000000  0.4058290000000  0.5154510000000 1.0
C      1  0.5242890000000  0.4385660000000  0.5045530000000 1.0
C      1  0.5832270000000  0.4692460000000  0.4868100000000 1.0
C      1  0.4380540000000  0.5458030000000  0.5093040000000 1.0
C      1  0.4756390000000  0.4369020000000  0.5151380000000 1.0
C      1  0.4746980000000  0.5196910000000  0.4113530000000 1.0
C      1  0.4962690000000  0.4747780000000  0.4801990000000 1.0
C      1  0.5213030000000  0.5212430000000  0.4856170000000 1.0
C      1  0.4816290000000  0.5672640000000  0.4845940000000 1.0
C      1  0.5157440000000  0.4998180000000  0.4423340000000 1.0
C      1  0.4888500000000  0.4570510000000  0.5660130000000 1.0
C      1  0.4660190000000  0.5937470000000  0.4996180000000 1.0
C      1  0.5968120000000  0.5197900000000  0.5209340000000 1.0
C      1  0.4665430000000  0.5841040000000  0.5607330000000 1.0
C      1  0.4039490000000  0.5157550000000  0.4539450000000 1.0
C      1  0.5947520000000  0.4876750000000  0.5231740000000 1.0
C      1  0.4357640000000  0.5660090000000  0.5283790000000 1.0
C      1  0.5167520000000  0.4405840000000  0.5750980000000 1.0
C      1  0.5225290000000  0.4394280000000  0.4363580000000 1.0
C      1  0.5300080000000  0.5595820000000  0.4966190000000 1.0
C      1  0.4598510000000  0.5236410000000  0.5153720000000 1.0
C      1  0.4593290000000  0.4795400000000  0.5291590000000 1.0
C      1  0.4995550000000  0.4162600000000  0.5586610000000 1.0
C      1  0.5986720000000  0.4950940000000  0.4898770000000 1.0
C      1  0.5507030000000  0.4931180000000  0.5421940000000 1.0
C      1  0.4406830000000  0.4642780000000  0.4254770000000 1.0
C      1  0.4715940000000  0.4225040000000  0.5571830000000 1.0
C      1  0.5504010000000  0.5251640000000  0.4742920000000 1.0
C      1  0.5498400000000  0.4949190000000  0.4183630000000 1.0
C      1  0.5695240000000  0.5858860000000  0.4817240000000 1.0
C      1  0.4768170000000  0.4519750000000  0.4141870000000 1.0
C      1  0.5532140000000  0.4238390000000  0.5455400000000 1.0
C      1  0.4732070000000  0.5072370000000  0.4887300000000 1.0
C      1  0.5466200000000  0.4411770000000  0.5664890000000 1.0
C      1  0.5635490000000  0.4380540000000  0.5193310000000 1.0
C      1  0.4480520000000  0.5628650000000  0.5722490000000 1.0
C      1  0.5336730000000  0.3929840000000  0.4451160000000 1.0
C      1  0.5604950000000  0.4719260000000  0.4387790000000 1.0
C      1  0.4925240000000  0.4954300000000  0.5138130000000 1.0
C      1  0.4266180000000  0.5550030000000  0.5530190000000 1.0
C      1  0.4490870000000  0.5054630000000  0.4257220000000 1.0
C      1  0.5472900000000  0.5828970000000  0.5312980000000 1.0
C      1  0.5570490000000  0.5184650000000  0.5517990000000 1.0
C      1  0.4593550000000  0.4429120000000  0.5766110000000 1.0
C      1  0.5784740000000  0.4539160000000  0.4607680000000 1.0
C      1  0.5750600000000  0.5357090000000  0.5352600000000 1.0
C      1  0.4468600000000  0.5410180000000  0.4597830000000 1.0
C      1  0.4385880000000  0.4838000000000  0.5847320000000 1.0
C      1  0.4511400000000  0.5712840000000  0.4697410000000 1.0
C      1  0.4917800000000  0.4364420000000  0.4402280000000 1.0
C      1  0.4358710000000  0.4491230000000  0.4558900000000 1.0
C      1  0.5440360000000  0.4649290000000  0.5135140000000 1.0
C      1  0.4046610000000  0.5028790000000  0.5171860000000 1.0
C      1  0.5723080000000  0.5630310000000  0.4591620000000 1.0
C      1  0.5400460000000  0.5348320000000  0.5690350000000 1.0
C      1  0.5047430000000  0.4657960000000  0.5101780000000 1.0
C      1  0.4874760000000  0.4980130000000  0.5894920000000 1.0
C      1  0.4958630000000  0.5796420000000  0.5647920000000 1.0
C      1  0.5742810000000  0.5675070000000  0.5408950000000 1.0
C      1  0.4591980000000  0.5859520000000  0.5281450000000 1.0
C      1  0.4694360000000  0.5997660000000  0.4655480000000 1.0
C      1  0.5105300000000  0.4561860000000  0.4101990000000 1.0
C      1  0.5199820000000  0.5210890000000  0.5870860000000 1.0
C      1  0.4148720000000  0.5250240000000  0.5419930000000 1.0
C      1  0.4087500000000  0.4862050000000  0.5459660000000 1.0
C      1  0.5436600000000  0.5393290000000  0.4444330000000 1.0
C      1  0.5112020000000  0.4275420000000  0.4775610000000 1.0
C      1  0.4940570000000  0.5277900000000  0.5155850000000 1.0
C      1  0.5136470000000  0.4682760000000  0.5947570000000 1.0
C      1  0.4187520000000  0.4590120000000  0.5488370000000 1.0
C      1  0.5090540000000  0.4991860000000  0.4731140000000 1.0
C      1  0.5377180000000  0.5517100000000  0.5410180000000 1.0
C      1  0.4085370000000  0.4712270000000  0.5046850000000 1.0
C      1  0.5188300000000  0.6001210000000  0.5093860000000 1.0
C      1  0.4419460000000  0.5060090000000  0.5358030000000 1.0
C      1  0.4045790000000  0.5177140000000  0.4880490000000 1.0
C      1  0.5457650000000  0.4961060000000  0.4580030000000 1.0
C      1  0.5192560000000  0.3984260000000  0.4679720000000 1.0
C      1  0.5495260000000  0.4725240000000  0.4808090000000 1.0
C      1  0.5353440000000  0.4478080000000  0.4645470000000 1.0
C      1  0.5397930000000  0.5632380000000  0.4681890000000 1.0
C      1  0.5509550000000  0.5934580000000  0.5002970000000 1.0
C      1  0.4184440000000  0.4496520000000  0.5215770000000 1.0
C      1  0.5622970000000  0.5204590000000  0.4266880000000 1.0
C      1  0.4754110000000  0.5785550000000  0.4394890000000 1.0
C      1  0.4161320000000  0.5466020000000  0.4917380000000 1.0
C      1  0.5173200000000  0.5936800000000  0.5433290000000 1.0
C      1  0.5406040000000  0.4143290000000  0.4294410000000 1.0
C      1  0.4530900000000  0.4478640000000  0.4841630000000 1.0
C      1  0.4814310000000  0.4647450000000  0.4551600000000 1.0
C      1  0.4807640000000  0.5022990000000  0.5432390000000 1.0
C      1  0.5829920000000  0.5381560000000  0.4468670000000 1.0
C      1  0.5282830000000  0.4919070000000  0.5923080000000 1.0
C      1  0.5604430000000  0.4260800000000  0.4691590000000 1.0
C      1  0.5249560000000  0.4868250000000  0.4048380000000 1.0
C      1  0.4575940000000  0.4102480000000  0.4968910000000 1.0
C      1  0.4427920000000  0.4867890000000  0.4730730000000 1.0
C      1  0.4806690000000  0.5613560000000  0.5314720000000 1.0
C      1  0.5537130000000  0.5482820000000  0.5123400000000 1.0
C      1  0.4949540000000  0.4949870000000  0.3993440000000 1.0
C      1  0.5936470000000  0.5212180000000  0.4684140000000 1.0
C      1  0.4654170000000  0.4810390000000  0.4086970000000 1.0
C      1  0.4354260000000  0.4322060000000  0.5073760000000 1.0
C      1  0.4761890000000  0.5333730000000  0.5504370000000 1.0
C      1  0.5330410000000  0.4127730000000  0.5222760000000 1.0
C      1  0.5553680000000  0.4857800000000  0.5856490000000 1.0
C      1  0.5006310000000  0.4860740000000  0.5614130000000 1.0
C      1  0.5070840000000  0.4035620000000  0.5340530000000 1.0
C      1  0.4280500000000  0.5234460000000  0.4396960000000 1.0
C      1  0.4652770000000  0.5406190000000  0.5781250000000 1.0
C      1  0.5085330000000  0.5703910000000  0.5212440000000 1.0
C      1  0.4957470000000  0.6044720000000  0.4877370000000 1.0
C      1  0.4749900000000  0.5253460000000  0.4659320000000 1.0
C      1  0.5890900000000  0.4511060000000  0.5084090000000 1.0
C      1  0.4572600000000  0.4817590000000  0.4478480000000 1.0
END
