TITL C-2778425-5191-1384 0.00181800364315153 125000 -677.342297970376 0 0 118 (C1) n - 1
REM
REM in /home/nfs/bkarasulu/CARBON/AIRSS/Generating-Clusters/REBO/Only-C1/SD-CG/HFTN-CG
REM
REM
REM
REM
REM
REM ./C.cell (11c1c37f851c82e70ff6c80c92926a4b)
REM
REM compiler GCC version 9.2.1 20190827 (Red Hat 9.2.1-1)
REM options -cpp -mtune=generic -march=x86-64 -g -O0 -fpre-include=/usr/include/finclude/math-vector-fortran.h
REM seed -1843898686 1476764220 -479763605 829394030 127256394 -2142008267 1585599446 1109174495 -986731385 -1272406882 -828519474 -859195598 -1091440672 -2003586122 -2121491588 -1077495154 131755866 -281226692 492738773 -1570151005 -1558305207 73955080 -116767653 541749521 1551195805 873863726 48270162 -2138682419 1767155112 -1427688074 -593247297 -711679869 1125843298
REM
CELL 1.54180   50.00000   50.00000   50.00000   90.00000   90.00000   90.00000
LATT -1
SFAC C  
C      1  0.5434710000000  0.4235560000000  0.4570450000000 1.0
C      1  0.4297860000000  0.5674060000000  0.4667710000000 1.0
C      1  0.3979210000000  0.5279630000000  0.5712070000000 1.0
C      1  0.4677610000000  0.4394130000000  0.5096710000000 1.0
C      1  0.4985830000000  0.5253990000000  0.4096650000000 1.0
C      1  0.5069460000000  0.4048630000000  0.5280240000000 1.0
C      1  0.4255070000000  0.5116980000000  0.5732640000000 1.0
C      1  0.4369430000000  0.4821230000000  0.5691950000000 1.0
C      1  0.4685830000000  0.4128160000000  0.5301170000000 1.0
C      1  0.5215930000000  0.5424950000000  0.4375490000000 1.0
C      1  0.5099810000000  0.4297050000000  0.5754180000000 1.0
C      1  0.5083640000000  0.5281330000000  0.5187720000000 1.0
C      1  0.4912830000000  0.4230050000000  0.5524710000000 1.0
C      1  0.4523650000000  0.4766890000000  0.4833960000000 1.0
C      1  0.5680210000000  0.4708770000000  0.5466200000000 1.0
C      1  0.5284100000000  0.5349420000000  0.5770220000000 1.0
C      1  0.4814820000000  0.5092950000000  0.4808390000000 1.0
C      1  0.4336580000000  0.5814770000000  0.5211490000000 1.0
C      1  0.4624040000000  0.4583030000000  0.4312650000000 1.0
C      1  0.5743650000000  0.5625430000000  0.4812960000000 1.0
C      1  0.6101870000000  0.4171500000000  0.4757980000000 1.0
C      1  0.5837500000000  0.4725720000000  0.5176870000000 1.0
C      1  0.4134780000000  0.5210310000000  0.5438420000000 1.0
C      1  0.5517400000000  0.4815640000000  0.4958720000000 1.0
C      1  0.5692000000000  0.5005410000000  0.5552060000000 1.0
C      1  0.4918210000000  0.4453720000000  0.4363090000000 1.0
C      1  0.4408700000000  0.4736590000000  0.4524100000000 1.0
C      1  0.5175540000000  0.5145680000000  0.4536990000000 1.0
C      1  0.4839460000000  0.5011400000000  0.5888010000000 1.0
C      1  0.4861500000000  0.5420780000000  0.4779910000000 1.0
C      1  0.5215510000000  0.4386810000000  0.4937550000000 1.0
C      1  0.5786690000000  0.5352440000000  0.4612490000000 1.0
C      1  0.5029690000000  0.5918680000000  0.4971000000000 1.0
C      1  0.4854090000000  0.4772730000000  0.5229900000000 1.0
C      1  0.5398250000000  0.4389930000000  0.5181970000000 1.0
C      1  0.4508780000000  0.5149470000000  0.4722650000000 1.0
C      1  0.4748190000000  0.5384970000000  0.4506370000000 1.0
C      1  0.5011400000000  0.4827780000000  0.4713150000000 1.0
C      1  0.5317070000000  0.5849520000000  0.4594170000000 1.0
C      1  0.5761000000000  0.5225950000000  0.5305140000000 1.0
C      1  0.5344600000000  0.4187750000000  0.5368350000000 1.0
C      1  0.4585830000000  0.5073420000000  0.5731420000000 1.0
C      1  0.5246540000000  0.5455050000000  0.5391620000000 1.0
C      1  0.4261300000000  0.5372000000000  0.5185270000000 1.0
C      1  0.5091740000000  0.5129170000000  0.5775270000000 1.0
C      1  0.4489440000000  0.5903220000000  0.4575260000000 1.0
C      1  0.5129890000000  0.4646090000000  0.4308260000000 1.0
C      1  0.4766530000000  0.5502360000000  0.5089820000000 1.0
C      1  0.4461650000000  0.4366770000000  0.4873800000000 1.0
C      1  0.4838090000000  0.4028550000000  0.5023310000000 1.0
C      1  0.5287130000000  0.5178170000000  0.4026320000000 1.0
C      1  0.5452300000000  0.5316170000000  0.4842430000000 1.0
C      1  0.5511190000000  0.5286370000000  0.5522830000000 1.0
C      1  0.5633860000000  0.5763540000000  0.4519700000000 1.0
C      1  0.4567270000000  0.4911900000000  0.5099190000000 1.0
C      1  0.5893130000000  0.4995230000000  0.5107780000000 1.0
C      1  0.4232360000000  0.4639090000000  0.5439050000000 1.0
C      1  0.4838630000000  0.5638270000000  0.5662860000000 1.0
C      1  0.5073600000000  0.4552370000000  0.5898300000000 1.0
C      1  0.5476880000000  0.5331140000000  0.4189030000000 1.0
C      1  0.4509090000000  0.4557070000000  0.5574400000000 1.0
C      1  0.4496160000000  0.5203760000000  0.4398220000000 1.0
C      1  0.4457600000000  0.5444160000000  0.4846430000000 1.0
C      1  0.4481180000000  0.5544850000000  0.4411400000000 1.0
C      1  0.4146060000000  0.4578020000000  0.5184680000000 1.0
C      1  0.5085700000000  0.5592460000000  0.5058170000000 1.0
C      1  0.4676290000000  0.5230970000000  0.5488510000000 1.0
C      1  0.4870690000000  0.5105330000000  0.5321040000000 1.0
C      1  0.4922070000000  0.4969620000000  0.4410070000000 1.0
C      1  0.4620990000000  0.4921440000000  0.4348930000000 1.0
C      1  0.5401190000000  0.5642510000000  0.5643210000000 1.0
C      1  0.4869400000000  0.4737840000000  0.5979380000000 1.0
C      1  0.4155330000000  0.4692080000000  0.4699080000000 1.0
C      1  0.5449170000000  0.4673850000000  0.5248030000000 1.0
C      1  0.4257160000000  0.5025380000000  0.5183460000000 1.0
C      1  0.5619420000000  0.5039450000000  0.4796720000000 1.0
C      1  0.4746750000000  0.5774390000000  0.4429290000000 1.0
C      1  0.4641240000000  0.5511520000000  0.5511590000000 1.0
C      1  0.5089760000000  0.4927070000000  0.4131290000000 1.0
C      1  0.4579610000000  0.4378910000000  0.4561710000000 1.0
C      1  0.5436100000000  0.4501040000000  0.4728040000000 1.0
C      1  0.4570650000000  0.5252240000000  0.5103350000000 1.0
C      1  0.5650470000000  0.5189050000000  0.4370680000000 1.0
C      1  0.4020970000000  0.4927250000000  0.4740550000000 1.0
C      1  0.4581610000000  0.5704160000000  0.5261060000000 1.0
C      1  0.4946790000000  0.4228950000000  0.4541980000000 1.0
C      1  0.5717730000000  0.4544300000000  0.4914920000000 1.0
C      1  0.5502750000000  0.5831910000000  0.4873040000000 1.0
C      1  0.4773130000000  0.4594910000000  0.4736160000000 1.0
C      1  0.4200260000000  0.5141480000000  0.4868440000000 1.0
C      1  0.5370110000000  0.4277100000000  0.5637090000000 1.0
C      1  0.5302360000000  0.4721580000000  0.4562420000000 1.0
C      1  0.4212920000000  0.4521610000000  0.4916600000000 1.0
C      1  0.5188750000000  0.4115050000000  0.4640760000000 1.0
C      1  0.4958050000000  0.4545590000000  0.4991240000000 1.0
C      1  0.4863600000000  0.5857180000000  0.5246020000000 1.0
C      1  0.5152770000000  0.4064500000000  0.4949960000000 1.0
C      1  0.5466800000000  0.4985870000000  0.4525240000000 1.0
C      1  0.5341290000000  0.5897790000000  0.5095350000000 1.0
C      1  0.5204110000000  0.4859290000000  0.4995400000000 1.0
C      1  0.4128990000000  0.5476290000000  0.4889280000000 1.0
C      1  0.5059900000000  0.5732810000000  0.5467580000000 1.0
C      1  0.5122910000000  0.5609400000000  0.4736810000000 1.0
C      1  0.5926130000000  0.4342050000000  0.4829780000000 1.0
C      1  0.5304770000000  0.4700640000000  0.5788330000000 1.0
C      1  0.4982210000000  0.5896400000000  0.4633220000000 1.0
C      1  0.5509890000000  0.4533540000000  0.5669690000000 1.0
C      1  0.5935230000000  0.5136060000000  0.4817160000000 1.0
C      1  0.4711700000000  0.4154010000000  0.4776210000000 1.0
C      1  0.4746930000000  0.4503620000000  0.5412510000000 1.0
C      1  0.5746360000000  0.5352350000000  0.5009460000000 1.0
C      1  0.5210930000000  0.4912540000000  0.5620410000000 1.0
C      1  0.5178210000000  0.4825900000000  0.5333090000000 1.0
C      1  0.5631540000000  0.4153150000000  0.4398360000000 1.0
C      1  0.5353860000000  0.5836940000000  0.5371730000000 1.0
C      1  0.5149440000000  0.5164060000000  0.4879700000000 1.0
C      1  0.4928610000000  0.5521580000000  0.4283930000000 1.0
C      1  0.5462430000000  0.5478450000000  0.4570900000000 1.0
END
