TITL C-2778431-5191-139 -0.00424395589795016 125000 -600.920744754154 0 0 102 (C1) n - 1
REM
REM in /home/nfs/bkarasulu/CARBON/AIRSS/Generating-Clusters/REBO/Only-C1/SD-CG/HFTN-CG
REM
REM
REM
REM
REM
REM ./C.cell (11c1c37f851c82e70ff6c80c92926a4b)
REM
REM compiler GCC version 9.2.1 20190827 (Red Hat 9.2.1-1)
REM options -cpp -mtune=generic -march=x86-64 -g -O0 -fpre-include=/usr/include/finclude/math-vector-fortran.h
REM seed -1734843494 -1740270739 -126040257 1951386058 -1138820231 1332629991 16144106 -951024216 631109021 632918822 -653881110 -141458119 -364013838 202142876 1390329067 -1502541234 1688707783 230882586 -818832774 -742960788 -2125694374 280231373 286414226 -1796262370 -1170974001 -372736527 2038476944 2012074152 -1036854394 -1987134150 1889510706 -910575087 -231304482
REM
CELL 1.54180   50.00000   50.00000   50.00000   90.00000   90.00000   90.00000
LATT -1
SFAC C  
C      1  0.4750610000000  0.4244970000000  0.4420220000000 1.0
C      1  0.4675630000000  0.5775600000000  0.4698440000000 1.0
C      1  0.5644160000000  0.5190560000000  0.5304720000000 1.0
C      1  0.4608170000000  0.4329700000000  0.5419530000000 1.0
C      1  0.4755180000000  0.5082160000000  0.4757890000000 1.0
C      1  0.5372820000000  0.5865940000000  0.5261510000000 1.0
C      1  0.4488040000000  0.4061150000000  0.5012710000000 1.0
C      1  0.5080890000000  0.5936970000000  0.4883360000000 1.0
C      1  0.4820810000000  0.4810310000000  0.4083810000000 1.0
C      1  0.5433420000000  0.5583750000000  0.4885360000000 1.0
C      1  0.4875230000000  0.5555600000000  0.4964680000000 1.0
C      1  0.5269110000000  0.4816940000000  0.5666440000000 1.0
C      1  0.5810640000000  0.4464870000000  0.4963270000000 1.0
C      1  0.5889730000000  0.4995450000000  0.5179650000000 1.0
C      1  0.5732430000000  0.5512640000000  0.4908820000000 1.0
C      1  0.5937040000000  0.5290760000000  0.5057510000000 1.0
C      1  0.4563560000000  0.4465010000000  0.4298700000000 1.0
C      1  0.4327920000000  0.4908270000000  0.5523300000000 1.0
C      1  0.4615290000000  0.4598650000000  0.5506880000000 1.0
C      1  0.4274370000000  0.4566610000000  0.4734960000000 1.0
C      1  0.4572230000000  0.4719770000000  0.4188810000000 1.0
C      1  0.5171800000000  0.5171190000000  0.4585130000000 1.0
C      1  0.4906760000000  0.5330660000000  0.4211380000000 1.0
C      1  0.5029330000000  0.4261760000000  0.4461650000000 1.0
C      1  0.4561200000000  0.4871540000000  0.5200750000000 1.0
C      1  0.4140190000000  0.4731640000000  0.5004760000000 1.0
C      1  0.4633560000000  0.5762650000000  0.5036570000000 1.0
C      1  0.5388760000000  0.4560140000000  0.5610160000000 1.0
C      1  0.5097850000000  0.4693500000000  0.4159680000000 1.0
C      1  0.5126250000000  0.4662190000000  0.5326630000000 1.0
C      1  0.4897030000000  0.4295370000000  0.4902840000000 1.0
C      1  0.4842920000000  0.5153630000000  0.5226240000000 1.0
C      1  0.5199330000000  0.4343460000000  0.5717540000000 1.0
C      1  0.5197830000000  0.4984770000000  0.5412980000000 1.0
C      1  0.5146380000000  0.4737910000000  0.4830010000000 1.0
C      1  0.4628360000000  0.5389400000000  0.4275080000000 1.0
C      1  0.4685660000000  0.5587330000000  0.5535700000000 1.0
C      1  0.4479220000000  0.4356870000000  0.4602460000000 1.0
C      1  0.5364540000000  0.4262390000000  0.4869470000000 1.0
C      1  0.5153010000000  0.4497650000000  0.4363970000000 1.0
C      1  0.5353040000000  0.5209270000000  0.5708910000000 1.0
C      1  0.5325290000000  0.5503090000000  0.5574600000000 1.0
C      1  0.4979110000000  0.4589610000000  0.5045950000000 1.0
C      1  0.5102220000000  0.5452710000000  0.4751900000000 1.0
C      1  0.5057110000000  0.5204170000000  0.4990020000000 1.0
C      1  0.4432800000000  0.5381160000000  0.5490690000000 1.0
C      1  0.4751670000000  0.4906010000000  0.5443800000000 1.0
C      1  0.5073520000000  0.4805470000000  0.5874140000000 1.0
C      1  0.5440950000000  0.4528690000000  0.5302930000000 1.0
C      1  0.5987180000000  0.5244950000000  0.4512740000000 1.0
C      1  0.4857370000000  0.4193660000000  0.5396970000000 1.0
C      1  0.4438210000000  0.5184130000000  0.4228810000000 1.0
C      1  0.5059420000000  0.5177330000000  0.5735010000000 1.0
C      1  0.5674300000000  0.4704500000000  0.4675830000000 1.0
C      1  0.4413260000000  0.4263770000000  0.5214100000000 1.0
C      1  0.4179400000000  0.4948980000000  0.4803360000000 1.0
C      1  0.4394940000000  0.4914740000000  0.4304150000000 1.0
C      1  0.4065200000000  0.5458050000000  0.4957260000000 1.0
C      1  0.4665020000000  0.4636290000000  0.5047600000000 1.0
C      1  0.4469530000000  0.5118480000000  0.5627410000000 1.0
C      1  0.4648570000000  0.4183710000000  0.4812100000000 1.0
C      1  0.5579500000000  0.5026380000000  0.4732710000000 1.0
C      1  0.5027650000000  0.5942820000000  0.4389630000000 1.0
C      1  0.5567430000000  0.5070900000000  0.5591630000000 1.0
C      1  0.5344450000000  0.5843440000000  0.4971820000000 1.0
C      1  0.4239930000000  0.4812230000000  0.5255850000000 1.0
C      1  0.5801030000000  0.5230550000000  0.4750600000000 1.0
C      1  0.5060030000000  0.5538030000000  0.5211560000000 1.0
C      1  0.5116700000000  0.4216480000000  0.4734310000000 1.0
C      1  0.5285050000000  0.4940800000000  0.4208790000000 1.0
C      1  0.4885090000000  0.5323560000000  0.5496270000000 1.0
C      1  0.5315040000000  0.5013290000000  0.4921540000000 1.0
C      1  0.4266730000000  0.4842670000000  0.4540860000000 1.0
C      1  0.4490810000000  0.5647200000000  0.5269450000000 1.0
C      1  0.5328260000000  0.4279670000000  0.5155040000000 1.0
C      1  0.5014620000000  0.5626670000000  0.5593040000000 1.0
C      1  0.5084420000000  0.5419800000000  0.4415700000000 1.0
C      1  0.4574570000000  0.5120310000000  0.5020050000000 1.0
C      1  0.5297050000000  0.4632120000000  0.4573300000000 1.0
C      1  0.5531990000000  0.5669200000000  0.5399830000000 1.0
C      1  0.5245620000000  0.5279240000000  0.5331170000000 1.0
C      1  0.4770580000000  0.5031890000000  0.5743670000000 1.0
C      1  0.4602620000000  0.5537500000000  0.4523860000000 1.0
C      1  0.5074540000000  0.5843660000000  0.5363190000000 1.0
C      1  0.5734700000000  0.5499570000000  0.5245620000000 1.0
C      1  0.4709900000000  0.5380420000000  0.4750230000000 1.0
C      1  0.4902930000000  0.5926000000000  0.5111910000000 1.0
C      1  0.4780800000000  0.4695810000000  0.5780240000000 1.0
C      1  0.4995740000000  0.4970100000000  0.4673380000000 1.0
C      1  0.5594230000000  0.4388570000000  0.4763080000000 1.0
C      1  0.4287430000000  0.5200350000000  0.4942830000000 1.0
C      1  0.5436070000000  0.5294780000000  0.5065340000000 1.0
C      1  0.5851610000000  0.4791490000000  0.4952600000000 1.0
C      1  0.5777230000000  0.4859100000000  0.5470980000000 1.0
C      1  0.4994090000000  0.4519120000000  0.5584930000000 1.0
C      1  0.4438220000000  0.4467880000000  0.4996850000000 1.0
C      1  0.4930750000000  0.5901760000000  0.4639280000000 1.0
C      1  0.4996400000000  0.5074420000000  0.4108970000000 1.0
C      1  0.5478800000000  0.4872280000000  0.4450350000000 1.0
C      1  0.5101580000000  0.4168930000000  0.5282220000000 1.0
C      1  0.5706000000000  0.4644410000000  0.5230980000000 1.0
C      1  0.4264440000000  0.5418130000000  0.5204470000000 1.0
END
