TITL C-2778431-5191-482 -0.00396556768644842 125000 -974.593918376717 0 0 169 (C1) n - 1
REM
REM in /home/nfs/bkarasulu/CARBON/AIRSS/Generating-Clusters/REBO/Only-C1/SD-CG/HFTN-CG
REM
REM
REM
REM
REM
REM ./C.cell (11c1c37f851c82e70ff6c80c92926a4b)
REM
REM compiler GCC version 9.2.1 20190827 (Red Hat 9.2.1-1)
REM options -cpp -mtune=generic -march=x86-64 -g -O0 -fpre-include=/usr/include/finclude/math-vector-fortran.h
REM seed 1487520639 -704600662 484136525 1987485957 1344263727 -68448097 -23459991 -449828597 528158977 -1119100290 -1288603232 1592594135 -603320530 1666112411 304969100 302468283 -1577993551 -1660370198 1375933489 653539521 1630910979 450463929 1396765588 1269268687 164491611 -954525678 -1516434465 -1138953122 -1550457420 183224964 1807847896 -934966997 218363636
REM
CELL 1.54180   50.00000   50.00000   50.00000   90.00000   90.00000   90.00000
LATT -1
SFAC C  
C      1  0.4346130000000  0.4457570000000  0.4632020000000 1.0
C      1  0.5744130000000  0.5178210000000  0.4687990000000 1.0
C      1  0.4468980000000  0.4729120000000  0.4259130000000 1.0
C      1  0.5632860000000  0.4879540000000  0.5136640000000 1.0
C      1  0.5006060000000  0.5934520000000  0.5272150000000 1.0
C      1  0.5021650000000  0.5208540000000  0.4352230000000 1.0
C      1  0.4852670000000  0.5454920000000  0.5482420000000 1.0
C      1  0.5459820000000  0.4050790000000  0.5159250000000 1.0
C      1  0.4338690000000  0.5260160000000  0.5033700000000 1.0
C      1  0.5361070000000  0.4845100000000  0.4820980000000 1.0
C      1  0.4865210000000  0.4827420000000  0.3938120000000 1.0
C      1  0.5139790000000  0.5635650000000  0.4127380000000 1.0
C      1  0.5254800000000  0.3985110000000  0.4549360000000 1.0
C      1  0.4347880000000  0.5441080000000  0.5407900000000 1.0
C      1  0.4598320000000  0.5711780000000  0.4347080000000 1.0
C      1  0.5552740000000  0.5357770000000  0.5125740000000 1.0
C      1  0.6079780000000  0.5139460000000  0.4934520000000 1.0
C      1  0.4084000000000  0.4524470000000  0.5738320000000 1.0
C      1  0.4802550000000  0.4578810000000  0.5863490000000 1.0
C      1  0.4398910000000  0.4363230000000  0.4116080000000 1.0
C      1  0.4885120000000  0.5852730000000  0.4880760000000 1.0
C      1  0.4877970000000  0.5429760000000  0.6058640000000 1.0
C      1  0.4298230000000  0.4472610000000  0.4972470000000 1.0
C      1  0.4153620000000  0.5213150000000  0.5572610000000 1.0
C      1  0.4365620000000  0.4859780000000  0.5975380000000 1.0
C      1  0.4703780000000  0.4941340000000  0.4503030000000 1.0
C      1  0.5243880000000  0.5410290000000  0.5159740000000 1.0
C      1  0.4663270000000  0.4206000000000  0.5021320000000 1.0
C      1  0.4108080000000  0.5132080000000  0.5252210000000 1.0
C      1  0.5609890000000  0.4477760000000  0.5431770000000 1.0
C      1  0.5963320000000  0.4960980000000  0.4433620000000 1.0
C      1  0.4874970000000  0.4747550000000  0.5013250000000 1.0
C      1  0.4422120000000  0.5587960000000  0.4980090000000 1.0
C      1  0.4789680000000  0.5857010000000  0.5691130000000 1.0
C      1  0.5026940000000  0.5628960000000  0.5017040000000 1.0
C      1  0.4448210000000  0.6020690000000  0.5058600000000 1.0
C      1  0.4435260000000  0.5265530000000  0.5756310000000 1.0
C      1  0.5094770000000  0.5565720000000  0.5399040000000 1.0
C      1  0.5053810000000  0.5742960000000  0.4635080000000 1.0
C      1  0.4611570000000  0.5250910000000  0.4873350000000 1.0
C      1  0.4440850000000  0.4765890000000  0.4888490000000 1.0
C      1  0.6049060000000  0.5520090000000  0.4576920000000 1.0
C      1  0.4311790000000  0.4336520000000  0.4349540000000 1.0
C      1  0.4975580000000  0.5199510000000  0.5825820000000 1.0
C      1  0.5213050000000  0.4268830000000  0.5664670000000 1.0
C      1  0.4429200000000  0.4903050000000  0.4660100000000 1.0
C      1  0.4977470000000  0.4010580000000  0.4543880000000 1.0
C      1  0.4936690000000  0.4481370000000  0.5472090000000 1.0
C      1  0.5268120000000  0.5316700000000  0.5716480000000 1.0
C      1  0.4677350000000  0.4492330000000  0.4389780000000 1.0
C      1  0.5168070000000  0.4741010000000  0.5073960000000 1.0
C      1  0.5140290000000  0.5370400000000  0.4006940000000 1.0
C      1  0.5223220000000  0.4810140000000  0.4336040000000 1.0
C      1  0.5652180000000  0.5377950000000  0.5801890000000 1.0
C      1  0.4482230000000  0.4093020000000  0.4754400000000 1.0
C      1  0.5653230000000  0.5108390000000  0.4976610000000 1.0
C      1  0.5453130000000  0.4485940000000  0.5731750000000 1.0
C      1  0.4648410000000  0.5276060000000  0.4087360000000 1.0
C      1  0.5850270000000  0.4407090000000  0.4962080000000 1.0
C      1  0.4756180000000  0.4091280000000  0.5801390000000 1.0
C      1  0.4682500000000  0.4509940000000  0.5074200000000 1.0
C      1  0.4888590000000  0.5189720000000  0.3959040000000 1.0
C      1  0.5634690000000  0.5841250000000  0.5089320000000 1.0
C      1  0.4024350000000  0.4834210000000  0.5237090000000 1.0
C      1  0.5270060000000  0.4510880000000  0.4448410000000 1.0
C      1  0.5722590000000  0.4099030000000  0.4943420000000 1.0
C      1  0.4268240000000  0.5940380000000  0.5244890000000 1.0
C      1  0.4149750000000  0.4947480000000  0.4570800000000 1.0
C      1  0.4986700000000  0.4405930000000  0.4839960000000 1.0
C      1  0.4951570000000  0.4312250000000  0.5832850000000 1.0
C      1  0.5536710000000  0.5597370000000  0.5584500000000 1.0
C      1  0.5113760000000  0.5078550000000  0.4872960000000 1.0
C      1  0.5093730000000  0.4994450000000  0.4572110000000 1.0
C      1  0.5499520000000  0.5086830000000  0.5797950000000 1.0
C      1  0.4575910000000  0.5885320000000  0.5856140000000 1.0
C      1  0.6006290000000  0.4818560000000  0.5302060000000 1.0
C      1  0.6051470000000  0.5486490000000  0.6131240000000 1.0
C      1  0.4580470000000  0.5405480000000  0.4602610000000 1.0
C      1  0.5099270000000  0.4206040000000  0.5092550000000 1.0
C      1  0.5706480000000  0.4269720000000  0.5240120000000 1.0
C      1  0.4685360000000  0.4167540000000  0.4491600000000 1.0
C      1  0.6044030000000  0.4879540000000  0.5031160000000 1.0
C      1  0.4494350000000  0.5146170000000  0.5379680000000 1.0
C      1  0.5270060000000  0.4464820000000  0.5389790000000 1.0
C      1  0.5302950000000  0.4339680000000  0.4727890000000 1.0
C      1  0.4099090000000  0.4681740000000  0.4698650000000 1.0
C      1  0.5822750000000  0.4783350000000  0.4609710000000 1.0
C      1  0.4771280000000  0.3925290000000  0.4760630000000 1.0
C      1  0.4624130000000  0.5062230000000  0.5957850000000 1.0
C      1  0.5545290000000  0.4844840000000  0.4568660000000 1.0
C      1  0.4851240000000  0.5431780000000  0.4475720000000 1.0
C      1  0.4548030000000  0.4965310000000  0.5638540000000 1.0
C      1  0.4487910000000  0.4604190000000  0.5980480000000 1.0
C      1  0.4165900000000  0.4976070000000  0.5816180000000 1.0
C      1  0.5725140000000  0.5574900000000  0.4997220000000 1.0
C      1  0.5159140000000  0.4397040000000  0.4187650000000 1.0
C      1  0.4053570000000  0.4684120000000  0.5467150000000 1.0
C      1  0.4672280000000  0.4481040000000  0.4731790000000 1.0
C      1  0.4921110000000  0.5331950000000  0.4938290000000 1.0
C      1  0.4611360000000  0.4571690000000  0.4003840000000 1.0
C      1  0.4047760000000  0.4698140000000  0.4996550000000 1.0
C      1  0.5065470000000  0.5813070000000  0.5789560000000 1.0
C      1  0.5946190000000  0.4684240000000  0.4846460000000 1.0
C      1  0.4350380000000  0.4107830000000  0.5069330000000 1.0
C      1  0.6081570000000  0.5189920000000  0.4606930000000 1.0
C      1  0.4911460000000  0.4905290000000  0.4236100000000 1.0
C      1  0.5489400000000  0.4959060000000  0.4250020000000 1.0
C      1  0.4928440000000  0.3967370000000  0.5358430000000 1.0
C      1  0.4877000000000  0.3961990000000  0.5050390000000 1.0
C      1  0.4541570000000  0.5055850000000  0.4241780000000 1.0
C      1  0.5094970000000  0.4675250000000  0.4687450000000 1.0
C      1  0.4256030000000  0.5411730000000  0.4525780000000 1.0
C      1  0.4615960000000  0.5915440000000  0.4860250000000 1.0
C      1  0.5322020000000  0.4462340000000  0.5050530000000 1.0
C      1  0.5788810000000  0.5375110000000  0.4409290000000 1.0
C      1  0.4435250000000  0.4600940000000  0.5250550000000 1.0
C      1  0.5244160000000  0.4895510000000  0.5319750000000 1.0
C      1  0.5133850000000  0.5550040000000  0.5925240000000 1.0
C      1  0.5730250000000  0.5585540000000  0.4676590000000 1.0
C      1  0.5558040000000  0.5877450000000  0.5401140000000 1.0
C      1  0.4856690000000  0.4936600000000  0.5388770000000 1.0
C      1  0.5227090000000  0.4071450000000  0.5385790000000 1.0
C      1  0.5294680000000  0.5100250000000  0.4013840000000 1.0
C      1  0.4902160000000  0.4518720000000  0.4134460000000 1.0
C      1  0.5314590000000  0.5923540000000  0.4650770000000 1.0
C      1  0.4909380000000  0.4885750000000  0.5903100000000 1.0
C      1  0.5418270000000  0.4053800000000  0.4819070000000 1.0
C      1  0.4765970000000  0.5835000000000  0.5396490000000 1.0
C      1  0.5486070000000  0.5287680000000  0.5452810000000 1.0
C      1  0.5524180000000  0.4968210000000  0.5416950000000 1.0
C      1  0.4155190000000  0.5508080000000  0.4783810000000 1.0
C      1  0.5123340000000  0.5429600000000  0.4685670000000 1.0
C      1  0.4768360000000  0.5234270000000  0.5292770000000 1.0
C      1  0.4532900000000  0.5527170000000  0.4152690000000 1.0
C      1  0.4785750000000  0.4977490000000  0.4822330000000 1.0
C      1  0.5163510000000  0.4914300000000  0.3851850000000 1.0
C      1  0.5677740000000  0.6091010000000  0.5537280000000 1.0
C      1  0.5584140000000  0.5344650000000  0.4216620000000 1.0
C      1  0.4232670000000  0.4963660000000  0.4183680000000 1.0
C      1  0.5243540000000  0.5711930000000  0.5577620000000 1.0
C      1  0.5289110000000  0.4171800000000  0.4105340000000 1.0
C      1  0.4419410000000  0.4882210000000  0.5270210000000 1.0
C      1  0.5379380000000  0.3990810000000  0.4294510000000 1.0
C      1  0.4467580000000  0.4209440000000  0.5369120000000 1.0
C      1  0.4916920000000  0.5735240000000  0.4350010000000 1.0
C      1  0.5314230000000  0.5300730000000  0.4358930000000 1.0
C      1  0.4756230000000  0.4193380000000  0.5485820000000 1.0
C      1  0.5280970000000  0.5950100000000  0.5212870000000 1.0
C      1  0.4563010000000  0.5671400000000  0.5272340000000 1.0
C      1  0.4295340000000  0.4439840000000  0.5489330000000 1.0
C      1  0.5611860000000  0.4607790000000  0.5051000000000 1.0
C      1  0.5589730000000  0.4786330000000  0.5684370000000 1.0
C      1  0.6018730000000  0.5442970000000  0.4907490000000 1.0
C      1  0.5828600000000  0.4715060000000  0.5465790000000 1.0
C      1  0.4473880000000  0.5716680000000  0.4663470000000 1.0
C      1  0.4702930000000  0.4708270000000  0.5572640000000 1.0
C      1  0.5232410000000  0.4894210000000  0.5828000000000 1.0
C      1  0.5408240000000  0.5963470000000  0.4913630000000 1.0
C      1  0.5452570000000  0.5577790000000  0.4512200000000 1.0
C      1  0.5853610000000  0.5432710000000  0.5968040000000 1.0
C      1  0.4183870000000  0.5722500000000  0.5382650000000 1.0
C      1  0.5805480000000  0.5012340000000  0.4211860000000 1.0
C      1  0.5085880000000  0.5163210000000  0.5260070000000 1.0
C      1  0.4004970000000  0.5313780000000  0.4983140000000 1.0
C      1  0.4714850000000  0.5409600000000  0.5761750000000 1.0
C      1  0.5094960000000  0.4770130000000  0.5568380000000 1.0
C      1  0.5311870000000  0.5794310000000  0.4336090000000 1.0
C      1  0.4137120000000  0.5187420000000  0.4392440000000 1.0
C      1  0.5431290000000  0.5284900000000  0.4675100000000 1.0
END
