TITL C-2778425-5191-1484 -0.00160866125747863 125000 -401.37559649335 0 0 70 (C1) n - 1
REM
REM in /home/nfs/bkarasulu/CARBON/AIRSS/Generating-Clusters/REBO/Only-C1/SD-CG/HFTN-CG
REM
REM
REM
REM
REM
REM ./C.cell (11c1c37f851c82e70ff6c80c92926a4b)
REM
REM compiler GCC version 9.2.1 20190827 (Red Hat 9.2.1-1)
REM options -cpp -mtune=generic -march=x86-64 -g -O0 -fpre-include=/usr/include/finclude/math-vector-fortran.h
REM seed 1492090881 417381955 1935424215 -630710283 -1050937731 -941067541 1072725469 1456120901 822009453 -950288308 -650818700 764689195 -1754593074 -807578886 -1452798000 -1660058033 1824434052 917591045 -1141220411 -1682869679 2061829794 -2060287240 1791059654 475476640 1993897082 481889185 -1472523330 -1810079814 2010666979 168918393 666282101 789569003 -439816998
REM
CELL 1.54180   50.00000   50.00000   50.00000   90.00000   90.00000   90.00000
LATT -1
SFAC C  
C      1  0.4962280000000  0.5164520000000  0.5662760000000 1.0
C      1  0.5432470000000  0.5256840000000  0.4671360000000 1.0
C      1  0.5007510000000  0.5240310000000  0.4882020000000 1.0
C      1  0.4773320000000  0.4321220000000  0.4894460000000 1.0
C      1  0.4203010000000  0.4835310000000  0.5043410000000 1.0
C      1  0.4342900000000  0.5443160000000  0.5079960000000 1.0
C      1  0.4475620000000  0.4887850000000  0.5715830000000 1.0
C      1  0.4666900000000  0.4576350000000  0.5086670000000 1.0
C      1  0.5271510000000  0.5079660000000  0.4192180000000 1.0
C      1  0.5085410000000  0.4467150000000  0.5168150000000 1.0
C      1  0.5469500000000  0.5482310000000  0.5585800000000 1.0
C      1  0.5104160000000  0.4881100000000  0.5581100000000 1.0
C      1  0.4446680000000  0.5149240000000  0.5569700000000 1.0
C      1  0.5609430000000  0.5467330000000  0.5377540000000 1.0
C      1  0.5139940000000  0.4552600000000  0.4167910000000 1.0
C      1  0.4364370000000  0.4646960000000  0.5025030000000 1.0
C      1  0.5342260000000  0.4959560000000  0.4423820000000 1.0
C      1  0.4580470000000  0.4759740000000  0.5469650000000 1.0
C      1  0.4716630000000  0.5262720000000  0.5496820000000 1.0
C      1  0.4625970000000  0.5424150000000  0.4982200000000 1.0
C      1  0.4533760000000  0.4933300000000  0.5245660000000 1.0
C      1  0.5287040000000  0.5626080000000  0.4717270000000 1.0
C      1  0.4739420000000  0.5629770000000  0.4817220000000 1.0
C      1  0.4696780000000  0.4486890000000  0.5411020000000 1.0
C      1  0.4646350000000  0.4560050000000  0.4687590000000 1.0
C      1  0.5008290000000  0.4383940000000  0.5483360000000 1.0
C      1  0.5665710000000  0.5222770000000  0.4901160000000 1.0
C      1  0.4720350000000  0.5563900000000  0.5403500000000 1.0
C      1  0.5004050000000  0.4791650000000  0.4121690000000 1.0
C      1  0.5160110000000  0.5423160000000  0.5563900000000 1.0
C      1  0.5772710000000  0.4978360000000  0.4940120000000 1.0
C      1  0.5067170000000  0.4211200000000  0.4819880000000 1.0
C      1  0.5420380000000  0.4468710000000  0.4601060000000 1.0
C      1  0.5652620000000  0.4816940000000  0.5489360000000 1.0
C      1  0.4971830000000  0.4545930000000  0.4622750000000 1.0
C      1  0.5277540000000  0.5136170000000  0.5433150000000 1.0
C      1  0.4581450000000  0.5091710000000  0.4511730000000 1.0
C      1  0.5473800000000  0.4615930000000  0.5387510000000 1.0
C      1  0.5098400000000  0.5729500000000  0.5139380000000 1.0
C      1  0.4296830000000  0.5119440000000  0.5308700000000 1.0
C      1  0.4848900000000  0.5272360000000  0.4426650000000 1.0
C      1  0.4467340000000  0.5630180000000  0.5285470000000 1.0
C      1  0.5576620000000  0.5079020000000  0.5466090000000 1.0
C      1  0.5210120000000  0.4626970000000  0.5512770000000 1.0
C      1  0.5116510000000  0.5370280000000  0.4612560000000 1.0
C      1  0.5294980000000  0.5161650000000  0.5034580000000 1.0
C      1  0.4185380000000  0.5174150000000  0.5006570000000 1.0
C      1  0.4344450000000  0.5061820000000  0.4747400000000 1.0
C      1  0.5271820000000  0.4962420000000  0.4759260000000 1.0
C      1  0.5138730000000  0.4709040000000  0.4855570000000 1.0
C      1  0.5040770000000  0.5027230000000  0.5215860000000 1.0
C      1  0.4777130000000  0.5568240000000  0.4542400000000 1.0
C      1  0.5492710000000  0.5407350000000  0.5102870000000 1.0
C      1  0.5326990000000  0.5639570000000  0.4991640000000 1.0
C      1  0.5181830000000  0.4441640000000  0.4427920000000 1.0
C      1  0.4810700000000  0.5253260000000  0.5169400000000 1.0
C      1  0.4504560000000  0.4788150000000  0.4629690000000 1.0
C      1  0.4836590000000  0.4241260000000  0.5219520000000 1.0
C      1  0.5317810000000  0.4418700000000  0.4922150000000 1.0
C      1  0.5546490000000  0.4539670000000  0.5118100000000 1.0
C      1  0.4834510000000  0.4996860000000  0.4810090000000 1.0
C      1  0.4894490000000  0.4853360000000  0.4576820000000 1.0
C      1  0.5531840000000  0.4720960000000  0.4577490000000 1.0
C      1  0.4892100000000  0.5821990000000  0.4961750000000 1.0
C      1  0.4612080000000  0.4956390000000  0.4974970000000 1.0
C      1  0.5002170000000  0.5619400000000  0.5385330000000 1.0
C      1  0.5651290000000  0.5018770000000  0.4559700000000 1.0
C      1  0.5734110000000  0.4714990000000  0.4996620000000 1.0
C      1  0.4908680000000  0.4970340000000  0.4318850000000 1.0
C      1  0.4953380000000  0.4760510000000  0.5109500000000 1.0
END
