TITL C-2778425-5191-731 -0.000566818477366989 125000 -380.576007969517 0 0 66 (C1) n - 1
REM
REM in /home/nfs/bkarasulu/CARBON/AIRSS/Generating-Clusters/REBO/Only-C1/SD-CG/HFTN-CG
REM
REM
REM
REM
REM
REM ./C.cell (11c1c37f851c82e70ff6c80c92926a4b)
REM
REM compiler GCC version 9.2.1 20190827 (Red Hat 9.2.1-1)
REM options -cpp -mtune=generic -march=x86-64 -g -O0 -fpre-include=/usr/include/finclude/math-vector-fortran.h
REM seed 1255186589 -439136620 -1682045147 799285321 962092862 907043669 1222872575 723554084 -739567932 402232339 -877596972 245044386 1617336365 -1284876947 782016751 896392632 -1559927197 -1717761115 -1634554133 1943638124 -1362798755 1641487066 780932262 385318457 1692780594 1267134633 1559612594 1835040376 -1007270202 -2036634887 101201753 1113830114 261486432
REM
CELL 1.54180   50.00000   50.00000   50.00000   90.00000   90.00000   90.00000
LATT -1
SFAC C  
C      1  0.4701690000000  0.4652480000000  0.4725500000000 1.0
C      1  0.5813790000000  0.5021640000000  0.5296140000000 1.0
C      1  0.4631150000000  0.5069060000000  0.5382540000000 1.0
C      1  0.4900020000000  0.5262770000000  0.5637110000000 1.0
C      1  0.5184960000000  0.5760560000000  0.5076070000000 1.0
C      1  0.5208820000000  0.5238890000000  0.5192950000000 1.0
C      1  0.4636850000000  0.4320280000000  0.4771140000000 1.0
C      1  0.4930060000000  0.4327470000000  0.4933200000000 1.0
C      1  0.5661940000000  0.4855460000000  0.4758260000000 1.0
C      1  0.5688930000000  0.4966280000000  0.5022580000000 1.0
C      1  0.4530710000000  0.4951930000000  0.4527960000000 1.0
C      1  0.5414860000000  0.4556620000000  0.5430120000000 1.0
C      1  0.5318660000000  0.4488130000000  0.4946650000000 1.0
C      1  0.5704960000000  0.5053480000000  0.4538980000000 1.0
C      1  0.5397320000000  0.5094700000000  0.5635420000000 1.0
C      1  0.4510680000000  0.5231410000000  0.5553860000000 1.0
C      1  0.5198000000000  0.5310440000000  0.5512330000000 1.0
C      1  0.4411270000000  0.4787140000000  0.4803120000000 1.0
C      1  0.5108400000000  0.5595760000000  0.5342580000000 1.0
C      1  0.4687220000000  0.5537900000000  0.4510940000000 1.0
C      1  0.4456900000000  0.5492370000000  0.5033940000000 1.0
C      1  0.5634270000000  0.5357600000000  0.4603900000000 1.0
C      1  0.4448370000000  0.4498290000000  0.5210720000000 1.0
C      1  0.5639730000000  0.5619410000000  0.4776500000000 1.0
C      1  0.4812710000000  0.5023880000000  0.5744190000000 1.0
C      1  0.4826410000000  0.4747180000000  0.5677630000000 1.0
C      1  0.5070140000000  0.4772570000000  0.4320670000000 1.0
C      1  0.5482750000000  0.5744450000000  0.4922800000000 1.0
C      1  0.5191000000000  0.4576800000000  0.4500600000000 1.0
C      1  0.5143470000000  0.4913000000000  0.4708360000000 1.0
C      1  0.5283340000000  0.4847360000000  0.5741120000000 1.0
C      1  0.4535310000000  0.5564390000000  0.4285610000000 1.0
C      1  0.5220040000000  0.5438730000000  0.4993230000000 1.0
C      1  0.4354000000000  0.5207250000000  0.4639700000000 1.0
C      1  0.4729380000000  0.5338640000000  0.4785970000000 1.0
C      1  0.5434810000000  0.5037400000000  0.5172560000000 1.0
C      1  0.5000090000000  0.4403790000000  0.4631380000000 1.0
C      1  0.4843440000000  0.5475440000000  0.5430270000000 1.0
C      1  0.4996290000000  0.5519360000000  0.4494650000000 1.0
C      1  0.4914230000000  0.5096030000000  0.5228210000000 1.0
C      1  0.5365470000000  0.4358460000000  0.5189040000000 1.0
C      1  0.5092120000000  0.4648290000000  0.5647880000000 1.0
C      1  0.4915570000000  0.4314490000000  0.5215700000000 1.0
C      1  0.4646900000000  0.4324140000000  0.5314050000000 1.0
C      1  0.5105010000000  0.5305060000000  0.4365560000000 1.0
C      1  0.4439870000000  0.4980650000000  0.5043180000000 1.0
C      1  0.4404700000000  0.4484230000000  0.4926270000000 1.0
C      1  0.5124410000000  0.4721350000000  0.4957250000000 1.0
C      1  0.5130880000000  0.5661620000000  0.4751560000000 1.0
C      1  0.4605170000000  0.5504110000000  0.5277760000000 1.0
C      1  0.4596150000000  0.4640260000000  0.5553630000000 1.0
C      1  0.4590520000000  0.5643530000000  0.4808250000000 1.0
C      1  0.4859610000000  0.4924000000000  0.4622660000000 1.0
C      1  0.4738790000000  0.4752530000000  0.4343650000000 1.0
C      1  0.4716040000000  0.5150820000000  0.4994570000000 1.0
C      1  0.5089810000000  0.4839870000000  0.5208320000000 1.0
C      1  0.5131670000000  0.4382070000000  0.5439240000000 1.0
C      1  0.5355380000000  0.4818010000000  0.5350360000000 1.0
C      1  0.5656470000000  0.5079880000000  0.5516940000000 1.0
C      1  0.5320610000000  0.5395400000000  0.4690040000000 1.0
C      1  0.5376380000000  0.5095970000000  0.4615680000000 1.0
C      1  0.4338570000000  0.5254120000000  0.4919650000000 1.0
C      1  0.5421190000000  0.4682900000000  0.4696850000000 1.0
C      1  0.4464310000000  0.4801870000000  0.5302610000000 1.0
C      1  0.5148320000000  0.5045690000000  0.4291450000000 1.0
C      1  0.4709060000000  0.4434370000000  0.4458370000000 1.0
END
