TITL C-2778436-5916-622 -0.00589653854740373 125000 -408.194660462184 0 0 73 (C1) n - 1
REM
REM in /home/nfs/bkarasulu/CARBON/AIRSS/Generating-Clusters/REBO/Only-C1/SD-CG/HFTN-CG
REM
REM
REM
REM
REM
REM ./C.cell (11c1c37f851c82e70ff6c80c92926a4b)
REM
REM compiler GCC version 9.2.1 20190827 (Red Hat 9.2.1-1)
REM options -cpp -mtune=generic -march=x86-64 -g -O0 -fpre-include=/usr/include/finclude/math-vector-fortran.h
REM seed 468557477 1035562397 -902853927 211873512 -542047521 -290156678 -826461057 516437400 -377832598 -214362208 83297030 -1059405396 -688999051 -954293383 -97115625 -1844237747 523110101 1628264255 -1578209333 -1459752653 -122761297 -1505699930 -852470113 -636113776 1805252132 -1260635170 1154329879 -1751648390 831353193 -773012584 1165591731 1694212043 272107134
REM
CELL 1.54180   50.00000   50.00000   50.00000   90.00000   90.00000   90.00000
LATT -1
SFAC C  
C      1  0.4895750000000  0.5485350000000  0.5467160000000 1.0
C      1  0.4860160000000  0.4927440000000  0.5646100000000 1.0
C      1  0.4740230000000  0.4516830000000  0.4683420000000 1.0
C      1  0.5081030000000  0.5789540000000  0.5079180000000 1.0
C      1  0.5137540000000  0.4649600000000  0.4426540000000 1.0
C      1  0.5517890000000  0.4813200000000  0.4836860000000 1.0
C      1  0.5110900000000  0.5462860000000  0.4669430000000 1.0
C      1  0.4418530000000  0.5779440000000  0.4621520000000 1.0
C      1  0.5713960000000  0.5155250000000  0.5564990000000 1.0
C      1  0.5409280000000  0.5404690000000  0.5080750000000 1.0
C      1  0.5022320000000  0.4330530000000  0.5335730000000 1.0
C      1  0.4999710000000  0.4486950000000  0.5077340000000 1.0
C      1  0.5733080000000  0.4670860000000  0.5484810000000 1.0
C      1  0.5044880000000  0.4826290000000  0.5058710000000 1.0
C      1  0.4840650000000  0.5248600000000  0.5228160000000 1.0
C      1  0.5446740000000  0.5080080000000  0.4713360000000 1.0
C      1  0.5282800000000  0.4625820000000  0.4942830000000 1.0
C      1  0.5543280000000  0.4734330000000  0.4012240000000 1.0
C      1  0.5855030000000  0.5317350000000  0.4891490000000 1.0
C      1  0.5362080000000  0.4983540000000  0.4156570000000 1.0
C      1  0.5652720000000  0.4446520000000  0.5290070000000 1.0
C      1  0.4377790000000  0.5197150000000  0.4952040000000 1.0
C      1  0.5276940000000  0.5424620000000  0.4328310000000 1.0
C      1  0.4618370000000  0.5330750000000  0.4781050000000 1.0
C      1  0.4896950000000  0.5691690000000  0.4577290000000 1.0
C      1  0.4850010000000  0.5157270000000  0.4809730000000 1.0
C      1  0.4993220000000  0.4458800000000  0.4572290000000 1.0
C      1  0.5706740000000  0.4877970000000  0.5718100000000 1.0
C      1  0.4857430000000  0.5563630000000  0.5140970000000 1.0
C      1  0.5580790000000  0.5286320000000  0.4899210000000 1.0
C      1  0.4540170000000  0.5569820000000  0.5893430000000 1.0
C      1  0.4548900000000  0.5356470000000  0.4380610000000 1.0
C      1  0.4194870000000  0.4493310000000  0.4805670000000 1.0
C      1  0.5424680000000  0.4360900000000  0.5049380000000 1.0
C      1  0.5119570000000  0.5782060000000  0.4800190000000 1.0
C      1  0.5113340000000  0.5402230000000  0.4982500000000 1.0
C      1  0.4288300000000  0.5251860000000  0.4431330000000 1.0
C      1  0.4290780000000  0.4652170000000  0.4598940000000 1.0
C      1  0.4418530000000  0.4384710000000  0.5027270000000 1.0
C      1  0.4732290000000  0.4767320000000  0.5167980000000 1.0
C      1  0.4707980000000  0.5120900000000  0.5784180000000 1.0
C      1  0.4749130000000  0.5176240000000  0.4300570000000 1.0
C      1  0.5140130000000  0.4983930000000  0.5623670000000 1.0
C      1  0.4482250000000  0.5264120000000  0.5947950000000 1.0
C      1  0.5165420000000  0.5667950000000  0.5367200000000 1.0
C      1  0.4041070000000  0.5150280000000  0.4959640000000 1.0
C      1  0.5118900000000  0.5102550000000  0.5145030000000 1.0
C      1  0.4061510000000  0.4315080000000  0.5028240000000 1.0
C      1  0.5134020000000  0.5134910000000  0.4666340000000 1.0
C      1  0.5727440000000  0.4590260000000  0.4991130000000 1.0
C      1  0.5236850000000  0.4143640000000  0.5327170000000 1.0
C      1  0.4565820000000  0.4694080000000  0.4542170000000 1.0
C      1  0.5434280000000  0.5171210000000  0.4404680000000 1.0
C      1  0.4683120000000  0.4496140000000  0.4983500000000 1.0
C      1  0.4176900000000  0.5188340000000  0.4677330000000 1.0
C      1  0.5331830000000  0.4663580000000  0.4235470000000 1.0
C      1  0.4755860000000  0.5428370000000  0.5715280000000 1.0
C      1  0.5016040000000  0.4923740000000  0.4452520000000 1.0
C      1  0.5482400000000  0.4224070000000  0.5454370000000 1.0
C      1  0.4250600000000  0.4192440000000  0.5248350000000 1.0
C      1  0.4858060000000  0.4449990000000  0.5532420000000 1.0
C      1  0.5413770000000  0.5519000000000  0.5341930000000 1.0
C      1  0.5592960000000  0.5402560000000  0.5524530000000 1.0
C      1  0.5080280000000  0.5167180000000  0.4222340000000 1.0
C      1  0.4760580000000  0.4714100000000  0.5477310000000 1.0
C      1  0.5279500000000  0.5081770000000  0.5409290000000 1.0
C      1  0.5772130000000  0.4945920000000  0.5332890000000 1.0
C      1  0.4617670000000  0.5586820000000  0.4583780000000 1.0
C      1  0.4649410000000  0.5053540000000  0.5066230000000 1.0
C      1  0.5310850000000  0.4086210000000  0.5037720000000 1.0
C      1  0.4696910000000  0.4904760000000  0.4422760000000 1.0
C      1  0.4446860000000  0.5811410000000  0.5953800000000 1.0
C      1  0.5761260000000  0.4900800000000  0.5056650000000 1.0
END
