TITL C-2778432-5617-737 0.00459896583416468 125000 -206.429161250669 0 0 37 (C1) n - 1
REM
REM in /home/nfs/bkarasulu/CARBON/AIRSS/Generating-Clusters/REBO/Only-C1/SD-CG/HFTN-CG
REM
REM
REM
REM
REM
REM ./C.cell (11c1c37f851c82e70ff6c80c92926a4b)
REM
REM compiler GCC version 9.2.1 20190827 (Red Hat 9.2.1-1)
REM options -cpp -mtune=generic -march=x86-64 -g -O0 -fpre-include=/usr/include/finclude/math-vector-fortran.h
REM seed -1235695490 -817453681 -932538630 1199520319 1779815714 58756522 -417924067 327495806 -138227863 826044782 -2000493268 782265958 -804940665 1167646082 -1224615488 -573437273 1565891250 1940958478 -534644703 -1834400610 -684953182 -1066455025 867369044 -629905529 1796359356 1930529878 1467705914 -224989894 278806506 1896576945 1134469650 -616685107 -819982630
REM
CELL 1.54180   50.00000   50.00000   50.00000   90.00000   90.00000   90.00000
LATT -1
SFAC C  
C      1  0.5057530000000  0.4318810000000  0.5019740000000 1.0
C      1  0.5137140000000  0.4811130000000  0.4905060000000 1.0
C      1  0.5325060000000  0.4813750000000  0.4650080000000 1.0
C      1  0.4962050000000  0.4557030000000  0.4918580000000 1.0
C      1  0.5148230000000  0.4092490000000  0.5115840000000 1.0
C      1  0.5068750000000  0.4668000000000  0.5502100000000 1.0
C      1  0.5497120000000  0.4579710000000  0.4645330000000 1.0
C      1  0.4886850000000  0.5180850000000  0.4576710000000 1.0
C      1  0.4860380000000  0.5252680000000  0.5088110000000 1.0
C      1  0.4631730000000  0.4881010000000  0.5402270000000 1.0
C      1  0.5354510000000  0.5313210000000  0.4583100000000 1.0
C      1  0.5357050000000  0.5060290000000  0.5553240000000 1.0
C      1  0.5064480000000  0.5925830000000  0.4899750000000 1.0
C      1  0.5213600000000  0.5524210000000  0.4673050000000 1.0
C      1  0.4935030000000  0.5058000000000  0.4873450000000 1.0
C      1  0.5626940000000  0.4816180000000  0.5028640000000 1.0
C      1  0.4796350000000  0.4672830000000  0.5496250000000 1.0
C      1  0.4386660000000  0.4874090000000  0.5257490000000 1.0
C      1  0.4644710000000  0.5432610000000  0.5372420000000 1.0
C      1  0.4524590000000  0.5303660000000  0.5105300000000 1.0
C      1  0.4604880000000  0.5018900000000  0.4477290000000 1.0
C      1  0.5670440000000  0.5052880000000  0.4862020000000 1.0
C      1  0.5473390000000  0.5068110000000  0.4647900000000 1.0
C      1  0.4326200000000  0.5100110000000  0.5091310000000 1.0
C      1  0.4103010000000  0.5116850000000  0.4937820000000 1.0
C      1  0.5671050000000  0.4576520000000  0.4866720000000 1.0
C      1  0.5316130000000  0.5327300000000  0.5525250000000 1.0
C      1  0.5284140000000  0.4826510000000  0.5411590000000 1.0
C      1  0.5353730000000  0.4816650000000  0.5137010000000 1.0
C      1  0.4725390000000  0.5271630000000  0.4309220000000 1.0
C      1  0.5191820000000  0.5498820000000  0.5355880000000 1.0
C      1  0.4705410000000  0.4607330000000  0.4810740000000 1.0
C      1  0.4686660000000  0.4879510000000  0.4736070000000 1.0
C      1  0.5040630000000  0.5492280000000  0.5119670000000 1.0
C      1  0.4514160000000  0.4420130000000  0.4769640000000 1.0
C      1  0.4757020000000  0.5134230000000  0.5382780000000 1.0
C      1  0.5097180000000  0.5655870000000  0.4892570000000 1.0
END
