TITL C-2778437-8639-537 0.00113551563060451 125000 -270.28342443449 0 0 47 (C1) n - 1
REM
REM in /home/nfs/bkarasulu/CARBON/AIRSS/Generating-Clusters/REBO/Only-C1/SD-CG/HFTN-CG
REM
REM
REM
REM
REM
REM ./C.cell (11c1c37f851c82e70ff6c80c92926a4b)
REM
REM compiler GCC version 9.2.1 20190827 (Red Hat 9.2.1-1)
REM options -cpp -mtune=generic -march=x86-64 -g -O0 -fpre-include=/usr/include/finclude/math-vector-fortran.h
REM seed -1920990438 -1916650318 132154170 -758039066 817586605 340999412 -100302887 1987110570 971559151 419290957 1531119730 2070434361 -1416641978 -1576741733 1187308926 -2098048575 91240178 1843638780 1016597781 -1938948371 782367482 -1249496090 -207172988 1528130362 -224659926 -2066930385 421320774 -2024528154 -853456164 -938043832 634626094 1586239376 -518720936
REM
CELL 1.54180   50.00000   50.00000   50.00000   90.00000   90.00000   90.00000
LATT -1
SFAC C  
C      1  0.5019590000000  0.4603600000000  0.4472570000000 1.0
C      1  0.5281080000000  0.5074990000000  0.4546600000000 1.0
C      1  0.4280860000000  0.4790820000000  0.5242440000000 1.0
C      1  0.4238250000000  0.5298600000000  0.4945100000000 1.0
C      1  0.4478490000000  0.5411530000000  0.4872700000000 1.0
C      1  0.4911280000000  0.4611830000000  0.5304220000000 1.0
C      1  0.4601550000000  0.5015910000000  0.5164990000000 1.0
C      1  0.5871570000000  0.4468920000000  0.4608580000000 1.0
C      1  0.4924830000000  0.5051150000000  0.4726390000000 1.0
C      1  0.4992810000000  0.5517520000000  0.5429580000000 1.0
C      1  0.5467710000000  0.5258820000000  0.5631650000000 1.0
C      1  0.4636480000000  0.4746830000000  0.4386630000000 1.0
C      1  0.5584540000000  0.4810580000000  0.4821480000000 1.0
C      1  0.5186760000000  0.5330110000000  0.5521780000000 1.0
C      1  0.5174230000000  0.5320320000000  0.4497060000000 1.0
C      1  0.4265210000000  0.5051720000000  0.5086130000000 1.0
C      1  0.6073210000000  0.4301780000000  0.4618070000000 1.0
C      1  0.5770330000000  0.5356270000000  0.5087770000000 1.0
C      1  0.5657230000000  0.4646600000000  0.4598500000000 1.0
C      1  0.4814990000000  0.4801100000000  0.4191320000000 1.0
C      1  0.5766210000000  0.5093730000000  0.5200040000000 1.0
C      1  0.5144370000000  0.5030270000000  0.5058240000000 1.0
C      1  0.4968400000000  0.4830450000000  0.4593550000000 1.0
C      1  0.5506000000000  0.4691360000000  0.4363230000000 1.0
C      1  0.4589870000000  0.4714230000000  0.4649210000000 1.0
C      1  0.5560000000000  0.5519830000000  0.5027740000000 1.0
C      1  0.5079230000000  0.4854320000000  0.4161250000000 1.0
C      1  0.5303730000000  0.4885760000000  0.4328490000000 1.0
C      1  0.4796370000000  0.5496830000000  0.4958760000000 1.0
C      1  0.4894200000000  0.4858320000000  0.5089890000000 1.0
C      1  0.4739000000000  0.5499160000000  0.5552080000000 1.0
C      1  0.5285630000000  0.5541730000000  0.5013550000000 1.0
C      1  0.4293280000000  0.4847930000000  0.5542090000000 1.0
C      1  0.4662610000000  0.4486040000000  0.5330800000000 1.0
C      1  0.5773130000000  0.4874430000000  0.5021860000000 1.0
C      1  0.5579560000000  0.5068060000000  0.5413960000000 1.0
C      1  0.4640970000000  0.4705490000000  0.4919780000000 1.0
C      1  0.4706910000000  0.5178900000000  0.4913320000000 1.0
C      1  0.4473660000000  0.4599410000000  0.5141010000000 1.0
C      1  0.5344140000000  0.4968610000000  0.4806600000000 1.0
C      1  0.5021420000000  0.5595150000000  0.5156580000000 1.0
C      1  0.5080090000000  0.5311070000000  0.4884840000000 1.0
C      1  0.5277810000000  0.5098190000000  0.5322720000000 1.0
C      1  0.4060670000000  0.4669510000000  0.5990310000000 1.0
C      1  0.4174490000000  0.4756820000000  0.5770990000000 1.0
C      1  0.4487800000000  0.5057930000000  0.5456050000000 1.0
C      1  0.4559440000000  0.5297440000000  0.5579510000000 1.0
END
