TITL C-2778427-5640-1129 0.000183346433422833 125000 -367.607663396771 0 0 65 (C1) n - 1
REM
REM in /home/nfs/bkarasulu/CARBON/AIRSS/Generating-Clusters/REBO/Only-C1/SD-CG/HFTN-CG
REM
REM
REM
REM
REM
REM ./C.cell (11c1c37f851c82e70ff6c80c92926a4b)
REM
REM compiler GCC version 9.2.1 20190827 (Red Hat 9.2.1-1)
REM options -cpp -mtune=generic -march=x86-64 -g -O0 -fpre-include=/usr/include/finclude/math-vector-fortran.h
REM seed -1179796507 223992813 1384293020 -29749421 -820580112 1659731360 1909630306 421265310 2046574317 -1155188314 -897398711 -1781025535 297947121 -1491900392 1874629334 1157869193 -1587574764 -1622821563 -1342605760 1491750133 -1334526863 -1135744435 2033956031 1225323720 859113202 210240644 -1881615726 1742993966 1081924909 1902718471 -696415223 974714316 -2143129015
REM
CELL 1.54180   50.00000   50.00000   50.00000   90.00000   90.00000   90.00000
LATT -1
SFAC C  
C      1  0.4074410000000  0.5118510000000  0.4340080000000 1.0
C      1  0.5580330000000  0.4985610000000  0.4599810000000 1.0
C      1  0.5223220000000  0.5419190000000  0.5603560000000 1.0
C      1  0.4949610000000  0.4901730000000  0.4310510000000 1.0
C      1  0.4987540000000  0.5533100000000  0.5728520000000 1.0
C      1  0.4331230000000  0.4993060000000  0.4887350000000 1.0
C      1  0.4568920000000  0.5587800000000  0.5176600000000 1.0
C      1  0.4814760000000  0.5522070000000  0.4868040000000 1.0
C      1  0.4805620000000  0.5774760000000  0.5175940000000 1.0
C      1  0.4990030000000  0.4277860000000  0.5204300000000 1.0
C      1  0.5166330000000  0.4592580000000  0.5376550000000 1.0
C      1  0.5618520000000  0.4849520000000  0.4912330000000 1.0
C      1  0.4831020000000  0.5142090000000  0.4991990000000 1.0
C      1  0.5159760000000  0.4228330000000  0.5033750000000 1.0
C      1  0.5159190000000  0.4480640000000  0.4564570000000 1.0
C      1  0.4347730000000  0.5638670000000  0.4972100000000 1.0
C      1  0.5399750000000  0.5185120000000  0.5220060000000 1.0
C      1  0.5592620000000  0.4959080000000  0.5206620000000 1.0
C      1  0.4975200000000  0.5047610000000  0.5859270000000 1.0
C      1  0.4535250000000  0.5482910000000  0.4793370000000 1.0
C      1  0.4598070000000  0.4292940000000  0.5134380000000 1.0
C      1  0.4972780000000  0.5492350000000  0.5161540000000 1.0
C      1  0.5334550000000  0.4366780000000  0.4792760000000 1.0
C      1  0.5424570000000  0.4523000000000  0.5082610000000 1.0
C      1  0.4788770000000  0.4342450000000  0.4592240000000 1.0
C      1  0.5426630000000  0.4419590000000  0.5367020000000 1.0
C      1  0.5570620000000  0.4807480000000  0.4314490000000 1.0
C      1  0.4627370000000  0.5301270000000  0.5214010000000 1.0
C      1  0.5368360000000  0.4714710000000  0.4152560000000 1.0
C      1  0.5669390000000  0.4871480000000  0.5451920000000 1.0
C      1  0.5108620000000  0.4671200000000  0.4295090000000 1.0
C      1  0.5631670000000  0.4523790000000  0.4825630000000 1.0
C      1  0.5335540000000  0.5651960000000  0.5002160000000 1.0
C      1  0.4895060000000  0.5342530000000  0.4513760000000 1.0
C      1  0.5282940000000  0.5495450000000  0.5301600000000 1.0
C      1  0.5250690000000  0.5126480000000  0.5702040000000 1.0
C      1  0.4966830000000  0.4517750000000  0.4837250000000 1.0
C      1  0.4441490000000  0.5191210000000  0.4676460000000 1.0
C      1  0.5189080000000  0.4802050000000  0.5627420000000 1.0
C      1  0.5499850000000  0.4906690000000  0.5660310000000 1.0
C      1  0.4950040000000  0.5940300000000  0.4989400000000 1.0
C      1  0.5389470000000  0.4662550000000  0.3882440000000 1.0
C      1  0.4549890000000  0.4670370000000  0.5247290000000 1.0
C      1  0.5013590000000  0.5591850000000  0.4639860000000 1.0
C      1  0.4851390000000  0.5307100000000  0.5922670000000 1.0
C      1  0.4526160000000  0.5270200000000  0.4202220000000 1.0
C      1  0.4678480000000  0.5426490000000  0.5677410000000 1.0
C      1  0.5119020000000  0.4669270000000  0.5048520000000 1.0
C      1  0.4921770000000  0.4597640000000  0.5605090000000 1.0
C      1  0.4586490000000  0.4964560000000  0.5591350000000 1.0
C      1  0.4695520000000  0.4323700000000  0.4887040000000 1.0
C      1  0.5144790000000  0.5785190000000  0.4837940000000 1.0
C      1  0.4334810000000  0.5190790000000  0.4395030000000 1.0
C      1  0.4757390000000  0.5166910000000  0.4697480000000 1.0
C      1  0.4592580000000  0.5226580000000  0.5484820000000 1.0
C      1  0.5368900000000  0.5069670000000  0.4839560000000 1.0
C      1  0.5059770000000  0.5173820000000  0.5241520000000 1.0
C      1  0.4930750000000  0.4386250000000  0.4328720000000 1.0
C      1  0.4765840000000  0.4456100000000  0.5377810000000 1.0
C      1  0.4788060000000  0.5342470000000  0.4249670000000 1.0
C      1  0.5421540000000  0.5371630000000  0.4948270000000 1.0
C      1  0.4807200000000  0.4856190000000  0.5732700000000 1.0
C      1  0.5719990000000  0.4678030000000  0.4568570000000 1.0
C      1  0.4410660000000  0.4826500000000  0.5082150000000 1.0
C      1  0.5121990000000  0.4964430000000  0.4991900000000 1.0
END
