TITL C-2778425-5191-447 0.00177953064106189 125000 -1016.99670651116 0 0 174 (C1) n - 1
REM
REM in /home/nfs/bkarasulu/CARBON/AIRSS/Generating-Clusters/REBO/Only-C1/SD-CG/HFTN-CG
REM
REM
REM
REM
REM
REM ./C.cell (11c1c37f851c82e70ff6c80c92926a4b)
REM
REM compiler GCC version 9.2.1 20190827 (Red Hat 9.2.1-1)
REM options -cpp -mtune=generic -march=x86-64 -g -O0 -fpre-include=/usr/include/finclude/math-vector-fortran.h
REM seed -594001172 -1693499779 1740193525 -1592018581 550177689 -1162084398 1485493258 -1770369932 2010495598 103941112 1690441399 -1186921118 85617281 103229852 -1492139047 1022225456 -737832588 868752423 -1560838066 1942007570 -1650951926 1030410102 -134664824 -1706477226 -1909573943 12039060 25788166 1895007076 1262531025 -2092762996 -171444418 -259432605 -12988226
REM
CELL 1.54180   50.00000   50.00000   50.00000   90.00000   90.00000   90.00000
LATT -1
SFAC C  
C      1  0.4421510000000  0.5290160000000  0.5788100000000 1.0
C      1  0.5383840000000  0.5943790000000  0.5464930000000 1.0
C      1  0.5562140000000  0.3962960000000  0.4877750000000 1.0
C      1  0.5152410000000  0.5630970000000  0.5384930000000 1.0
C      1  0.4983200000000  0.4126460000000  0.4794590000000 1.0
C      1  0.4307460000000  0.4266370000000  0.5134590000000 1.0
C      1  0.4444250000000  0.4191280000000  0.4440120000000 1.0
C      1  0.4022150000000  0.4875050000000  0.5033660000000 1.0
C      1  0.4928840000000  0.4741650000000  0.4713300000000 1.0
C      1  0.5159600000000  0.5522680000000  0.5916650000000 1.0
C      1  0.5586900000000  0.4903850000000  0.6127450000000 1.0
C      1  0.5426110000000  0.4312650000000  0.5786860000000 1.0
C      1  0.4771540000000  0.6062080000000  0.4992880000000 1.0
C      1  0.4872340000000  0.5537300000000  0.5292490000000 1.0
C      1  0.5534690000000  0.4480660000000  0.5568220000000 1.0
C      1  0.4741200000000  0.4970850000000  0.4014350000000 1.0
C      1  0.4240960000000  0.5176260000000  0.5600530000000 1.0
C      1  0.4271000000000  0.4567090000000  0.4984580000000 1.0
C      1  0.5307480000000  0.5692180000000  0.4230610000000 1.0
C      1  0.5526830000000  0.4521120000000  0.5003910000000 1.0
C      1  0.5322380000000  0.5895820000000  0.4462990000000 1.0
C      1  0.5694860000000  0.4415720000000  0.4745170000000 1.0
C      1  0.5846240000000  0.5239790000000  0.5645910000000 1.0
C      1  0.4592240000000  0.5230180000000  0.4423540000000 1.0
C      1  0.5066080000000  0.4559710000000  0.4266820000000 1.0
C      1  0.5430170000000  0.5169840000000  0.4780570000000 1.0
C      1  0.5150000000000  0.4724170000000  0.5044030000000 1.0
C      1  0.4722770000000  0.5666950000000  0.5911860000000 1.0
C      1  0.4849050000000  0.4344510000000  0.4196200000000 1.0
C      1  0.5355330000000  0.5182070000000  0.5775640000000 1.0
C      1  0.6082520000000  0.5091240000000  0.5695060000000 1.0
C      1  0.4704110000000  0.4632480000000  0.4078250000000 1.0
C      1  0.4882150000000  0.4090100000000  0.4324530000000 1.0
C      1  0.5057990000000  0.4978080000000  0.5606530000000 1.0
C      1  0.5309110000000  0.4481150000000  0.6029310000000 1.0
C      1  0.4754490000000  0.4739610000000  0.5424220000000 1.0
C      1  0.5648300000000  0.4756730000000  0.5668640000000 1.0
C      1  0.4884750000000  0.4365770000000  0.5396220000000 1.0
C      1  0.5008890000000  0.5768610000000  0.4860670000000 1.0
C      1  0.4512320000000  0.4912640000000  0.5852570000000 1.0
C      1  0.5102330000000  0.4066030000000  0.4514820000000 1.0
C      1  0.4528630000000  0.5894050000000  0.5008890000000 1.0
C      1  0.4973560000000  0.4814940000000  0.4415040000000 1.0
C      1  0.4612590000000  0.5047860000000  0.4699100000000 1.0
C      1  0.4068450000000  0.5122850000000  0.4852410000000 1.0
C      1  0.4419000000000  0.4013470000000  0.4936240000000 1.0
C      1  0.4903950000000  0.5234320000000  0.5549200000000 1.0
C      1  0.5475640000000  0.4991970000000  0.4222510000000 1.0
C      1  0.5783170000000  0.4964230000000  0.4167520000000 1.0
C      1  0.4996480000000  0.5568180000000  0.4168860000000 1.0
C      1  0.4521420000000  0.4963490000000  0.5409870000000 1.0
C      1  0.4901160000000  0.5450940000000  0.5988000000000 1.0
C      1  0.5063550000000  0.4788870000000  0.5366890000000 1.0
C      1  0.5009130000000  0.4762120000000  0.3998360000000 1.0
C      1  0.4797670000000  0.4716850000000  0.6125820000000 1.0
C      1  0.5743400000000  0.5911640000000  0.4690710000000 1.0
C      1  0.4581280000000  0.4451810000000  0.4482210000000 1.0
C      1  0.4771880000000  0.5412030000000  0.4730400000000 1.0
C      1  0.4820030000000  0.5773440000000  0.4360820000000 1.0
C      1  0.5359730000000  0.4177880000000  0.4486130000000 1.0
C      1  0.4334680000000  0.4263370000000  0.4733050000000 1.0
C      1  0.4062200000000  0.4462450000000  0.5266350000000 1.0
C      1  0.4862200000000  0.4241720000000  0.5793860000000 1.0
C      1  0.5317860000000  0.4468790000000  0.4430600000000 1.0
C      1  0.5888430000000  0.4559490000000  0.5169340000000 1.0
C      1  0.5985820000000  0.4798160000000  0.5322030000000 1.0
C      1  0.4867230000000  0.5385780000000  0.4414620000000 1.0
C      1  0.5431960000000  0.3923820000000  0.5113630000000 1.0
C      1  0.4396230000000  0.5202190000000  0.4881210000000 1.0
C      1  0.5156840000000  0.4954710000000  0.4807280000000 1.0
C      1  0.5466980000000  0.5982540000000  0.4694830000000 1.0
C      1  0.5379230000000  0.5637320000000  0.5131150000000 1.0
C      1  0.5810040000000  0.4803290000000  0.4964100000000 1.0
C      1  0.4438590000000  0.4787720000000  0.4332830000000 1.0
C      1  0.4679890000000  0.4054260000000  0.5532300000000 1.0
C      1  0.5793530000000  0.5687780000000  0.4856200000000 1.0
C      1  0.4402300000000  0.5695890000000  0.4389110000000 1.0
C      1  0.4349410000000  0.4863760000000  0.5132000000000 1.0
C      1  0.4870100000000  0.5288840000000  0.4016710000000 1.0
C      1  0.5380930000000  0.5141990000000  0.4437830000000 1.0
C      1  0.5540420000000  0.4844160000000  0.4771990000000 1.0
C      1  0.5659990000000  0.4399860000000  0.5283750000000 1.0
C      1  0.4472260000000  0.5567170000000  0.5750800000000 1.0
C      1  0.5948540000000  0.5728100000000  0.5089700000000 1.0
C      1  0.4799790000000  0.4020830000000  0.5047490000000 1.0
C      1  0.4307500000000  0.5271320000000  0.4572520000000 1.0
C      1  0.5333200000000  0.4579060000000  0.4722140000000 1.0
C      1  0.4493940000000  0.5534710000000  0.4184340000000 1.0
C      1  0.5843820000000  0.5493300000000  0.5516180000000 1.0
C      1  0.5782120000000  0.4684230000000  0.4583570000000 1.0
C      1  0.5356090000000  0.5933530000000  0.4964050000000 1.0
C      1  0.4940280000000  0.6045030000000  0.5229140000000 1.0
C      1  0.5514480000000  0.5498660000000  0.4192950000000 1.0
C      1  0.5124580000000  0.4404520000000  0.4927110000000 1.0
C      1  0.4658120000000  0.5017820000000  0.5119000000000 1.0
C      1  0.5127990000000  0.5310110000000  0.4559260000000 1.0
C      1  0.5167310000000  0.5187670000000  0.4059350000000 1.0
C      1  0.4170790000000  0.4524080000000  0.4687880000000 1.0
C      1  0.4155010000000  0.4618070000000  0.5518120000000 1.0
C      1  0.5599720000000  0.5149120000000  0.5996300000000 1.0
C      1  0.5074830000000  0.5706080000000  0.4551440000000 1.0
C      1  0.5365490000000  0.5529280000000  0.4610090000000 1.0
C      1  0.4336160000000  0.4430830000000  0.5642890000000 1.0
C      1  0.4799910000000  0.4453950000000  0.4700400000000 1.0
C      1  0.5278010000000  0.5712850000000  0.5693400000000 1.0
C      1  0.5145030000000  0.5454610000000  0.4864840000000 1.0
C      1  0.5437140000000  0.4794690000000  0.5185990000000 1.0
C      1  0.4013580000000  0.4748390000000  0.4501590000000 1.0
C      1  0.4522350000000  0.4224440000000  0.5778050000000 1.0
C      1  0.4918410000000  0.5237300000000  0.5138930000000 1.0
C      1  0.5481770000000  0.5415830000000  0.5367940000000 1.0
C      1  0.4059400000000  0.5110870000000  0.5251540000000 1.0
C      1  0.5354200000000  0.4754110000000  0.6056490000000 1.0
C      1  0.5973240000000  0.5506810000000  0.5261710000000 1.0
C      1  0.5731830000000  0.5258100000000  0.4629060000000 1.0
C      1  0.4641950000000  0.3987190000000  0.4448060000000 1.0
C      1  0.5732960000000  0.4693020000000  0.4286140000000 1.0
C      1  0.5162580000000  0.4948780000000  0.5911350000000 1.0
C      1  0.4190140000000  0.5393810000000  0.5354730000000 1.0
C      1  0.5256710000000  0.5224370000000  0.5082050000000 1.0
C      1  0.4769430000000  0.5905930000000  0.5407960000000 1.0
C      1  0.5241970000000  0.4026010000000  0.5271930000000 1.0
C      1  0.5737500000000  0.5392410000000  0.4348710000000 1.0
C      1  0.5308310000000  0.4564970000000  0.5374450000000 1.0
C      1  0.4140180000000  0.4900780000000  0.5508700000000 1.0
C      1  0.4509880000000  0.5202120000000  0.4110450000000 1.0
C      1  0.5584400000000  0.5679820000000  0.5544810000000 1.0
C      1  0.4493710000000  0.4289750000000  0.5387590000000 1.0
C      1  0.5027840000000  0.5040140000000  0.4284020000000 1.0
C      1  0.4623880000000  0.4663250000000  0.5904110000000 1.0
C      1  0.5583070000000  0.4155460000000  0.4668750000000 1.0
C      1  0.5824930000000  0.5041420000000  0.5193180000000 1.0
C      1  0.5312840000000  0.4795120000000  0.4058520000000 1.0
C      1  0.5409940000000  0.5314780000000  0.3997510000000 1.0
C      1  0.5983460000000  0.5272250000000  0.5107010000000 1.0
C      1  0.4497870000000  0.5504670000000  0.4912170000000 1.0
C      1  0.4082520000000  0.5394740000000  0.5047690000000 1.0
C      1  0.4675020000000  0.5954630000000  0.4527310000000 1.0
C      1  0.6136310000000  0.4863210000000  0.5549280000000 1.0
C      1  0.4752490000000  0.5655290000000  0.5587730000000 1.0
C      1  0.4202780000000  0.5644870000000  0.4875910000000 1.0
C      1  0.5162140000000  0.4338460000000  0.5238280000000 1.0
C      1  0.4680140000000  0.4741680000000  0.4946410000000 1.0
C      1  0.4690920000000  0.3923880000000  0.4745700000000 1.0
C      1  0.4656700000000  0.4524340000000  0.5198710000000 1.0
C      1  0.5230500000000  0.6016280000000  0.5232280000000 1.0
C      1  0.5481620000000  0.4593440000000  0.4206570000000 1.0
C      1  0.4288680000000  0.5025470000000  0.4264140000000 1.0
C      1  0.4386270000000  0.4546530000000  0.4149520000000 1.0
C      1  0.5595820000000  0.5059970000000  0.5606580000000 1.0
C      1  0.4754700000000  0.4527990000000  0.5668260000000 1.0
C      1  0.4071940000000  0.5049840000000  0.4520350000000 1.0
C      1  0.5540560000000  0.5503430000000  0.4877930000000 1.0
C      1  0.5908930000000  0.4973030000000  0.4691890000000 1.0
C      1  0.4911140000000  0.4967720000000  0.6079900000000 1.0
C      1  0.4914220000000  0.4036840000000  0.5317000000000 1.0
C      1  0.5905840000000  0.5217430000000  0.4190750000000 1.0
C      1  0.4202120000000  0.5549790000000  0.4564430000000 1.0
C      1  0.4482580000000  0.5476030000000  0.5356380000000 1.0
C      1  0.4875830000000  0.6046390000000  0.4718760000000 1.0
C      1  0.4157970000000  0.4505170000000  0.4345070000000 1.0
C      1  0.5126770000000  0.4247040000000  0.5892920000000 1.0
C      1  0.4538480000000  0.4748270000000  0.4635520000000 1.0
C      1  0.4795200000000  0.5595960000000  0.5006130000000 1.0
C      1  0.4423860000000  0.5842590000000  0.4700940000000 1.0
C      1  0.3890030000000  0.4633550000000  0.5083930000000 1.0
C      1  0.6004880000000  0.5266580000000  0.4823180000000 1.0
C      1  0.4643130000000  0.5256120000000  0.5457310000000 1.0
C      1  0.4697140000000  0.5180770000000  0.5956300000000 1.0
C      1  0.4632730000000  0.4284160000000  0.4903090000000 1.0
C      1  0.4898720000000  0.5124430000000  0.4824620000000 1.0
C      1  0.4535540000000  0.5751340000000  0.5266540000000 1.0
C      1  0.5209420000000  0.5344390000000  0.5562220000000 1.0
C      1  0.5509860000000  0.5091440000000  0.5276170000000 1.0
END
