TITL C-2778429-3646-1288 0.00356779594480798 125000 -461.884136671344 0 0 79 (C1) n - 1
REM
REM in /home/nfs/bkarasulu/CARBON/AIRSS/Generating-Clusters/REBO/Only-C1/SD-CG/HFTN-CG
REM
REM
REM
REM
REM
REM ./C.cell (11c1c37f851c82e70ff6c80c92926a4b)
REM
REM compiler GCC version 9.2.1 20190827 (Red Hat 9.2.1-1)
REM options -cpp -mtune=generic -march=x86-64 -g -O0 -fpre-include=/usr/include/finclude/math-vector-fortran.h
REM seed 1553988240 1561030443 1099078143 -1630674914 466418992 -855115512 -232524027 268510021 393817084 676275320 -1166967328 469091061 1394522703 -559777880 216428095 515842398 1844825555 1885166545 -2095096767 -952011376 176171397 1716426234 1720076938 -80110595 -2063103174 -507930909 943636106 -1095417301 -1560656195 -1304696557 -1698132352 -1339024329 1359092211
REM
CELL 1.54180   50.00000   50.00000   50.00000   90.00000   90.00000   90.00000
LATT -1
SFAC C  
C      1  0.5124640000000  0.4126640000000  0.4696670000000 1.0
C      1  0.5175140000000  0.4135930000000  0.4393800000000 1.0
C      1  0.5640860000000  0.5231220000000  0.5377670000000 1.0
C      1  0.4964700000000  0.5340430000000  0.5472370000000 1.0
C      1  0.5246700000000  0.5632320000000  0.5716460000000 1.0
C      1  0.4753290000000  0.4445440000000  0.5333650000000 1.0
C      1  0.4585840000000  0.5494400000000  0.5753380000000 1.0
C      1  0.4100630000000  0.4842330000000  0.5319340000000 1.0
C      1  0.5003760000000  0.4909420000000  0.4798920000000 1.0
C      1  0.4383050000000  0.4593900000000  0.5616720000000 1.0
C      1  0.5772150000000  0.4773250000000  0.5059840000000 1.0
C      1  0.5304380000000  0.4909160000000  0.5517730000000 1.0
C      1  0.4384790000000  0.4452540000000  0.5004000000000 1.0
C      1  0.5018580000000  0.4430770000000  0.4459540000000 1.0
C      1  0.4629690000000  0.4922110000000  0.4674460000000 1.0
C      1  0.4333360000000  0.4560970000000  0.4741070000000 1.0
C      1  0.5165630000000  0.5108250000000  0.4746210000000 1.0
C      1  0.4542210000000  0.5042310000000  0.5442110000000 1.0
C      1  0.4733480000000  0.4635230000000  0.4068970000000 1.0
C      1  0.4729790000000  0.4527720000000  0.4370550000000 1.0
C      1  0.4989940000000  0.5319420000000  0.5147680000000 1.0
C      1  0.5593200000000  0.5355170000000  0.4504120000000 1.0
C      1  0.5517150000000  0.4677950000000  0.4238940000000 1.0
C      1  0.5435580000000  0.5184540000000  0.4339610000000 1.0
C      1  0.4641150000000  0.5917180000000  0.5340550000000 1.0
C      1  0.4846370000000  0.5551210000000  0.5013610000000 1.0
C      1  0.4681080000000  0.5224240000000  0.4685030000000 1.0
C      1  0.4907150000000  0.5359590000000  0.4575280000000 1.0
C      1  0.5699280000000  0.5102800000000  0.5103490000000 1.0
C      1  0.4608700000000  0.4167810000000  0.4671240000000 1.0
C      1  0.5007340000000  0.4552890000000  0.5409770000000 1.0
C      1  0.5507060000000  0.5725030000000  0.5120200000000 1.0
C      1  0.4512800000000  0.4842650000000  0.5676270000000 1.0
C      1  0.5609000000000  0.4419980000000  0.4739220000000 1.0
C      1  0.4308340000000  0.5019110000000  0.5238240000000 1.0
C      1  0.4983380000000  0.4963250000000  0.4280800000000 1.0
C      1  0.5518230000000  0.4932960000000  0.4796060000000 1.0
C      1  0.5215170000000  0.6149550000000  0.5667780000000 1.0
C      1  0.4665940000000  0.5310220000000  0.5573380000000 1.0
C      1  0.5004560000000  0.5625110000000  0.4613720000000 1.0
C      1  0.4856390000000  0.5061950000000  0.5327550000000 1.0
C      1  0.4350840000000  0.4851620000000  0.4761230000000 1.0
C      1  0.5146260000000  0.5176950000000  0.4431420000000 1.0
C      1  0.5614300000000  0.5246270000000  0.4806850000000 1.0
C      1  0.4809460000000  0.5887160000000  0.5565510000000 1.0
C      1  0.4560290000000  0.4386650000000  0.5534860000000 1.0
C      1  0.5409010000000  0.5179000000000  0.5537870000000 1.0
C      1  0.4684190000000  0.5749210000000  0.5780140000000 1.0
C      1  0.5043260000000  0.4839470000000  0.5401880000000 1.0
C      1  0.5055520000000  0.4516950000000  0.4748890000000 1.0
C      1  0.4131010000000  0.4626720000000  0.5488270000000 1.0
C      1  0.5452670000000  0.4837830000000  0.5117050000000 1.0
C      1  0.4891040000000  0.4864810000000  0.4041230000000 1.0
C      1  0.4562450000000  0.5566370000000  0.5002440000000 1.0
C      1  0.5249780000000  0.4442320000000  0.5526370000000 1.0
C      1  0.4509490000000  0.4411330000000  0.4553710000000 1.0
C      1  0.5116820000000  0.5902950000000  0.5578020000000 1.0
C      1  0.5321780000000  0.4667670000000  0.4865930000000 1.0
C      1  0.4652250000000  0.4512000000000  0.5081040000000 1.0
C      1  0.5219860000000  0.5381880000000  0.5612600000000 1.0
C      1  0.4853010000000  0.4082190000000  0.4761160000000 1.0
C      1  0.5279310000000  0.5767830000000  0.5343080000000 1.0
C      1  0.5253970000000  0.5275050000000  0.4977670000000 1.0
C      1  0.5428590000000  0.4653910000000  0.5588270000000 1.0
C      1  0.4476820000000  0.5785510000000  0.5161770000000 1.0
C      1  0.4478250000000  0.5321370000000  0.4873160000000 1.0
C      1  0.4322880000000  0.5084830000000  0.4958950000000 1.0
C      1  0.4628520000000  0.4900750000000  0.5920510000000 1.0
C      1  0.5320880000000  0.4329940000000  0.4856500000000 1.0
C      1  0.5314350000000  0.4417210000000  0.4291840000000 1.0
C      1  0.5525450000000  0.4950460000000  0.4215040000000 1.0
C      1  0.4860220000000  0.4793530000000  0.4504360000000 1.0
C      1  0.5346270000000  0.5465920000000  0.5243590000000 1.0
C      1  0.5592920000000  0.4470680000000  0.4466930000000 1.0
C      1  0.4798030000000  0.4664520000000  0.4873150000000 1.0
C      1  0.5276250000000  0.5696950000000  0.4644260000000 1.0
C      1  0.5521390000000  0.5630370000000  0.4486320000000 1.0
C      1  0.5442650000000  0.5534400000000  0.4865890000000 1.0
C      1  0.5799510000000  0.4550530000000  0.4906240000000 1.0
END
