TITL C-2778430-5657-498 0.172026761860979 125000 -122.423514707119 0 0 22 (C1) n - 1
REM
REM in /home/nfs/bkarasulu/CARBON/AIRSS/Generating-Clusters/REBO/Only-C1/SD-CG/HFTN-CG
REM
REM
REM
REM
REM
REM ./C.cell (11c1c37f851c82e70ff6c80c92926a4b)
REM
REM compiler GCC version 9.2.1 20190827 (Red Hat 9.2.1-1)
REM options -cpp -mtune=generic -march=x86-64 -g -O0 -fpre-include=/usr/include/finclude/math-vector-fortran.h
REM seed 1663296383 312919000 707368474 543612174 548085488 1385513834 1995523927 702613748 622708380 -958934730 1239505044 -1688961981 -254164918 1364057187 1493395771 1798239443 594798998 1366752241 1639901382 -1531839724 1308886121 1613336363 -548850980 -964535195 2011639288 -2108786678 1425910124 1312966798 -1314444044 -2128052548 280308483 1532192472 -210247657
REM
CELL 1.54180   50.00000   50.00000   50.00000   90.00000   90.00000   90.00000
LATT -1
SFAC C  
C      1  0.4633520000000  0.4147110000000  0.5399640000000 1.0
C      1  0.5151200000000  0.4705520000000  0.5320300000000 1.0
C      1  0.5110480000000  0.4114910000000  0.5320690000000 1.0
C      1  0.4562760000000  0.5918920000000  0.4489020000000 1.0
C      1  0.5129400000000  0.5246820000000  0.4843760000000 1.0
C      1  0.5489970000000  0.4391060000000  0.5171210000000 1.0
C      1  0.4837500000000  0.5750340000000  0.4501010000000 1.0
C      1  0.4787430000000  0.5019390000000  0.5288370000000 1.0
C      1  0.5389860000000  0.4654470000000  0.5168390000000 1.0
C      1  0.4505050000000  0.5726640000000  0.4718110000000 1.0
C      1  0.4683190000000  0.4746370000000  0.5326740000000 1.0
C      1  0.5072540000000  0.4984880000000  0.5347500000000 1.0
C      1  0.5066820000000  0.5768900000000  0.4349010000000 1.0
C      1  0.5284760000000  0.5786540000000  0.4204550000000 1.0
C      1  0.5366870000000  0.4157710000000  0.5240740000000 1.0
C      1  0.4761620000000  0.5554340000000  0.4744440000000 1.0
C      1  0.4869970000000  0.5347140000000  0.4892310000000 1.0
C      1  0.4874940000000  0.4265900000000  0.5358790000000 1.0
C      1  0.5337870000000  0.5079770000000  0.4878620000000 1.0
C      1  0.4900860000000  0.4547920000000  0.5343670000000 1.0
C      1  0.4726530000000  0.5221970000000  0.5102900000000 1.0
C      1  0.5456880000000  0.4863410000000  0.4990240000000 1.0
END
