TITL C-2778429-3646-567 0.0289714622353243 125000 -226.025240696446 0 0 40 (C1) n - 1
REM
REM in /home/nfs/bkarasulu/CARBON/AIRSS/Generating-Clusters/REBO/Only-C1/SD-CG/HFTN-CG
REM
REM
REM
REM
REM
REM ./C.cell (11c1c37f851c82e70ff6c80c92926a4b)
REM
REM compiler GCC version 9.2.1 20190827 (Red Hat 9.2.1-1)
REM options -cpp -mtune=generic -march=x86-64 -g -O0 -fpre-include=/usr/include/finclude/math-vector-fortran.h
REM seed 1464133893 -911369799 -73234731 587243906 -81838854 -447648568 -1582748650 1683718300 1283103410 -1480428757 269022967 -751261049 -1093425954 -844545613 -693553223 -588656576 234773967 1112788918 579536674 -677307787 1901810615 1867474113 725252238 1514262903 -882028849 1821809263 327866212 -1272715370 -1102207317 -1737009937 -1147208438 -1631870358 -750334082
REM
CELL 1.54180   50.00000   50.00000   50.00000   90.00000   90.00000   90.00000
LATT -1
SFAC C  
C      1  0.5815270000000  0.5208580000000  0.4658160000000 1.0
C      1  0.5284520000000  0.4533370000000  0.5089380000000 1.0
C      1  0.4612150000000  0.4644110000000  0.5577530000000 1.0
C      1  0.4525630000000  0.5361040000000  0.5041970000000 1.0
C      1  0.5336760000000  0.5612200000000  0.4863260000000 1.0
C      1  0.5108200000000  0.4880010000000  0.4823060000000 1.0
C      1  0.5655540000000  0.4527350000000  0.4448550000000 1.0
C      1  0.4872110000000  0.4794380000000  0.4645650000000 1.0
C      1  0.4929350000000  0.5261910000000  0.5398160000000 1.0
C      1  0.5185350000000  0.4785400000000  0.5576930000000 1.0
C      1  0.5167400000000  0.5283730000000  0.5199940000000 1.0
C      1  0.5255630000000  0.5572540000000  0.5123770000000 1.0
C      1  0.5092080000000  0.5243910000000  0.4669070000000 1.0
C      1  0.4824150000000  0.4445340000000  0.4974520000000 1.0
C      1  0.5530980000000  0.4627740000000  0.4647370000000 1.0
C      1  0.4691770000000  0.4658070000000  0.4833890000000 1.0
C      1  0.4953770000000  0.4437980000000  0.5898210000000 1.0
C      1  0.4953630000000  0.5067800000000  0.4207690000000 1.0
C      1  0.4940260000000  0.4733790000000  0.5371240000000 1.0
C      1  0.5382520000000  0.4747390000000  0.4884330000000 1.0
C      1  0.4969700000000  0.5050480000000  0.4489500000000 1.0
C      1  0.4340600000000  0.5398170000000  0.4840130000000 1.0
C      1  0.4479470000000  0.4729380000000  0.5280110000000 1.0
C      1  0.5384380000000  0.4936780000000  0.5479410000000 1.0
C      1  0.5401600000000  0.5093080000000  0.5242710000000 1.0
C      1  0.4916970000000  0.4603090000000  0.5683000000000 1.0
C      1  0.4773370000000  0.5484000000000  0.5437570000000 1.0
C      1  0.5571520000000  0.5197150000000  0.4778150000000 1.0
C      1  0.4497040000000  0.4947470000000  0.5532490000000 1.0
C      1  0.5510450000000  0.5007740000000  0.4992340000000 1.0
C      1  0.4565620000000  0.4831010000000  0.5026020000000 1.0
C      1  0.4772380000000  0.4990700000000  0.5352340000000 1.0
C      1  0.5020120000000  0.4529600000000  0.5162600000000 1.0
C      1  0.5349950000000  0.5376300000000  0.4699260000000 1.0
C      1  0.5050920000000  0.5289270000000  0.4081760000000 1.0
C      1  0.4165100000000  0.5433380000000  0.4648710000000 1.0
C      1  0.4702900000000  0.5117110000000  0.5050580000000 1.0
C      1  0.4841160000000  0.4862690000000  0.4067500000000 1.0
C      1  0.4998800000000  0.5156320000000  0.4965400000000 1.0
C      1  0.4570880000000  0.5539640000000  0.5257750000000 1.0
END
