TITL C-2778436-5916-1008 -0.000721933302704744 125000 -440.862687216027 0 0 77 (C1) n - 1
REM
REM in /home/nfs/bkarasulu/CARBON/AIRSS/Generating-Clusters/REBO/Only-C1/SD-CG/HFTN-CG
REM
REM
REM
REM
REM
REM ./C.cell (11c1c37f851c82e70ff6c80c92926a4b)
REM
REM compiler GCC version 9.2.1 20190827 (Red Hat 9.2.1-1)
REM options -cpp -mtune=generic -march=x86-64 -g -O0 -fpre-include=/usr/include/finclude/math-vector-fortran.h
REM seed 1086216263 416118782 151092300 736090564 -1802045530 1116917456 -922759988 1425551844 1031336375 -85824515 -591709044 -1594191213 556952791 99838228 2062304666 1909516691 -120351050 2129922981 -838798014 1263289865 -360352683 1546814165 -1434584594 -2103174705 91151475 -1542528654 -1935105608 1228446812 -97104998 -1534202639 896611498 1417065198 1589805808
REM
CELL 1.54180   50.00000   50.00000   50.00000   90.00000   90.00000   90.00000
LATT -1
SFAC C  
C      1  0.5679660000000  0.4980130000000  0.4948190000000 1.0
C      1  0.5520630000000  0.5045360000000  0.4405700000000 1.0
C      1  0.5234040000000  0.4652060000000  0.5497030000000 1.0
C      1  0.4681360000000  0.4599030000000  0.4435980000000 1.0
C      1  0.5185750000000  0.4568630000000  0.4384870000000 1.0
C      1  0.4926200000000  0.4737040000000  0.4834660000000 1.0
C      1  0.4831100000000  0.5220680000000  0.4336010000000 1.0
C      1  0.4989570000000  0.4267070000000  0.5066470000000 1.0
C      1  0.5229020000000  0.5680040000000  0.5141910000000 1.0
C      1  0.5783780000000  0.5250890000000  0.5393150000000 1.0
C      1  0.4917920000000  0.5342200000000  0.5574290000000 1.0
C      1  0.5448610000000  0.5436040000000  0.4763350000000 1.0
C      1  0.5688100000000  0.5060150000000  0.4619990000000 1.0
C      1  0.5637860000000  0.4311960000000  0.4928270000000 1.0
C      1  0.5487430000000  0.4460310000000  0.4734750000000 1.0
C      1  0.4372370000000  0.4978570000000  0.4358820000000 1.0
C      1  0.5472170000000  0.4774360000000  0.4796260000000 1.0
C      1  0.5198820000000  0.4973690000000  0.5732570000000 1.0
C      1  0.4625180000000  0.5222380000000  0.5632090000000 1.0
C      1  0.5126960000000  0.5235260000000  0.5763630000000 1.0
C      1  0.4185500000000  0.5071850000000  0.5139410000000 1.0
C      1  0.4525820000000  0.4991690000000  0.5321200000000 1.0
C      1  0.5556610000000  0.5597030000000  0.4483830000000 1.0
C      1  0.4300430000000  0.4630600000000  0.4743940000000 1.0
C      1  0.5172140000000  0.4930450000000  0.4754020000000 1.0
C      1  0.5433500000000  0.5629600000000  0.5551040000000 1.0
C      1  0.4822330000000  0.4728990000000  0.5318250000000 1.0
C      1  0.5278030000000  0.4836690000000  0.5236380000000 1.0
C      1  0.5593130000000  0.5460300000000  0.5376340000000 1.0
C      1  0.5235980000000  0.4400320000000  0.4606880000000 1.0
C      1  0.4987830000000  0.4419790000000  0.4787120000000 1.0
C      1  0.4501920000000  0.5470140000000  0.5075980000000 1.0
C      1  0.4780270000000  0.5632360000000  0.4640130000000 1.0
C      1  0.5245320000000  0.4876500000000  0.4457070000000 1.0
C      1  0.4918690000000  0.4704340000000  0.4308660000000 1.0
C      1  0.5049480000000  0.5423100000000  0.5046890000000 1.0
C      1  0.5537740000000  0.4521460000000  0.5416080000000 1.0
C      1  0.4579260000000  0.4493530000000  0.5272880000000 1.0
C      1  0.4554550000000  0.5373470000000  0.4825920000000 1.0
C      1  0.4641400000000  0.4905700000000  0.5624970000000 1.0
C      1  0.4895900000000  0.5649370000000  0.5478560000000 1.0
C      1  0.4377410000000  0.4791070000000  0.5101160000000 1.0
C      1  0.4465270000000  0.4654840000000  0.5527910000000 1.0
C      1  0.4836890000000  0.5295410000000  0.4652630000000 1.0
C      1  0.4720360000000  0.4393350000000  0.4635820000000 1.0
C      1  0.4470850000000  0.4990790000000  0.4766670000000 1.0
C      1  0.5333330000000  0.5141730000000  0.4179070000000 1.0
C      1  0.4807990000000  0.5019050000000  0.5164210000000 1.0
C      1  0.5532010000000  0.4318270000000  0.5215040000000 1.0
C      1  0.5741090000000  0.4989510000000  0.5280800000000 1.0
C      1  0.5267650000000  0.4366250000000  0.5067200000000 1.0
C      1  0.5020560000000  0.5022950000000  0.4246660000000 1.0
C      1  0.5192410000000  0.5858450000000  0.4879130000000 1.0
C      1  0.5400490000000  0.5094240000000  0.5100940000000 1.0
C      1  0.5618530000000  0.4804310000000  0.5463100000000 1.0
C      1  0.5469930000000  0.4917390000000  0.5679780000000 1.0
C      1  0.4901430000000  0.5702890000000  0.4917020000000 1.0
C      1  0.4954240000000  0.4791440000000  0.5625540000000 1.0
C      1  0.5009440000000  0.4414600000000  0.5507300000000 1.0
C      1  0.4511040000000  0.4296270000000  0.4786170000000 1.0
C      1  0.5276610000000  0.4649840000000  0.5015940000000 1.0
C      1  0.5366860000000  0.5754590000000  0.4680780000000 1.0
C      1  0.5193840000000  0.5727650000000  0.5438910000000 1.0
C      1  0.4578350000000  0.5513950000000  0.5461750000000 1.0
C      1  0.4949580000000  0.5259260000000  0.5272210000000 1.0
C      1  0.4420350000000  0.4722900000000  0.4474900000000 1.0
C      1  0.4651650000000  0.5510780000000  0.4376590000000 1.0
C      1  0.4229330000000  0.5071130000000  0.4852500000000 1.0
C      1  0.4794610000000  0.5054740000000  0.4848610000000 1.0
C      1  0.4380280000000  0.5282820000000  0.5307410000000 1.0
C      1  0.4849000000000  0.4331400000000  0.5300050000000 1.0
C      1  0.4500010000000  0.5221490000000  0.4309800000000 1.0
C      1  0.4359290000000  0.4455670000000  0.5034740000000 1.0
C      1  0.4722930000000  0.5670740000000  0.5190630000000 1.0
C      1  0.5445090000000  0.5431990000000  0.5103530000000 1.0
C      1  0.5206860000000  0.5229600000000  0.4857610000000 1.0
C      1  0.4612110000000  0.4705460000000  0.4864360000000 1.0
END
