TITL C-2778426-5645-980 -0.00313927517272922 125000 -596.973581618662 0 0 103 (C1) n - 1
REM
REM in /home/nfs/bkarasulu/CARBON/AIRSS/Generating-Clusters/REBO/Only-C1/SD-CG/HFTN-CG
REM
REM
REM
REM
REM
REM ./C.cell (11c1c37f851c82e70ff6c80c92926a4b)
REM
REM compiler GCC version 9.2.1 20190827 (Red Hat 9.2.1-1)
REM options -cpp -mtune=generic -march=x86-64 -g -O0 -fpre-include=/usr/include/finclude/math-vector-fortran.h
REM seed -1220508909 -26485290 1203353258 -517129159 -776936497 1957322593 -221631324 -1547765623 -1732984359 -1528923225 -1070135293 393501102 -416027875 1648773011 -170129161 1612762 1108943479 1072761076 72146339 719994002 -533301725 1800030922 -257770583 1057290569 -1415663627 1100489907 -2007142738 -772788517 1190135484 2146960230 -282178384 -107847386 -71800063
REM
CELL 1.54180   50.00000   50.00000   50.00000   90.00000   90.00000   90.00000
LATT -1
SFAC C  
C      1  0.4083830000000  0.5275560000000  0.4915980000000 1.0
C      1  0.4537900000000  0.4948390000000  0.5327450000000 1.0
C      1  0.5421680000000  0.4454720000000  0.5555220000000 1.0
C      1  0.4895260000000  0.5369700000000  0.5441790000000 1.0
C      1  0.5664220000000  0.4627230000000  0.5486820000000 1.0
C      1  0.4128510000000  0.5021140000000  0.4694120000000 1.0
C      1  0.4797870000000  0.5599950000000  0.5899690000000 1.0
C      1  0.4603820000000  0.4963250000000  0.5847970000000 1.0
C      1  0.5813020000000  0.4900060000000  0.4972010000000 1.0
C      1  0.4127540000000  0.4735980000000  0.4876770000000 1.0
C      1  0.4982590000000  0.5478440000000  0.5734280000000 1.0
C      1  0.5650300000000  0.5229840000000  0.5597170000000 1.0
C      1  0.4180290000000  0.4946790000000  0.5140060000000 1.0
C      1  0.5489890000000  0.5613900000000  0.5225940000000 1.0
C      1  0.5601920000000  0.4925680000000  0.5619490000000 1.0
C      1  0.5319760000000  0.4255460000000  0.4781510000000 1.0
C      1  0.4794790000000  0.5391410000000  0.4145680000000 1.0
C      1  0.4705840000000  0.5171760000000  0.4484620000000 1.0
C      1  0.4783210000000  0.5573510000000  0.4408980000000 1.0
C      1  0.4495050000000  0.4334430000000  0.4998410000000 1.0
C      1  0.5205660000000  0.5709280000000  0.5262590000000 1.0
C      1  0.5572810000000  0.5335810000000  0.4938030000000 1.0
C      1  0.5583290000000  0.5275540000000  0.4308920000000 1.0
C      1  0.4949590000000  0.4800290000000  0.5250650000000 1.0
C      1  0.5051060000000  0.4325170000000  0.4677870000000 1.0
C      1  0.4459700000000  0.5620120000000  0.4514710000000 1.0
C      1  0.5204880000000  0.4502040000000  0.5743930000000 1.0
C      1  0.5103940000000  0.4527790000000  0.4447640000000 1.0
C      1  0.4684970000000  0.5430530000000  0.4903840000000 1.0
C      1  0.5566120000000  0.4788670000000  0.4357200000000 1.0
C      1  0.5443750000000  0.4886020000000  0.5891460000000 1.0
C      1  0.5106400000000  0.5456440000000  0.4385040000000 1.0
C      1  0.5420240000000  0.4566840000000  0.4445590000000 1.0
C      1  0.4459600000000  0.5320230000000  0.4391280000000 1.0
C      1  0.5001520000000  0.4770900000000  0.4857430000000 1.0
C      1  0.4268750000000  0.4559510000000  0.5133800000000 1.0
C      1  0.5104690000000  0.5333720000000  0.4081570000000 1.0
C      1  0.4709280000000  0.4478190000000  0.4461030000000 1.0
C      1  0.4257390000000  0.4757870000000  0.5413700000000 1.0
C      1  0.4920230000000  0.5051070000000  0.5134860000000 1.0
C      1  0.5006790000000  0.4198420000000  0.5190330000000 1.0
C      1  0.4707110000000  0.4851210000000  0.5562350000000 1.0
C      1  0.5211160000000  0.4943330000000  0.4884180000000 1.0
C      1  0.5818730000000  0.4843430000000  0.4576310000000 1.0
C      1  0.4939590000000  0.4909650000000  0.5877910000000 1.0
C      1  0.4219540000000  0.5443730000000  0.4677740000000 1.0
C      1  0.4941430000000  0.5798240000000  0.4876790000000 1.0
C      1  0.4718870000000  0.4554500000000  0.5553700000000 1.0
C      1  0.4945170000000  0.5240670000000  0.4891280000000 1.0
C      1  0.4844080000000  0.4570020000000  0.5064460000000 1.0
C      1  0.5748780000000  0.4606360000000  0.4810610000000 1.0
C      1  0.5122410000000  0.5382910000000  0.5216280000000 1.0
C      1  0.5300220000000  0.4133390000000  0.5035280000000 1.0
C      1  0.5833960000000  0.5171920000000  0.4475880000000 1.0
C      1  0.4546790000000  0.4357810000000  0.5334690000000 1.0
C      1  0.4202410000000  0.5146400000000  0.5415400000000 1.0
C      1  0.5415630000000  0.5481970000000  0.4428590000000 1.0
C      1  0.4953050000000  0.5083960000000  0.5593590000000 1.0
C      1  0.5497240000000  0.5322370000000  0.5335270000000 1.0
C      1  0.5160030000000  0.5018920000000  0.4120450000000 1.0
C      1  0.4828150000000  0.4225270000000  0.5427320000000 1.0
C      1  0.5805660000000  0.5176570000000  0.4955900000000 1.0
C      1  0.4519110000000  0.4737430000000  0.4807830000000 1.0
C      1  0.5190020000000  0.4752580000000  0.5890880000000 1.0
C      1  0.4448630000000  0.5525500000000  0.5212050000000 1.0
C      1  0.4454950000000  0.4376760000000  0.4485460000000 1.0
C      1  0.4960530000000  0.4385230000000  0.5674690000000 1.0
C      1  0.5397770000000  0.4897820000000  0.5369770000000 1.0
C      1  0.4722070000000  0.5579740000000  0.5274110000000 1.0
C      1  0.5129580000000  0.4757600000000  0.5445610000000 1.0
C      1  0.5613780000000  0.5659710000000  0.4940590000000 1.0
C      1  0.4577040000000  0.4667800000000  0.5197350000000 1.0
C      1  0.4920550000000  0.5765070000000  0.5161990000000 1.0
C      1  0.5271300000000  0.5439450000000  0.5803700000000 1.0
C      1  0.5579280000000  0.5064160000000  0.4646100000000 1.0
C      1  0.4864820000000  0.4718820000000  0.4302800000000 1.0
C      1  0.4717510000000  0.5674200000000  0.4720540000000 1.0
C      1  0.5724100000000  0.4635300000000  0.5150490000000 1.0
C      1  0.4824770000000  0.4290650000000  0.4918470000000 1.0
C      1  0.4770010000000  0.4679160000000  0.4687850000000 1.0
C      1  0.5278850000000  0.5443230000000  0.4933990000000 1.0
C      1  0.4224880000000  0.5341950000000  0.5181990000000 1.0
C      1  0.5252700000000  0.5239990000000  0.5560940000000 1.0
C      1  0.4333590000000  0.4979280000000  0.5665040000000 1.0
C      1  0.5467720000000  0.5017280000000  0.4218640000000 1.0
C      1  0.6045990000000  0.5308710000000  0.4953510000000 1.0
C      1  0.5523140000000  0.4434280000000  0.4679140000000 1.0
C      1  0.5154620000000  0.4863270000000  0.4411860000000 1.0
C      1  0.4822600000000  0.5070740000000  0.4118050000000 1.0
C      1  0.5319510000000  0.4991280000000  0.4637070000000 1.0
C      1  0.4315580000000  0.4482050000000  0.4748980000000 1.0
C      1  0.5303230000000  0.4335560000000  0.5285030000000 1.0
C      1  0.4604600000000  0.4911370000000  0.4318080000000 1.0
C      1  0.4328440000000  0.5039970000000  0.4476340000000 1.0
C      1  0.5563300000000  0.5383140000000  0.5813290000000 1.0
C      1  0.5405090000000  0.4618170000000  0.5193440000000 1.0
C      1  0.4947470000000  0.5260640000000  0.4595170000000 1.0
C      1  0.4455050000000  0.5259340000000  0.4784690000000 1.0
C      1  0.4631580000000  0.5180480000000  0.5129900000000 1.0
C      1  0.4432730000000  0.4984770000000  0.4946030000000 1.0
C      1  0.5202570000000  0.5714540000000  0.4802890000000 1.0
C      1  0.5468940000000  0.5651040000000  0.4651100000000 1.0
C      1  0.5314080000000  0.5107590000000  0.5145120000000 1.0
END
