TITL C-2778427-5640-1024 -0.00367678727769349 125000 -1065.3948619404 0 0 184 (C1) n - 1
REM
REM in /home/nfs/bkarasulu/CARBON/AIRSS/Generating-Clusters/REBO/Only-C1/SD-CG/HFTN-CG
REM
REM
REM
REM
REM
REM ./C.cell (11c1c37f851c82e70ff6c80c92926a4b)
REM
REM compiler GCC version 9.2.1 20190827 (Red Hat 9.2.1-1)
REM options -cpp -mtune=generic -march=x86-64 -g -O0 -fpre-include=/usr/include/finclude/math-vector-fortran.h
REM seed -1666432109 214936741 1837727717 1253452254 -1278653862 1100001951 2112707960 621395992 -652167382 1342560274 286122505 -1696487294 -832046553 1253253722 1067605957 -305257792 -1635828001 1659366024 -1012674066 1332343517 -1464463137 1229624621 2060955986 -572437321 -194883195 -255787395 -878559175 1048304521 994592217 -1015584579 553606522 -1719856131 1601746452
REM
CELL 1.54180   50.00000   50.00000   50.00000   90.00000   90.00000   90.00000
LATT -1
SFAC C  
C      1  0.5389200000000  0.5413790000000  0.4034100000000 1.0
C      1  0.5767510000000  0.4550140000000  0.4327230000000 1.0
C      1  0.4747160000000  0.5349220000000  0.4433780000000 1.0
C      1  0.5517970000000  0.5281550000000  0.4462330000000 1.0
C      1  0.4794010000000  0.4489220000000  0.5997660000000 1.0
C      1  0.4641810000000  0.5578110000000  0.4877120000000 1.0
C      1  0.4040010000000  0.5026890000000  0.5056370000000 1.0
C      1  0.4563940000000  0.4372600000000  0.4520010000000 1.0
C      1  0.5462880000000  0.4576270000000  0.4363360000000 1.0
C      1  0.4391320000000  0.4116690000000  0.4623000000000 1.0
C      1  0.5059190000000  0.5999720000000  0.5649340000000 1.0
C      1  0.4088900000000  0.4594810000000  0.5572790000000 1.0
C      1  0.5157420000000  0.4806900000000  0.4547880000000 1.0
C      1  0.4799420000000  0.5179900000000  0.5131870000000 1.0
C      1  0.5224590000000  0.4814610000000  0.4155370000000 1.0
C      1  0.4885420000000  0.4669460000000  0.4843560000000 1.0
C      1  0.5020340000000  0.5706440000000  0.4862320000000 1.0
C      1  0.4917470000000  0.5425550000000  0.3926240000000 1.0
C      1  0.5266160000000  0.5096560000000  0.4434000000000 1.0
C      1  0.4756660000000  0.5931880000000  0.4417620000000 1.0
C      1  0.4915600000000  0.4793250000000  0.4195890000000 1.0
C      1  0.5391950000000  0.5589910000000  0.4528350000000 1.0
C      1  0.4990740000000  0.4288530000000  0.5578630000000 1.0
C      1  0.4441990000000  0.5323430000000  0.4938990000000 1.0
C      1  0.5027940000000  0.5932630000000  0.4322570000000 1.0
C      1  0.5103100000000  0.6067240000000  0.5377530000000 1.0
C      1  0.4815500000000  0.5322350000000  0.5590580000000 1.0
C      1  0.4234880000000  0.5302490000000  0.4476770000000 1.0
C      1  0.4470510000000  0.5988560000000  0.5075330000000 1.0
C      1  0.3995990000000  0.5121660000000  0.4796000000000 1.0
C      1  0.4758220000000  0.3836190000000  0.4985650000000 1.0
C      1  0.4512550000000  0.5770630000000  0.4376500000000 1.0
C      1  0.5004420000000  0.4177570000000  0.4559320000000 1.0
C      1  0.5595760000000  0.5149140000000  0.3975330000000 1.0
C      1  0.5281940000000  0.4733390000000  0.3770610000000 1.0
C      1  0.4545590000000  0.4686960000000  0.4850140000000 1.0
C      1  0.4503840000000  0.5139910000000  0.4556400000000 1.0
C      1  0.5638100000000  0.5689310000000  0.5017400000000 1.0
C      1  0.5867430000000  0.5504540000000  0.5519890000000 1.0
C      1  0.5052360000000  0.5498390000000  0.5646290000000 1.0
C      1  0.5328320000000  0.5299950000000  0.5055000000000 1.0
C      1  0.4943810000000  0.5239940000000  0.6127890000000 1.0
C      1  0.5032830000000  0.4797300000000  0.5125160000000 1.0
C      1  0.5164800000000  0.4984620000000  0.3800130000000 1.0
C      1  0.4502760000000  0.4785420000000  0.5748830000000 1.0
C      1  0.5256620000000  0.5889730000000  0.4772690000000 1.0
C      1  0.5667110000000  0.5459290000000  0.4210620000000 1.0
C      1  0.5837610000000  0.5180020000000  0.5534810000000 1.0
C      1  0.4878020000000  0.5059960000000  0.5416540000000 1.0
C      1  0.4094740000000  0.5397960000000  0.4756920000000 1.0
C      1  0.5345780000000  0.3973090000000  0.4591940000000 1.0
C      1  0.4281690000000  0.4092840000000  0.5250170000000 1.0
C      1  0.5296980000000  0.5105200000000  0.4774870000000 1.0
C      1  0.5128340000000  0.4393220000000  0.5801130000000 1.0
C      1  0.5230210000000  0.4049010000000  0.4893460000000 1.0
C      1  0.5620610000000  0.5534990000000  0.4747020000000 1.0
C      1  0.4088520000000  0.4945180000000  0.4583000000000 1.0
C      1  0.4459340000000  0.5631190000000  0.5706140000000 1.0
C      1  0.6119620000000  0.5133980000000  0.5097340000000 1.0
C      1  0.4778320000000  0.4401330000000  0.4183770000000 1.0
C      1  0.5006710000000  0.4687750000000  0.5562270000000 1.0
C      1  0.4682620000000  0.5662890000000  0.5887020000000 1.0
C      1  0.5429000000000  0.4424350000000  0.5343390000000 1.0
C      1  0.4761010000000  0.4086180000000  0.5198430000000 1.0
C      1  0.5869640000000  0.5288930000000  0.3990030000000 1.0
C      1  0.5450540000000  0.4182430000000  0.4428690000000 1.0
C      1  0.5487470000000  0.4846690000000  0.4821370000000 1.0
C      1  0.4771740000000  0.5098570000000  0.5799000000000 1.0
C      1  0.4186790000000  0.5020640000000  0.4283860000000 1.0
C      1  0.4470990000000  0.4804690000000  0.5138540000000 1.0
C      1  0.4430460000000  0.3931430000000  0.5031440000000 1.0
C      1  0.4736520000000  0.5474410000000  0.5161450000000 1.0
C      1  0.4833240000000  0.4762750000000  0.5832050000000 1.0
C      1  0.4548630000000  0.5465020000000  0.5440460000000 1.0
C      1  0.4743940000000  0.6062550000000  0.4679580000000 1.0
C      1  0.5092230000000  0.4086380000000  0.5417210000000 1.0
C      1  0.4919720000000  0.5023600000000  0.4662870000000 1.0
C      1  0.5278920000000  0.5901250000000  0.5834920000000 1.0
C      1  0.5633950000000  0.4358140000000  0.4649430000000 1.0
C      1  0.4556550000000  0.4223490000000  0.5634020000000 1.0
C      1  0.4078440000000  0.4478890000000  0.4793690000000 1.0
C      1  0.5360230000000  0.4538210000000  0.4038930000000 1.0
C      1  0.4299810000000  0.4590210000000  0.5766190000000 1.0
C      1  0.5876030000000  0.4909330000000  0.4761510000000 1.0
C      1  0.5745480000000  0.4901730000000  0.5707420000000 1.0
C      1  0.4235470000000  0.4399020000000  0.4499290000000 1.0
C      1  0.5325210000000  0.5487250000000  0.5486220000000 1.0
C      1  0.4637550000000  0.5075240000000  0.4848760000000 1.0
C      1  0.5998050000000  0.5030980000000  0.5312880000000 1.0
C      1  0.4513740000000  0.4584110000000  0.4280960000000 1.0
C      1  0.5126500000000  0.5531890000000  0.5104400000000 1.0
C      1  0.4858580000000  0.4669370000000  0.4496060000000 1.0
C      1  0.5270650000000  0.5024200000000  0.5248360000000 1.0
C      1  0.5530730000000  0.4157610000000  0.4894810000000 1.0
C      1  0.5847670000000  0.4764740000000  0.5258180000000 1.0
C      1  0.5057220000000  0.3942900000000  0.5110060000000 1.0
C      1  0.5543670000000  0.4933270000000  0.4195000000000 1.0
C      1  0.5710490000000  0.4960400000000  0.5044010000000 1.0
C      1  0.4844570000000  0.5056730000000  0.4371310000000 1.0
C      1  0.4649390000000  0.5072390000000  0.6093740000000 1.0
C      1  0.5003720000000  0.4261650000000  0.4256110000000 1.0
C      1  0.4775950000000  0.4495890000000  0.5442680000000 1.0
C      1  0.5814740000000  0.4632780000000  0.5555250000000 1.0
C      1  0.4542330000000  0.4045070000000  0.5396680000000 1.0
C      1  0.5436370000000  0.4436560000000  0.5823510000000 1.0
C      1  0.4872840000000  0.5539650000000  0.4639590000000 1.0
C      1  0.4929980000000  0.4364930000000  0.5098390000000 1.0
C      1  0.4333690000000  0.5075280000000  0.5141360000000 1.0
C      1  0.5336870000000  0.5971500000000  0.5263420000000 1.0
C      1  0.5574490000000  0.4452640000000  0.5584470000000 1.0
C      1  0.4345730000000  0.5846740000000  0.4601300000000 1.0
C      1  0.5438090000000  0.5924220000000  0.4987020000000 1.0
C      1  0.5092780000000  0.5546830000000  0.4403030000000 1.0
C      1  0.4906550000000  0.5148400000000  0.3848720000000 1.0
C      1  0.5205070000000  0.5226290000000  0.5919500000000 1.0
C      1  0.5022870000000  0.5076800000000  0.4941810000000 1.0
C      1  0.5869720000000  0.4567100000000  0.4778700000000 1.0
C      1  0.5065650000000  0.4938380000000  0.6017610000000 1.0
C      1  0.4690520000000  0.5463160000000  0.6081360000000 1.0
C      1  0.4732070000000  0.4793160000000  0.5292900000000 1.0
C      1  0.3885830000000  0.4872950000000  0.5233340000000 1.0
C      1  0.4020580000000  0.5131350000000  0.5608950000000 1.0
C      1  0.5820650000000  0.5019720000000  0.4381450000000 1.0
C      1  0.4471290000000  0.5828620000000  0.4855460000000 1.0
C      1  0.4804890000000  0.5811580000000  0.5621820000000 1.0
C      1  0.5217870000000  0.5140430000000  0.4099700000000 1.0
C      1  0.5247980000000  0.4694180000000  0.5914100000000 1.0
C      1  0.4190680000000  0.4679590000000  0.4305790000000 1.0
C      1  0.4169740000000  0.5480150000000  0.5070540000000 1.0
C      1  0.4239820000000  0.4563450000000  0.5075330000000 1.0
C      1  0.5564330000000  0.4845420000000  0.4521080000000 1.0
C      1  0.4350590000000  0.4758130000000  0.4663910000000 1.0
C      1  0.5438150000000  0.4544200000000  0.4859070000000 1.0
C      1  0.4846430000000  0.6001820000000  0.5209170000000 1.0
C      1  0.5956890000000  0.5587550000000  0.4950910000000 1.0
C      1  0.4151930000000  0.4397250000000  0.5332860000000 1.0
C      1  0.5718640000000  0.5205540000000  0.4720130000000 1.0
C      1  0.4224230000000  0.5184340000000  0.5875060000000 1.0
C      1  0.4663960000000  0.4283010000000  0.5878570000000 1.0
C      1  0.3958980000000  0.4655310000000  0.4557460000000 1.0
C      1  0.4576210000000  0.5886040000000  0.5380020000000 1.0
C      1  0.6048870000000  0.4450940000000  0.5387890000000 1.0
C      1  0.4467860000000  0.5157450000000  0.4159430000000 1.0
C      1  0.5403330000000  0.5356890000000  0.5771920000000 1.0
C      1  0.4338450000000  0.5668530000000  0.5269180000000 1.0
C      1  0.5944670000000  0.4728470000000  0.4488860000000 1.0
C      1  0.4470920000000  0.4434210000000  0.5374220000000 1.0
C      1  0.5579450000000  0.5527820000000  0.5918690000000 1.0
C      1  0.3969360000000  0.4852070000000  0.5507870000000 1.0
C      1  0.5931700000000  0.5524420000000  0.4614890000000 1.0
C      1  0.4401130000000  0.5035890000000  0.5668670000000 1.0
C      1  0.5161480000000  0.4366660000000  0.4872400000000 1.0
C      1  0.5907770000000  0.5316640000000  0.4386530000000 1.0
C      1  0.5269040000000  0.5896670000000  0.4474030000000 1.0
C      1  0.5156760000000  0.4954500000000  0.5548510000000 1.0
C      1  0.5557470000000  0.5818030000000  0.5836720000000 1.0
C      1  0.4372080000000  0.5201280000000  0.5424350000000 1.0
C      1  0.5829220000000  0.5432540000000  0.5225790000000 1.0
C      1  0.5104240000000  0.5521120000000  0.4119330000000 1.0
C      1  0.4852280000000  0.5967670000000  0.4910520000000 1.0
C      1  0.5511930000000  0.5111370000000  0.5475460000000 1.0
C      1  0.5082180000000  0.5669830000000  0.5872600000000 1.0
C      1  0.4555460000000  0.3880580000000  0.4717660000000 1.0
C      1  0.4880020000000  0.3906030000000  0.4630830000000 1.0
C      1  0.4072740000000  0.5328290000000  0.5359150000000 1.0
C      1  0.5199230000000  0.4468430000000  0.4550080000000 1.0
C      1  0.5596340000000  0.4395550000000  0.5099290000000 1.0
C      1  0.5991720000000  0.5265060000000  0.4902260000000 1.0
C      1  0.5146370000000  0.4525140000000  0.5297380000000 1.0
C      1  0.5413580000000  0.4931900000000  0.5747590000000 1.0
C      1  0.4409850000000  0.5270270000000  0.6089550000000 1.0
C      1  0.4618390000000  0.4438390000000  0.5074940000000 1.0
C      1  0.4822420000000  0.4397980000000  0.4662580000000 1.0
C      1  0.4720150000000  0.4992980000000  0.4001050000000 1.0
C      1  0.5283330000000  0.4265750000000  0.4195340000000 1.0
C      1  0.5615850000000  0.5214210000000  0.5182180000000 1.0
C      1  0.5445260000000  0.5673950000000  0.5298730000000 1.0
C      1  0.5891380000000  0.4497030000000  0.5090110000000 1.0
C      1  0.4554850000000  0.4879880000000  0.4343100000000 1.0
C      1  0.5785200000000  0.5738660000000  0.5649030000000 1.0
C      1  0.6264110000000  0.4324380000000  0.5460240000000 1.0
C      1  0.4371430000000  0.4328460000000  0.4867470000000 1.0
C      1  0.4478360000000  0.5466700000000  0.4302670000000 1.0
C      1  0.4918080000000  0.5688520000000  0.5323440000000 1.0
END
