TITL C-2778435-5768-1095 -0.0532017276954395 125000 -950.172407890896 0 0 165 (C1) n - 1
REM
REM in /home/nfs/bkarasulu/CARBON/AIRSS/Generating-Clusters/REBO/Only-C1/SD-CG/HFTN-CG
REM
REM
REM
REM
REM
REM ./C.cell (11c1c37f851c82e70ff6c80c92926a4b)
REM
REM compiler GCC version 9.2.1 20190827 (Red Hat 9.2.1-1)
REM options -cpp -mtune=generic -march=x86-64 -g -O0 -fpre-include=/usr/include/finclude/math-vector-fortran.h
REM seed -590926567 1594576558 1084915552 -937245879 148051064 1819870852 -317699651 1428877635 -1623128737 1428425779 -1240492810 -1293957886 813655718 1580061111 -573333420 1025078741 -924622248 811842383 609946234 -1694414873 1598530259 1070271125 2107097388 -1380067716 1278725364 -2023161412 1876727834 -2034920846 -531273622 976878598 1317761411 -1978687847 530028975
REM
CELL 1.54180   50.00000   50.00000   50.00000   90.00000   90.00000   90.00000
LATT -1
SFAC C  
C      1  0.4818780000000  0.5363040000000  0.4809480000000 1.0
C      1  0.4378040000000  0.4696130000000  0.5418520000000 1.0
C      1  0.5827170000000  0.4411840000000  0.5286470000000 1.0
C      1  0.4648610000000  0.5595590000000  0.4371420000000 1.0
C      1  0.4786630000000  0.4769280000000  0.5042940000000 1.0
C      1  0.4953810000000  0.5726150000000  0.5802210000000 1.0
C      1  0.5668620000000  0.5232940000000  0.5567570000000 1.0
C      1  0.4838470000000  0.4258880000000  0.5683540000000 1.0
C      1  0.5585380000000  0.4533800000000  0.4996840000000 1.0
C      1  0.4587410000000  0.4526630000000  0.4952790000000 1.0
C      1  0.4445990000000  0.4063580000000  0.5005840000000 1.0
C      1  0.4302400000000  0.4150240000000  0.4775410000000 1.0
C      1  0.5139040000000  0.5079780000000  0.6215580000000 1.0
C      1  0.5059510000000  0.5191440000000  0.4910090000000 1.0
C      1  0.3879980000000  0.4613470000000  0.4917350000000 1.0
C      1  0.5295650000000  0.4765940000000  0.4349890000000 1.0
C      1  0.5452850000000  0.4401980000000  0.4333070000000 1.0
C      1  0.4154270000000  0.4742290000000  0.4378540000000 1.0
C      1  0.4051470000000  0.4899950000000  0.4844630000000 1.0
C      1  0.4682820000000  0.5061200000000  0.4902350000000 1.0
C      1  0.5202640000000  0.4918300000000  0.5271840000000 1.0
C      1  0.4827900000000  0.4731420000000  0.6008730000000 1.0
C      1  0.5820170000000  0.4904690000000  0.4383550000000 1.0
C      1  0.4938790000000  0.5916260000000  0.5319250000000 1.0
C      1  0.5173960000000  0.4343760000000  0.3677150000000 1.0
C      1  0.4398630000000  0.4771260000000  0.4693660000000 1.0
C      1  0.4379250000000  0.4697000000000  0.5817870000000 1.0
C      1  0.5500280000000  0.5787290000000  0.4772400000000 1.0
C      1  0.5571470000000  0.5036360000000  0.5181480000000 1.0
C      1  0.4431100000000  0.4148210000000  0.4520790000000 1.0
C      1  0.5116810000000  0.4978260000000  0.4745930000000 1.0
C      1  0.4955820000000  0.4983160000000  0.4495890000000 1.0
C      1  0.4778780000000  0.5642740000000  0.4911710000000 1.0
C      1  0.5294950000000  0.4854330000000  0.5584720000000 1.0
C      1  0.5136170000000  0.4508260000000  0.3895140000000 1.0
C      1  0.5518470000000  0.5968220000000  0.5046620000000 1.0
C      1  0.5149540000000  0.5142500000000  0.5692830000000 1.0
C      1  0.5582300000000  0.4066110000000  0.5146300000000 1.0
C      1  0.4511410000000  0.5373580000000  0.5627940000000 1.0
C      1  0.5039580000000  0.4674940000000  0.5179120000000 1.0
C      1  0.4208960000000  0.4431430000000  0.5305060000000 1.0
C      1  0.4467760000000  0.5776030000000  0.5395950000000 1.0
C      1  0.4778720000000  0.4810570000000  0.4087190000000 1.0
C      1  0.5823150000000  0.5154910000000  0.4573990000000 1.0
C      1  0.4292540000000  0.5412870000000  0.5059310000000 1.0
C      1  0.4042390000000  0.5205320000000  0.4952220000000 1.0
C      1  0.5209070000000  0.5528490000000  0.5772900000000 1.0
C      1  0.4501330000000  0.4425650000000  0.5550950000000 1.0
C      1  0.4880430000000  0.5193250000000  0.5541920000000 1.0
C      1  0.4060310000000  0.4933630000000  0.5377760000000 1.0
C      1  0.4036170000000  0.5189840000000  0.5267950000000 1.0
C      1  0.5563140000000  0.5319050000000  0.4481860000000 1.0
C      1  0.5360220000000  0.4125290000000  0.5378720000000 1.0
C      1  0.5286000000000  0.5647630000000  0.4999370000000 1.0
C      1  0.5128610000000  0.4441150000000  0.5298690000000 1.0
C      1  0.5212920000000  0.5470770000000  0.5451680000000 1.0
C      1  0.5123450000000  0.6069290000000  0.4586280000000 1.0
C      1  0.5628910000000  0.4799630000000  0.5542660000000 1.0
C      1  0.4891780000000  0.4273780000000  0.4995230000000 1.0
C      1  0.5243020000000  0.4202060000000  0.4829220000000 1.0
C      1  0.5604260000000  0.4615460000000  0.4553340000000 1.0
C      1  0.5325390000000  0.4784140000000  0.5919380000000 1.0
C      1  0.4217290000000  0.4866050000000  0.5635630000000 1.0
C      1  0.4417480000000  0.4193150000000  0.5307280000000 1.0
C      1  0.5599280000000  0.5415200000000  0.5064160000000 1.0
C      1  0.4659500000000  0.5746490000000  0.5941860000000 1.0
C      1  0.4363670000000  0.4971750000000  0.4959540000000 1.0
C      1  0.5228700000000  0.4725270000000  0.4631740000000 1.0
C      1  0.5141320000000  0.4264590000000  0.5584310000000 1.0
C      1  0.4692520000000  0.4935260000000  0.5476420000000 1.0
C      1  0.5050600000000  0.4494200000000  0.5898990000000 1.0
C      1  0.5922090000000  0.5324310000000  0.4853230000000 1.0
C      1  0.5923450000000  0.4660740000000  0.4526810000000 1.0
C      1  0.5189110000000  0.6014160000000  0.5124750000000 1.0
C      1  0.5451640000000  0.5299460000000  0.5329300000000 1.0
C      1  0.5640060000000  0.4299660000000  0.5464510000000 1.0
C      1  0.5126320000000  0.4828190000000  0.6103810000000 1.0
C      1  0.5379780000000  0.4721230000000  0.3964230000000 1.0
C      1  0.4675420000000  0.5004330000000  0.5974290000000 1.0
C      1  0.5535350000000  0.5528050000000  0.5676910000000 1.0
C      1  0.5689480000000  0.5154380000000  0.4101130000000 1.0
C      1  0.4774340000000  0.5339470000000  0.4489050000000 1.0
C      1  0.4549230000000  0.5799470000000  0.4606770000000 1.0
C      1  0.4341020000000  0.5326550000000  0.4545200000000 1.0
C      1  0.5153540000000  0.4453100000000  0.4674950000000 1.0
C      1  0.4696150000000  0.5443190000000  0.4084920000000 1.0
C      1  0.4055580000000  0.4693340000000  0.5184960000000 1.0
C      1  0.5757880000000  0.5583670000000  0.4704090000000 1.0
C      1  0.5731440000000  0.5735320000000  0.5089700000000 1.0
C      1  0.5893840000000  0.4930900000000  0.4819970000000 1.0
C      1  0.5865840000000  0.5025500000000  0.5438750000000 1.0
C      1  0.5926950000000  0.5474370000000  0.5156500000000 1.0
C      1  0.4784800000000  0.6046170000000  0.4610900000000 1.0
C      1  0.4837270000000  0.4557710000000  0.3987740000000 1.0
C      1  0.5566560000000  0.4494090000000  0.5664970000000 1.0
C      1  0.4211540000000  0.5689750000000  0.5487290000000 1.0
C      1  0.5029290000000  0.5630910000000  0.5221060000000 1.0
C      1  0.5146770000000  0.4082100000000  0.5131990000000 1.0
C      1  0.5078180000000  0.4061290000000  0.4493870000000 1.0
C      1  0.5408610000000  0.5695960000000  0.5315810000000 1.0
C      1  0.4470350000000  0.5605390000000  0.5851040000000 1.0
C      1  0.4656820000000  0.4500660000000  0.5839490000000 1.0
C      1  0.4735910000000  0.4420760000000  0.5232230000000 1.0
C      1  0.4980150000000  0.5953070000000  0.5598470000000 1.0
C      1  0.5894720000000  0.5085320000000  0.5102940000000 1.0
C      1  0.4123410000000  0.5458580000000  0.5357880000000 1.0
C      1  0.5066070000000  0.5173990000000  0.5189760000000 1.0
C      1  0.4545790000000  0.5064300000000  0.5718510000000 1.0
C      1  0.4962240000000  0.4004790000000  0.4787110000000 1.0
C      1  0.4081160000000  0.4365030000000  0.4790750000000 1.0
C      1  0.5138290000000  0.5305580000000  0.5989170000000 1.0
C      1  0.4590250000000  0.5109100000000  0.4604520000000 1.0
C      1  0.5400460000000  0.4804780000000  0.5019670000000 1.0
C      1  0.4772640000000  0.5121500000000  0.4118020000000 1.0
C      1  0.5554320000000  0.4878840000000  0.4193660000000 1.0
C      1  0.4815680000000  0.5247970000000  0.6055450000000 1.0
C      1  0.5081730000000  0.5727410000000  0.4665060000000 1.0
C      1  0.4988210000000  0.5901260000000  0.4922710000000 1.0
C      1  0.5924290000000  0.4481870000000  0.4990880000000 1.0
C      1  0.5718510000000  0.5592580000000  0.5400820000000 1.0
C      1  0.5698630000000  0.5603410000000  0.4369480000000 1.0
C      1  0.6040620000000  0.4654670000000  0.4802810000000 1.0
C      1  0.4483330000000  0.5764850000000  0.4998480000000 1.0
C      1  0.4762760000000  0.4388800000000  0.4702490000000 1.0
C      1  0.4476270000000  0.5233710000000  0.4244790000000 1.0
C      1  0.5766940000000  0.5383980000000  0.4144600000000 1.0
C      1  0.5569510000000  0.4896170000000  0.4746880000000 1.0
C      1  0.4956090000000  0.5658440000000  0.4126480000000 1.0
C      1  0.4889840000000  0.5808820000000  0.4403300000000 1.0
C      1  0.4815340000000  0.5416060000000  0.5781310000000 1.0
C      1  0.5374890000000  0.4091290000000  0.4443710000000 1.0
C      1  0.4957640000000  0.4352070000000  0.4426100000000 1.0
C      1  0.5019560000000  0.5229740000000  0.4319940000000 1.0
C      1  0.5245930000000  0.5626530000000  0.4197220000000 1.0
C      1  0.4026360000000  0.4654310000000  0.4613170000000 1.0
C      1  0.4656340000000  0.5956820000000  0.5230580000000 1.0
C      1  0.5461320000000  0.5789700000000  0.4299360000000 1.0
C      1  0.4780570000000  0.4809180000000  0.4381830000000 1.0
C      1  0.4387800000000  0.5550750000000  0.4763300000000 1.0
C      1  0.4607680000000  0.4618230000000  0.4525810000000 1.0
C      1  0.5165070000000  0.4500530000000  0.4218100000000 1.0
C      1  0.5422600000000  0.6031400000000  0.5367840000000 1.0
C      1  0.4685940000000  0.4348470000000  0.4109390000000 1.0
C      1  0.4522430000000  0.4871760000000  0.5213340000000 1.0
C      1  0.4557240000000  0.4346060000000  0.4363130000000 1.0
C      1  0.4520080000000  0.5460760000000  0.5308260000000 1.0
C      1  0.4697240000000  0.3926000000000  0.4974210000000 1.0
C      1  0.5272490000000  0.5465160000000  0.4710730000000 1.0
C      1  0.5576250000000  0.4283800000000  0.4624780000000 1.0
C      1  0.5331760000000  0.4409370000000  0.5794050000000 1.0
C      1  0.4872470000000  0.3945360000000  0.5219080000000 1.0
C      1  0.5539250000000  0.4236590000000  0.4924630000000 1.0
C      1  0.5260960000000  0.5379530000000  0.4379690000000 1.0
C      1  0.4673600000000  0.6028610000000  0.4909450000000 1.0
C      1  0.5503330000000  0.5228660000000  0.4799850000000 1.0
C      1  0.4768450000000  0.4634530000000  0.5479540000000 1.0
C      1  0.5731270000000  0.4735720000000  0.5230170000000 1.0
C      1  0.4834330000000  0.5385120000000  0.5294510000000 1.0
C      1  0.5392980000000  0.5938230000000  0.4532090000000 1.0
C      1  0.4728290000000  0.4132020000000  0.5413610000000 1.0
C      1  0.5030550000000  0.4644730000000  0.5627440000000 1.0
C      1  0.4366720000000  0.4953310000000  0.4404760000000 1.0
C      1  0.4275360000000  0.4584350000000  0.4945250000000 1.0
C      1  0.4076390000000  0.5232330000000  0.4626930000000 1.0
C      1  0.5451220000000  0.5156920000000  0.5792930000000 1.0
END
