TITL C-2778427-5640-739 0.00165463868050412 125000 -938.887428597148 0 0 161 (C1) n - 1
REM
REM in /home/nfs/bkarasulu/CARBON/AIRSS/Generating-Clusters/REBO/Only-C1/SD-CG/HFTN-CG
REM
REM
REM
REM
REM
REM ./C.cell (11c1c37f851c82e70ff6c80c92926a4b)
REM
REM compiler GCC version 9.2.1 20190827 (Red Hat 9.2.1-1)
REM options -cpp -mtune=generic -march=x86-64 -g -O0 -fpre-include=/usr/include/finclude/math-vector-fortran.h
REM seed 1373338773 132522514 -206943085 1593443403 293202749 1015745446 136447329 -1403897765 -1626673797 914012015 730576525 -1629149232 947743238 -2026347891 96413789 2081064121 -214299329 2016146553 1595054697 -2113568291 1543780953 -414930866 1502025292 885911325 1326577449 2042310683 27523948 772778204 -1416185833 1298839564 -312046658 2094533266 145166034
REM
CELL 1.54180   50.00000   50.00000   50.00000   90.00000   90.00000   90.00000
LATT -1
SFAC C  
C      1  0.5740340000000  0.4877340000000  0.6014350000000 1.0
C      1  0.5143580000000  0.4616380000000  0.5818560000000 1.0
C      1  0.5799170000000  0.5459190000000  0.4613460000000 1.0
C      1  0.5544390000000  0.6013100000000  0.4580390000000 1.0
C      1  0.4652350000000  0.5318030000000  0.5970230000000 1.0
C      1  0.4151820000000  0.4918010000000  0.4338760000000 1.0
C      1  0.5009180000000  0.4216520000000  0.4879830000000 1.0
C      1  0.4831460000000  0.4559330000000  0.6168040000000 1.0
C      1  0.4872510000000  0.3855370000000  0.4971530000000 1.0
C      1  0.5909700000000  0.5317440000000  0.5244600000000 1.0
C      1  0.5949700000000  0.4670910000000  0.4744920000000 1.0
C      1  0.5686350000000  0.5722660000000  0.4509490000000 1.0
C      1  0.3923890000000  0.5126480000000  0.4981840000000 1.0
C      1  0.5214700000000  0.5077280000000  0.4030280000000 1.0
C      1  0.5802370000000  0.5070180000000  0.4533110000000 1.0
C      1  0.5603790000000  0.5741110000000  0.5015270000000 1.0
C      1  0.4069080000000  0.5069610000000  0.4613600000000 1.0
C      1  0.4952750000000  0.5628890000000  0.4288480000000 1.0
C      1  0.5701510000000  0.5053500000000  0.5030270000000 1.0
C      1  0.4607160000000  0.4888270000000  0.4030060000000 1.0
C      1  0.4284170000000  0.5511760000000  0.4879430000000 1.0
C      1  0.4639840000000  0.4063770000000  0.4833020000000 1.0
C      1  0.4478140000000  0.5160990000000  0.5746920000000 1.0
C      1  0.5455440000000  0.4757250000000  0.4893620000000 1.0
C      1  0.5626480000000  0.4481800000000  0.4140440000000 1.0
C      1  0.5513880000000  0.4429730000000  0.4639250000000 1.0
C      1  0.4596740000000  0.4891960000000  0.4706270000000 1.0
C      1  0.4001040000000  0.5724930000000  0.5062380000000 1.0
C      1  0.4080810000000  0.4511320000000  0.5229650000000 1.0
C      1  0.5325150000000  0.5927270000000  0.5536200000000 1.0
C      1  0.4573040000000  0.5372980000000  0.4551600000000 1.0
C      1  0.5815820000000  0.5027380000000  0.5651420000000 1.0
C      1  0.4271640000000  0.5060170000000  0.5587360000000 1.0
C      1  0.5699850000000  0.4358560000000  0.5112610000000 1.0
C      1  0.4581970000000  0.5911340000000  0.4840780000000 1.0
C      1  0.5155690000000  0.3849710000000  0.4938500000000 1.0
C      1  0.4494040000000  0.5260480000000  0.4836750000000 1.0
C      1  0.4839990000000  0.5862500000000  0.4417280000000 1.0
C      1  0.5627070000000  0.4529230000000  0.5574560000000 1.0
C      1  0.4301360000000  0.4836840000000  0.5101130000000 1.0
C      1  0.5507660000000  0.5064160000000  0.4153010000000 1.0
C      1  0.4880400000000  0.4997310000000  0.4015810000000 1.0
C      1  0.4671750000000  0.4038170000000  0.5160150000000 1.0
C      1  0.5154690000000  0.4946710000000  0.6227760000000 1.0
C      1  0.4927020000000  0.5401610000000  0.4733930000000 1.0
C      1  0.4822710000000  0.5087730000000  0.4694010000000 1.0
C      1  0.5062350000000  0.4139330000000  0.4608840000000 1.0
C      1  0.5361920000000  0.3967320000000  0.5590280000000 1.0
C      1  0.4405900000000  0.5050790000000  0.4206450000000 1.0
C      1  0.4454640000000  0.4445370000000  0.4240740000000 1.0
C      1  0.4850010000000  0.4086880000000  0.4422620000000 1.0
C      1  0.3966390000000  0.5349630000000  0.4557280000000 1.0
C      1  0.4578550000000  0.5737850000000  0.5197960000000 1.0
C      1  0.5479290000000  0.4757770000000  0.5177800000000 1.0
C      1  0.5484420000000  0.4133720000000  0.5250850000000 1.0
C      1  0.5137020000000  0.4423600000000  0.5580180000000 1.0
C      1  0.5239010000000  0.5609870000000  0.4257840000000 1.0
C      1  0.5735190000000  0.5311440000000  0.5789690000000 1.0
C      1  0.5187530000000  0.4878740000000  0.4629020000000 1.0
C      1  0.5538360000000  0.5142790000000  0.5267330000000 1.0
C      1  0.5793740000000  0.5123660000000  0.6038880000000 1.0
C      1  0.4535150000000  0.5503010000000  0.5435780000000 1.0
C      1  0.4539440000000  0.4926010000000  0.5315550000000 1.0
C      1  0.4607130000000  0.4262130000000  0.4380800000000 1.0
C      1  0.4916000000000  0.4603520000000  0.4075390000000 1.0
C      1  0.4803160000000  0.4688750000000  0.4359490000000 1.0
C      1  0.5182380000000  0.4519950000000  0.5058140000000 1.0
C      1  0.5420730000000  0.5799290000000  0.4796930000000 1.0
C      1  0.4759280000000  0.4546430000000  0.5903080000000 1.0
C      1  0.4979960000000  0.6180780000000  0.4790330000000 1.0
C      1  0.4960970000000  0.5649880000000  0.5264490000000 1.0
C      1  0.5685070000000  0.5289010000000  0.4339010000000 1.0
C      1  0.4548330000000  0.4308550000000  0.5271870000000 1.0
C      1  0.4413930000000  0.5607130000000  0.4495850000000 1.0
C      1  0.4931070000000  0.4552880000000  0.4611720000000 1.0
C      1  0.4024250000000  0.4738490000000  0.4633050000000 1.0
C      1  0.5216220000000  0.5201810000000  0.4548410000000 1.0
C      1  0.5036470000000  0.5969550000000  0.4607720000000 1.0
C      1  0.4766430000000  0.4791260000000  0.5712510000000 1.0
C      1  0.5601210000000  0.4778840000000  0.5742230000000 1.0
C      1  0.5389640000000  0.3998010000000  0.4949740000000 1.0
C      1  0.5033310000000  0.5108910000000  0.5268050000000 1.0
C      1  0.4201380000000  0.5272700000000  0.5107110000000 1.0
C      1  0.4477230000000  0.4391650000000  0.5546330000000 1.0
C      1  0.5019760000000  0.5921370000000  0.5551270000000 1.0
C      1  0.5099050000000  0.5695860000000  0.4771330000000 1.0
C      1  0.5338700000000  0.4229530000000  0.4465990000000 1.0
C      1  0.5383680000000  0.5794790000000  0.4400250000000 1.0
C      1  0.5271020000000  0.5041290000000  0.4907350000000 1.0
C      1  0.4526690000000  0.4805890000000  0.4412480000000 1.0
C      1  0.5417200000000  0.4338240000000  0.4921100000000 1.0
C      1  0.4577240000000  0.5674990000000  0.5708350000000 1.0
C      1  0.5726250000000  0.4604730000000  0.5294820000000 1.0
C      1  0.4248070000000  0.4607810000000  0.4414390000000 1.0
C      1  0.5007370000000  0.5147690000000  0.4283610000000 1.0
C      1  0.5050740000000  0.5339830000000  0.5030510000000 1.0
C      1  0.5988170000000  0.4910150000000  0.4939930000000 1.0
C      1  0.5472600000000  0.5219990000000  0.5593040000000 1.0
C      1  0.4914520000000  0.4190060000000  0.5639680000000 1.0
C      1  0.4833020000000  0.4785120000000  0.5385280000000 1.0
C      1  0.4928130000000  0.5439550000000  0.5890400000000 1.0
C      1  0.5311400000000  0.5365500000000  0.4832700000000 1.0
C      1  0.4702270000000  0.5187380000000  0.5061240000000 1.0
C      1  0.4889010000000  0.5695580000000  0.5769610000000 1.0
C      1  0.5286470000000  0.4958350000000  0.5356900000000 1.0
C      1  0.5434850000000  0.5713220000000  0.5698310000000 1.0
C      1  0.3911320000000  0.4853040000000  0.4909840000000 1.0
C      1  0.4188150000000  0.4560350000000  0.5526840000000 1.0
C      1  0.4889570000000  0.5988250000000  0.5244320000000 1.0
C      1  0.4327530000000  0.5794740000000  0.5014040000000 1.0
C      1  0.4136360000000  0.5555840000000  0.4607280000000 1.0
C      1  0.3883890000000  0.4655110000000  0.5110740000000 1.0
C      1  0.5130180000000  0.4459750000000  0.4381090000000 1.0
C      1  0.4573130000000  0.5845580000000  0.4538860000000 1.0
C      1  0.5152900000000  0.4202550000000  0.5188780000000 1.0
C      1  0.4308880000000  0.5001860000000  0.4833020000000 1.0
C      1  0.5969790000000  0.5219440000000  0.4791620000000 1.0
C      1  0.4685270000000  0.5871340000000  0.5478040000000 1.0
C      1  0.4370050000000  0.4499710000000  0.5050790000000 1.0
C      1  0.4829790000000  0.5709090000000  0.4967470000000 1.0
C      1  0.5949540000000  0.4824160000000  0.5240700000000 1.0
C      1  0.4859910000000  0.4902260000000  0.5065670000000 1.0
C      1  0.4589130000000  0.4589140000000  0.4038710000000 1.0
C      1  0.4806490000000  0.5071080000000  0.5803750000000 1.0
C      1  0.5460150000000  0.4727640000000  0.4552000000000 1.0
C      1  0.5553000000000  0.4256410000000  0.4228710000000 1.0
C      1  0.5331530000000  0.4940350000000  0.5680930000000 1.0
C      1  0.5105920000000  0.4045460000000  0.5458180000000 1.0
C      1  0.4993210000000  0.4538030000000  0.5326180000000 1.0
C      1  0.4634960000000  0.4620230000000  0.4869920000000 1.0
C      1  0.5420640000000  0.4300400000000  0.5541010000000 1.0
C      1  0.5261330000000  0.5451350000000  0.5632010000000 1.0
C      1  0.4803050000000  0.4405040000000  0.5074340000000 1.0
C      1  0.4156680000000  0.4876800000000  0.5408120000000 1.0
C      1  0.4853100000000  0.5372460000000  0.4415400000000 1.0
C      1  0.4402200000000  0.5324250000000  0.4173920000000 1.0
C      1  0.4816140000000  0.5369720000000  0.5329100000000 1.0
C      1  0.4797640000000  0.6105360000000  0.4984680000000 1.0
C      1  0.5813250000000  0.5477630000000  0.4955790000000 1.0
C      1  0.5359530000000  0.5335220000000  0.4297620000000 1.0
C      1  0.4343670000000  0.4230610000000  0.4845010000000 1.0
C      1  0.5022670000000  0.4718440000000  0.4871970000000 1.0
C      1  0.5419720000000  0.5418160000000  0.5151040000000 1.0
C      1  0.5236960000000  0.5588770000000  0.5346920000000 1.0
C      1  0.5929990000000  0.5062070000000  0.5393960000000 1.0
C      1  0.3932130000000  0.5457410000000  0.5060080000000 1.0
C      1  0.5469710000000  0.5824130000000  0.5262050000000 1.0
C      1  0.5785350000000  0.4445360000000  0.4813710000000 1.0
C      1  0.4689020000000  0.4314000000000  0.5749840000000 1.0
C      1  0.4688800000000  0.4344150000000  0.4681370000000 1.0
C      1  0.5114740000000  0.4793410000000  0.3882290000000 1.0
C      1  0.4444930000000  0.5234640000000  0.5272680000000 1.0
C      1  0.5674380000000  0.5563730000000  0.5612400000000 1.0
C      1  0.4485860000000  0.4722890000000  0.5569140000000 1.0
C      1  0.5514380000000  0.4769340000000  0.4246810000000 1.0
C      1  0.5251390000000  0.4619710000000  0.4133990000000 1.0
C      1  0.5149160000000  0.4782130000000  0.6023890000000 1.0
C      1  0.5904760000000  0.4785860000000  0.4495520000000 1.0
C      1  0.5693450000000  0.5503090000000  0.5335210000000 1.0
C      1  0.5115670000000  0.5183110000000  0.5768980000000 1.0
C      1  0.5587550000000  0.5109860000000  0.4764920000000 1.0
END
