TITL C-2778434-4341-584 -0.00225940476995215 125000 -518.461570394118 0 0 90 (C1) n - 1
REM
REM in /home/nfs/bkarasulu/CARBON/AIRSS/Generating-Clusters/REBO/Only-C1/SD-CG/HFTN-CG
REM
REM
REM
REM
REM
REM ./C.cell (11c1c37f851c82e70ff6c80c92926a4b)
REM
REM compiler GCC version 9.2.1 20190827 (Red Hat 9.2.1-1)
REM options -cpp -mtune=generic -march=x86-64 -g -O0 -fpre-include=/usr/include/finclude/math-vector-fortran.h
REM seed 1399653767 499674567 -625968178 -1376999338 -1922863312 766122769 4623349 659472664 1443963540 -1071465459 -1735402762 1630307938 1105794264 -2090713275 -1903504328 2098052274 -218709730 1772828332 -1600533308 469839106 -66151424 1152517140 906170854 -856668486 -787086384 -1067664416 1558783913 -1035084957 -1116849934 -1931752978 1903808476 -863535092 1826448170
REM
CELL 1.54180   50.00000   50.00000   50.00000   90.00000   90.00000   90.00000
LATT -1
SFAC C  
C      1  0.6195090000000  0.5343610000000  0.5820390000000 1.0
C      1  0.4604560000000  0.4298310000000  0.5003860000000 1.0
C      1  0.5669320000000  0.5406540000000  0.4985290000000 1.0
C      1  0.5256320000000  0.4988280000000  0.4782840000000 1.0
C      1  0.5304230000000  0.5498160000000  0.5368890000000 1.0
C      1  0.4315930000000  0.5537930000000  0.5102300000000 1.0
C      1  0.4391250000000  0.5600030000000  0.4850180000000 1.0
C      1  0.4949810000000  0.4336710000000  0.5531880000000 1.0
C      1  0.5068680000000  0.5201940000000  0.5868050000000 1.0
C      1  0.4691660000000  0.5099850000000  0.5031080000000 1.0
C      1  0.5713140000000  0.5312380000000  0.4702080000000 1.0
C      1  0.4481020000000  0.5672580000000  0.5334480000000 1.0
C      1  0.5782740000000  0.5241590000000  0.5209500000000 1.0
C      1  0.4906960000000  0.5430070000000  0.4491220000000 1.0
C      1  0.4924440000000  0.4556570000000  0.4092810000000 1.0
C      1  0.5392020000000  0.5481060000000  0.5061430000000 1.0
C      1  0.5023650000000  0.4943590000000  0.5189800000000 1.0
C      1  0.4379100000000  0.4497730000000  0.4878630000000 1.0
C      1  0.4985870000000  0.5056610000000  0.5473570000000 1.0
C      1  0.4396740000000  0.5923730000000  0.5412780000000 1.0
C      1  0.4969780000000  0.4341820000000  0.4512640000000 1.0
C      1  0.5514520000000  0.5061320000000  0.5113850000000 1.0
C      1  0.4886550000000  0.4888880000000  0.4173000000000 1.0
C      1  0.5557460000000  0.5197500000000  0.4422390000000 1.0
C      1  0.5388780000000  0.4355590000000  0.4846960000000 1.0
C      1  0.5490040000000  0.4785530000000  0.5265590000000 1.0
C      1  0.5342330000000  0.4705970000000  0.4406620000000 1.0
C      1  0.5772390000000  0.5294270000000  0.5484670000000 1.0
C      1  0.4349460000000  0.5143960000000  0.4517550000000 1.0
C      1  0.4866220000000  0.5556620000000  0.4895630000000 1.0
C      1  0.5183990000000  0.4728940000000  0.4137520000000 1.0
C      1  0.5041810000000  0.5625980000000  0.5185630000000 1.0
C      1  0.5283810000000  0.5063950000000  0.5643640000000 1.0
C      1  0.4320560000000  0.4712300000000  0.5840800000000 1.0
C      1  0.4514140000000  0.5045080000000  0.4774850000000 1.0
C      1  0.4568080000000  0.4773860000000  0.4186850000000 1.0
C      1  0.4464650000000  0.4811540000000  0.5645000000000 1.0
C      1  0.4758510000000  0.4222380000000  0.5273490000000 1.0
C      1  0.5030150000000  0.5375750000000  0.5497470000000 1.0
C      1  0.4815940000000  0.4379290000000  0.4282030000000 1.0
C      1  0.4711550000000  0.4655900000000  0.4547900000000 1.0
C      1  0.4151540000000  0.5035230000000  0.5164260000000 1.0
C      1  0.4919080000000  0.4224790000000  0.4790750000000 1.0
C      1  0.4921310000000  0.5286350000000  0.5017140000000 1.0
C      1  0.5513260000000  0.4481330000000  0.5120100000000 1.0
C      1  0.4799510000000  0.5591520000000  0.5422520000000 1.0
C      1  0.4770300000000  0.4557560000000  0.5257410000000 1.0
C      1  0.4504350000000  0.4654210000000  0.5154350000000 1.0
C      1  0.5648090000000  0.4539250000000  0.4753600000000 1.0
C      1  0.4520190000000  0.5134060000000  0.5275360000000 1.0
C      1  0.4339690000000  0.4882090000000  0.4972870000000 1.0
C      1  0.4559100000000  0.5101280000000  0.4254620000000 1.0
C      1  0.4937140000000  0.5135430000000  0.4391570000000 1.0
C      1  0.4521350000000  0.5404920000000  0.4389050000000 1.0
C      1  0.5260850000000  0.5029840000000  0.4385510000000 1.0
C      1  0.4328290000000  0.4569890000000  0.4616810000000 1.0
C      1  0.5987420000000  0.5319370000000  0.5655450000000 1.0
C      1  0.5716600000000  0.4733030000000  0.5012960000000 1.0
C      1  0.5492520000000  0.5320420000000  0.5572220000000 1.0
C      1  0.4514960000000  0.4477430000000  0.4346310000000 1.0
C      1  0.5287180000000  0.4457240000000  0.5357710000000 1.0
C      1  0.4151820000000  0.5316130000000  0.5157790000000 1.0
C      1  0.5738200000000  0.4957290000000  0.4550670000000 1.0
C      1  0.5628050000000  0.4694590000000  0.4513250000000 1.0
C      1  0.5218670000000  0.5203870000000  0.5113770000000 1.0
C      1  0.5087170000000  0.4619730000000  0.5161690000000 1.0
C      1  0.4755000000000  0.4890200000000  0.5662250000000 1.0
C      1  0.5277720000000  0.5805040000000  0.4607250000000 1.0
C      1  0.4638360000000  0.5545180000000  0.4673990000000 1.0
C      1  0.4797410000000  0.5171880000000  0.5805290000000 1.0
C      1  0.5151640000000  0.4181040000000  0.4953430000000 1.0
C      1  0.4370460000000  0.4866340000000  0.5366780000000 1.0
C      1  0.4736430000000  0.5617460000000  0.4293850000000 1.0
C      1  0.5240620000000  0.5442990000000  0.5757040000000 1.0
C      1  0.4772170000000  0.4526090000000  0.4817040000000 1.0
C      1  0.5124790000000  0.4744780000000  0.4847380000000 1.0
C      1  0.5754700000000  0.5024610000000  0.4874820000000 1.0
C      1  0.5223410000000  0.5691920000000  0.4902600000000 1.0
C      1  0.4810990000000  0.4812830000000  0.4953640000000 1.0
C      1  0.5262710000000  0.4770300000000  0.5497430000000 1.0
C      1  0.4671810000000  0.5384140000000  0.5671350000000 1.0
C      1  0.5097360000000  0.4203920000000  0.5253530000000 1.0
C      1  0.4698630000000  0.4950830000000  0.4529270000000 1.0
C      1  0.5313550000000  0.5246530000000  0.4640670000000 1.0
C      1  0.4334870000000  0.4821310000000  0.4430150000000 1.0
C      1  0.6399460000000  0.5367470000000  0.5982700000000 1.0
C      1  0.5162560000000  0.5500020000000  0.4629410000000 1.0
C      1  0.4478950000000  0.5360050000000  0.5439290000000 1.0
C      1  0.5198600000000  0.4531020000000  0.4625600000000 1.0
C      1  0.4947950000000  0.4663500000000  0.5532400000000 1.0
END
