TITL C-2778436-5916-1113 -0.00206880504809106 125000 -852.594430310264 0 0 149 (C1) n - 1
REM
REM in /home/nfs/bkarasulu/CARBON/AIRSS/Generating-Clusters/REBO/Only-C1/SD-CG/HFTN-CG
REM
REM
REM
REM
REM
REM ./C.cell (11c1c37f851c82e70ff6c80c92926a4b)
REM
REM compiler GCC version 9.2.1 20190827 (Red Hat 9.2.1-1)
REM options -cpp -mtune=generic -march=x86-64 -g -O0 -fpre-include=/usr/include/finclude/math-vector-fortran.h
REM seed 1428835194 -1718532263 -1904578019 1947803775 1952091895 70581713 -1014171784 1947584350 -216828171 -373602433 871736306 1146437846 -1497630767 -2032150607 -1975815443 -9793431 -370909709 -1846904909 -1617463308 -1895312060 1306319917 -864060005 1067010867 -694192801 -1309554868 1290852065 1581473188 1828411886 532644275 1199970857 -1108055834 1656985366 2017265886
REM
CELL 1.54180   50.00000   50.00000   50.00000   90.00000   90.00000   90.00000
LATT -1
SFAC C  
C      1  0.4527120000000  0.5409030000000  0.4970550000000 1.0
C      1  0.4701230000000  0.5964210000000  0.4987750000000 1.0
C      1  0.5356370000000  0.5659400000000  0.5194250000000 1.0
C      1  0.5027590000000  0.3956420000000  0.5232080000000 1.0
C      1  0.5062010000000  0.5358930000000  0.5265020000000 1.0
C      1  0.5451050000000  0.4945380000000  0.5472430000000 1.0
C      1  0.4720830000000  0.4164320000000  0.4805760000000 1.0
C      1  0.5125750000000  0.4699880000000  0.5269530000000 1.0
C      1  0.5006270000000  0.5712090000000  0.4280400000000 1.0
C      1  0.5964820000000  0.4382880000000  0.4870120000000 1.0
C      1  0.4433840000000  0.5052840000000  0.5144450000000 1.0
C      1  0.4309330000000  0.5300300000000  0.4654370000000 1.0
C      1  0.4457130000000  0.5729730000000  0.4589650000000 1.0
C      1  0.5039390000000  0.5864930000000  0.5442400000000 1.0
C      1  0.4298230000000  0.4443490000000  0.5266170000000 1.0
C      1  0.4771670000000  0.5217350000000  0.4445150000000 1.0
C      1  0.5430300000000  0.4930840000000  0.5153650000000 1.0
C      1  0.5077120000000  0.4222290000000  0.5701880000000 1.0
C      1  0.5617550000000  0.5765260000000  0.4613440000000 1.0
C      1  0.4544290000000  0.4040540000000  0.5062750000000 1.0
C      1  0.4630520000000  0.4604630000000  0.5735680000000 1.0
C      1  0.5017080000000  0.4016060000000  0.4474700000000 1.0
C      1  0.6053020000000  0.5291090000000  0.5372940000000 1.0
C      1  0.5566260000000  0.5389330000000  0.4984070000000 1.0
C      1  0.4950200000000  0.5613780000000  0.5649760000000 1.0
C      1  0.4633150000000  0.5666960000000  0.5133930000000 1.0
C      1  0.5223270000000  0.4159760000000  0.5336970000000 1.0
C      1  0.5683140000000  0.5656850000000  0.5257300000000 1.0
C      1  0.4830010000000  0.4690640000000  0.4520350000000 1.0
C      1  0.5524240000000  0.5775710000000  0.5534450000000 1.0
C      1  0.4676760000000  0.5949620000000  0.4694440000000 1.0
C      1  0.5722340000000  0.4698800000000  0.4895480000000 1.0
C      1  0.4666740000000  0.5033490000000  0.4226740000000 1.0
C      1  0.5373280000000  0.5221320000000  0.5290000000000 1.0
C      1  0.4362640000000  0.5044180000000  0.4213110000000 1.0
C      1  0.5512130000000  0.4245300000000  0.5046260000000 1.0
C      1  0.4956900000000  0.5654040000000  0.5197070000000 1.0
C      1  0.4376000000000  0.5338810000000  0.4167310000000 1.0
C      1  0.4284920000000  0.5480490000000  0.5483770000000 1.0
C      1  0.5499980000000  0.4252110000000  0.4510150000000 1.0
C      1  0.4601730000000  0.4641980000000  0.4270660000000 1.0
C      1  0.5397960000000  0.5132180000000  0.4904620000000 1.0
C      1  0.4788330000000  0.4796170000000  0.4039630000000 1.0
C      1  0.4524870000000  0.5166980000000  0.5426430000000 1.0
C      1  0.4168560000000  0.5614050000000  0.4698890000000 1.0
C      1  0.4435900000000  0.4735350000000  0.5357380000000 1.0
C      1  0.5154380000000  0.4654280000000  0.4107250000000 1.0
C      1  0.5265320000000  0.4622990000000  0.4825070000000 1.0
C      1  0.4400840000000  0.4415190000000  0.5590360000000 1.0
C      1  0.5229960000000  0.5013470000000  0.4543120000000 1.0
C      1  0.5299680000000  0.5710490000000  0.4681970000000 1.0
C      1  0.5408250000000  0.4362300000000  0.4797580000000 1.0
C      1  0.5695400000000  0.5764950000000  0.4942320000000 1.0
C      1  0.4021530000000  0.5057190000000  0.5230620000000 1.0
C      1  0.4411680000000  0.4338790000000  0.4988610000000 1.0
C      1  0.5366590000000  0.5486160000000  0.5485330000000 1.0
C      1  0.5578420000000  0.4716810000000  0.5689290000000 1.0
C      1  0.5476110000000  0.4799770000000  0.4315490000000 1.0
C      1  0.4170780000000  0.4653670000000  0.4940040000000 1.0
C      1  0.4884800000000  0.5305060000000  0.3993650000000 1.0
C      1  0.4980260000000  0.5031290000000  0.3981570000000 1.0
C      1  0.4857360000000  0.4247080000000  0.5201650000000 1.0
C      1  0.5890180000000  0.4837390000000  0.5171310000000 1.0
C      1  0.4750970000000  0.5548290000000  0.4390970000000 1.0
C      1  0.5121200000000  0.5262070000000  0.5586910000000 1.0
C      1  0.4958790000000  0.4381210000000  0.4902940000000 1.0
C      1  0.4243710000000  0.5104010000000  0.4901360000000 1.0
C      1  0.4746690000000  0.5991170000000  0.5323700000000 1.0
C      1  0.5504660000000  0.5596070000000  0.4362750000000 1.0
C      1  0.5744520000000  0.5490560000000  0.4736450000000 1.0
C      1  0.5952830000000  0.4526980000000  0.5172360000000 1.0
C      1  0.5030020000000  0.4437030000000  0.4572110000000 1.0
C      1  0.5763750000000  0.5357100000000  0.5243070000000 1.0
C      1  0.5128020000000  0.5956990000000  0.4791040000000 1.0
C      1  0.4658550000000  0.4886220000000  0.5894030000000 1.0
C      1  0.5521750000000  0.5024040000000  0.4642950000000 1.0
C      1  0.6010230000000  0.4972790000000  0.4927830000000 1.0
C      1  0.4645240000000  0.5415430000000  0.4115350000000 1.0
C      1  0.5050660000000  0.4892700000000  0.5026810000000 1.0
C      1  0.4598250000000  0.5144620000000  0.4684930000000 1.0
C      1  0.4826440000000  0.4968700000000  0.5258330000000 1.0
C      1  0.5317240000000  0.4524900000000  0.4444240000000 1.0
C      1  0.4952720000000  0.5676490000000  0.4871530000000 1.0
C      1  0.4238000000000  0.4409010000000  0.4712040000000 1.0
C      1  0.5078910000000  0.5193550000000  0.4863900000000 1.0
C      1  0.4892220000000  0.4991730000000  0.6006360000000 1.0
C      1  0.4875050000000  0.5946280000000  0.4489320000000 1.0
C      1  0.4870340000000  0.5047800000000  0.5588280000000 1.0
C      1  0.5422680000000  0.4947280000000  0.5880890000000 1.0
C      1  0.5242140000000  0.4411730000000  0.5158050000000 1.0
C      1  0.5749510000000  0.4251780000000  0.5178570000000 1.0
C      1  0.4370670000000  0.4906050000000  0.4674420000000 1.0
C      1  0.4280180000000  0.5506620000000  0.4396080000000 1.0
C      1  0.4829870000000  0.4395420000000  0.5839780000000 1.0
C      1  0.5277430000000  0.6103590000000  0.4970370000000 1.0
C      1  0.3977100000000  0.5263490000000  0.5016940000000 1.0
C      1  0.4669370000000  0.5776670000000  0.5559780000000 1.0
C      1  0.4325180000000  0.5620120000000  0.5238120000000 1.0
C      1  0.4714260000000  0.5555150000000  0.4729410000000 1.0
C      1  0.5375000000000  0.5269210000000  0.5814690000000 1.0
C      1  0.4171870000000  0.4677610000000  0.4549690000000 1.0
C      1  0.5794280000000  0.5296650000000  0.4534900000000 1.0
C      1  0.5066210000000  0.4814590000000  0.4695690000000 1.0
C      1  0.5320520000000  0.5972330000000  0.5515250000000 1.0
C      1  0.3994430000000  0.4791040000000  0.5108920000000 1.0
C      1  0.4739920000000  0.4704860000000  0.5431800000000 1.0
C      1  0.4460500000000  0.4963040000000  0.5684780000000 1.0
C      1  0.5140950000000  0.4833980000000  0.5923030000000 1.0
C      1  0.4194270000000  0.5491410000000  0.4983830000000 1.0
C      1  0.5284330000000  0.4042490000000  0.4412370000000 1.0
C      1  0.5648580000000  0.5109880000000  0.5680950000000 1.0
C      1  0.4897930000000  0.4501450000000  0.4175100000000 1.0
C      1  0.4184360000000  0.5184550000000  0.5436310000000 1.0
C      1  0.5089550000000  0.4818130000000  0.5586670000000 1.0
C      1  0.5286430000000  0.4967480000000  0.4108260000000 1.0
C      1  0.4698430000000  0.5294570000000  0.5758160000000 1.0
C      1  0.4545500000000  0.4316890000000  0.4595570000000 1.0
C      1  0.5825210000000  0.5058900000000  0.5393640000000 1.0
C      1  0.5611300000000  0.4629110000000  0.4579830000000 1.0
C      1  0.5258340000000  0.4534600000000  0.5536930000000 1.0
C      1  0.5069400000000  0.5277740000000  0.4534240000000 1.0
C      1  0.5330010000000  0.5300610000000  0.4093160000000 1.0
C      1  0.4903990000000  0.5284920000000  0.5995170000000 1.0
C      1  0.5253600000000  0.5524040000000  0.4942410000000 1.0
C      1  0.5467230000000  0.5956680000000  0.5106750000000 1.0
C      1  0.5784940000000  0.4360860000000  0.4663960000000 1.0
C      1  0.5848060000000  0.4931950000000  0.4684330000000 1.0
C      1  0.5133880000000  0.4527540000000  0.5855110000000 1.0
C      1  0.4492030000000  0.5551190000000  0.5671470000000 1.0
C      1  0.5395600000000  0.4230810000000  0.5606740000000 1.0
C      1  0.4941860000000  0.3855590000000  0.4682970000000 1.0
C      1  0.4552330000000  0.4650670000000  0.4665610000000 1.0
C      1  0.4873220000000  0.4401810000000  0.5491970000000 1.0
C      1  0.4832870000000  0.3896070000000  0.4986050000000 1.0
C      1  0.4762040000000  0.5162450000000  0.4982900000000 1.0
C      1  0.4815880000000  0.4258100000000  0.4397200000000 1.0
C      1  0.5464500000000  0.4656320000000  0.5062700000000 1.0
C      1  0.4674100000000  0.4535210000000  0.4945410000000 1.0
C      1  0.4547270000000  0.4225410000000  0.5345750000000 1.0
C      1  0.5732550000000  0.5013390000000  0.4385330000000 1.0
C      1  0.4264930000000  0.4727740000000  0.5634920000000 1.0
C      1  0.5838870000000  0.4384000000000  0.5449730000000 1.0
C      1  0.5206600000000  0.5529490000000  0.4443180000000 1.0
C      1  0.5109670000000  0.5471850000000  0.4061510000000 1.0
C      1  0.5635680000000  0.4443410000000  0.5630560000000 1.0
C      1  0.4326190000000  0.4765220000000  0.4302730000000 1.0
C      1  0.4775130000000  0.5398710000000  0.5440440000000 1.0
C      1  0.4445380000000  0.4738030000000  0.5040050000000 1.0
C      1  0.5121770000000  0.5477200000000  0.5910230000000 1.0
END
