TITL C-2778429-3646-504 5.56327451079796e-07 125000 -110.288413127385 0 0 20 (Cs) n - 1
REM
REM in /home/nfs/bkarasulu/CARBON/AIRSS/Generating-Clusters/REBO/Only-C1/SD-CG/HFTN-CG
REM
REM
REM
REM
REM
REM ./C.cell (11c1c37f851c82e70ff6c80c92926a4b)
REM
REM compiler GCC version 9.2.1 20190827 (Red Hat 9.2.1-1)
REM options -cpp -mtune=generic -march=x86-64 -g -O0 -fpre-include=/usr/include/finclude/math-vector-fortran.h
REM seed 1292991157 -387291635 -1849978595 977554231 2003540795 -1864520902 -2121873083 -455104215 -840839873 -33202930 691928585 -2041635157 -1363098081 1991136868 2007654520 -1439358429 1653724484 -1007699166 445583911 -331753907 -844778773 923202802 73961314 564329291 739719339 587582628 1123663235 616857302 1022616180 -1468478875 136421468 626625435 -1485566280
REM
CELL 1.54180   50.00000   50.00000   50.00000   90.00000   90.00000   90.00000
LATT -1
SFAC C  
C      1  0.5191660000000  0.5176900000000  0.4427150000000 1.0
C      1  0.4726190000000  0.5277950000000  0.5358310000000 1.0
C      1  0.5216690000000  0.5347660000000  0.4224330000000 1.0
C      1  0.4592770000000  0.5356610000000  0.5582110000000 1.0
C      1  0.4981550000000  0.4918770000000  0.5110800000000 1.0
C      1  0.5081140000000  0.4655300000000  0.5121250000000 1.0
C      1  0.5258530000000  0.4200430000000  0.5127370000000 1.0
C      1  0.4806630000000  0.4839950000000  0.5561980000000 1.0
C      1  0.5219620000000  0.4439510000000  0.5005250000000 1.0
C      1  0.5241320000000  0.5515700000000  0.4024730000000 1.0
C      1  0.5314250000000  0.4500420000000  0.4745340000000 1.0
C      1  0.4838540000000  0.5015840000000  0.5339660000000 1.0
C      1  0.5275700000000  0.4739730000000  0.4622220000000 1.0
C      1  0.5025290000000  0.5079580000000  0.4875650000000 1.0
C      1  0.4760610000000  0.5444350000000  0.5138700000000 1.0
C      1  0.4912060000000  0.4588800000000  0.5548960000000 1.0
C      1  0.4920270000000  0.5337780000000  0.4881650000000 1.0
C      1  0.4800320000000  0.5639970000000  0.4882200000000 1.0
C      1  0.5165370000000  0.4997550000000  0.4640180000000 1.0
C      1  0.4671470000000  0.4927210000000  0.5782160000000 1.0
END
