TITL C-2778424-3986-530 0.000563557698350754 125000 -211.099163308201 0 0 38 (C1) n - 1
REM
REM in /home/nfs/bkarasulu/CARBON/AIRSS/Generating-Clusters/REBO/Only-C1/SD-CG/HFTN-CG
REM
REM
REM
REM
REM
REM ./C.cell (11c1c37f851c82e70ff6c80c92926a4b)
REM
REM compiler GCC version 9.2.1 20190827 (Red Hat 9.2.1-1)
REM options -cpp -mtune=generic -march=x86-64 -g -O0 -fpre-include=/usr/include/finclude/math-vector-fortran.h
REM seed 862896676 -285915251 -1760544799 1878202398 -693382569 711982144 1457245336 2038038081 144939071 908181168 -2111236884 -1488107958 384773515 1704193640 -1856474684 -1049659018 1937188713 1504548833 790989668 -270613408 764489857 2049553024 273375427 287253492 238316329 -1627039187 -1862935999 -195462920 848807695 106678888 -1145201060 -1044797774 1625932915
REM
CELL 1.54180   50.00000   50.00000   50.00000   90.00000   90.00000   90.00000
LATT -1
SFAC C  
C      1  0.4987750000000  0.5379180000000  0.5679330000000 1.0
C      1  0.4869320000000  0.4901760000000  0.4503730000000 1.0
C      1  0.5261400000000  0.5427950000000  0.5627820000000 1.0
C      1  0.4737400000000  0.4784520000000  0.5177170000000 1.0
C      1  0.4416700000000  0.5124860000000  0.5379580000000 1.0
C      1  0.5045090000000  0.5616830000000  0.4314960000000 1.0
C      1  0.5422650000000  0.5094680000000  0.5122460000000 1.0
C      1  0.4844650000000  0.4626580000000  0.4458540000000 1.0
C      1  0.4739070000000  0.5333630000000  0.5496830000000 1.0
C      1  0.4926230000000  0.4963090000000  0.5000960000000 1.0
C      1  0.4763970000000  0.4492880000000  0.5142440000000 1.0
C      1  0.4762160000000  0.4997090000000  0.4745530000000 1.0
C      1  0.5456470000000  0.4883600000000  0.4662910000000 1.0
C      1  0.4590790000000  0.5223120000000  0.4762490000000 1.0
C      1  0.5393370000000  0.5332970000000  0.5327450000000 1.0
C      1  0.4673600000000  0.5409760000000  0.4566010000000 1.0
C      1  0.5280200000000  0.4648020000000  0.4718630000000 1.0
C      1  0.4439300000000  0.4907510000000  0.5134290000000 1.0
C      1  0.5041890000000  0.5110220000000  0.4355070000000 1.0
C      1  0.4800480000000  0.4319960000000  0.4870270000000 1.0
C      1  0.4916330000000  0.5392230000000  0.4413470000000 1.0
C      1  0.5052540000000  0.5060610000000  0.4075240000000 1.0
C      1  0.5207770000000  0.4869970000000  0.4980010000000 1.0
C      1  0.4920030000000  0.5051240000000  0.5614010000000 1.0
C      1  0.4708120000000  0.5345820000000  0.5221000000000 1.0
C      1  0.5402530000000  0.5148760000000  0.5606290000000 1.0
C      1  0.5599350000000  0.4913100000000  0.4914870000000 1.0
C      1  0.5217990000000  0.4925120000000  0.5591060000000 1.0
C      1  0.4940670000000  0.5263610000000  0.5085290000000 1.0
C      1  0.4457690000000  0.5237250000000  0.5052980000000 1.0
C      1  0.4795130000000  0.4400950000000  0.4602830000000 1.0
C      1  0.4669780000000  0.4944680000000  0.5451610000000 1.0
C      1  0.5513760000000  0.4786410000000  0.5219550000000 1.0
C      1  0.5332780000000  0.5073160000000  0.4487820000000 1.0
C      1  0.5171110000000  0.5403730000000  0.5107920000000 1.0
C      1  0.5253690000000  0.4534230000000  0.5010610000000 1.0
C      1  0.5341580000000  0.4711750000000  0.5439210000000 1.0
C      1  0.5046640000000  0.4359210000000  0.5079760000000 1.0
END
