TITL C-2778433-5640-828 -0.00311792050363221 125000 -962.910032761587 0 0 168 (C1) n - 1
REM
REM in /home/nfs/bkarasulu/CARBON/AIRSS/Generating-Clusters/REBO/Only-C1/SD-CG/HFTN-CG
REM
REM
REM
REM
REM
REM ./C.cell (11c1c37f851c82e70ff6c80c92926a4b)
REM
REM compiler GCC version 9.2.1 20190827 (Red Hat 9.2.1-1)
REM options -cpp -mtune=generic -march=x86-64 -g -O0 -fpre-include=/usr/include/finclude/math-vector-fortran.h
REM seed -196386212 553547161 1764492510 -1196577750 -1526887480 97269690 -1347739982 -2108300104 -1713705622 1237906632 626201409 -1831492584 -1439151584 636011625 1349513624 -1806403335 799196623 1439748609 -511452400 289999332 -1388956868 1247175442 1426606925 1234898540 -333763558 1447476847 695743671 1068693291 -1879504460 1691238129 170282719 -897814232 -1739207130
REM
CELL 1.54180   50.00000   50.00000   50.00000   90.00000   90.00000   90.00000
LATT -1
SFAC C  
C      1  0.4757680000000  0.5659750000000  0.5586170000000 1.0
C      1  0.4714920000000  0.4710710000000  0.4939010000000 1.0
C      1  0.5543210000000  0.4226810000000  0.5572160000000 1.0
C      1  0.5172350000000  0.5042440000000  0.4356480000000 1.0
C      1  0.5178670000000  0.5565760000000  0.4096420000000 1.0
C      1  0.3859930000000  0.5158570000000  0.4734620000000 1.0
C      1  0.6255250000000  0.5092880000000  0.5143660000000 1.0
C      1  0.4773080000000  0.6006510000000  0.4926700000000 1.0
C      1  0.5464690000000  0.5069840000000  0.4085330000000 1.0
C      1  0.5474410000000  0.5176240000000  0.5196210000000 1.0
C      1  0.4682600000000  0.4760380000000  0.4433280000000 1.0
C      1  0.4876650000000  0.5265060000000  0.4815870000000 1.0
C      1  0.5397660000000  0.4972330000000  0.5551190000000 1.0
C      1  0.4762420000000  0.4524220000000  0.5221370000000 1.0
C      1  0.5516120000000  0.5871600000000  0.4765130000000 1.0
C      1  0.5008580000000  0.5795430000000  0.5564770000000 1.0
C      1  0.5367140000000  0.4763920000000  0.4836260000000 1.0
C      1  0.5564060000000  0.5434440000000  0.4390770000000 1.0
C      1  0.4887010000000  0.4068530000000  0.5358310000000 1.0
C      1  0.4026590000000  0.4646690000000  0.5214040000000 1.0
C      1  0.4282730000000  0.4893830000000  0.4702490000000 1.0
C      1  0.4107250000000  0.4593200000000  0.4895000000000 1.0
C      1  0.4166600000000  0.5109150000000  0.4876650000000 1.0
C      1  0.4270260000000  0.5116130000000  0.5154780000000 1.0
C      1  0.4669370000000  0.4064240000000  0.4849800000000 1.0
C      1  0.5441860000000  0.4978440000000  0.5948100000000 1.0
C      1  0.5084510000000  0.4602190000000  0.4605210000000 1.0
C      1  0.5693960000000  0.5198300000000  0.5958080000000 1.0
C      1  0.5584080000000  0.5225280000000  0.5575550000000 1.0
C      1  0.5200770000000  0.5309960000000  0.5618210000000 1.0
C      1  0.5711790000000  0.5706600000000  0.5395040000000 1.0
C      1  0.5785710000000  0.5197400000000  0.5175840000000 1.0
C      1  0.4034230000000  0.5062390000000  0.5606090000000 1.0
C      1  0.5740750000000  0.5673430000000  0.4704680000000 1.0
C      1  0.4336430000000  0.5614450000000  0.4939830000000 1.0
C      1  0.4824630000000  0.4708100000000  0.3930400000000 1.0
C      1  0.4121770000000  0.4337690000000  0.5107960000000 1.0
C      1  0.4919800000000  0.5618560000000  0.3974350000000 1.0
C      1  0.4160300000000  0.4597110000000  0.4589090000000 1.0
C      1  0.5823530000000  0.4887170000000  0.5902820000000 1.0
C      1  0.6539430000000  0.4760330000000  0.5641440000000 1.0
C      1  0.5203740000000  0.5259100000000  0.4103400000000 1.0
C      1  0.5571030000000  0.4713070000000  0.5849040000000 1.0
C      1  0.4759680000000  0.5482280000000  0.5333200000000 1.0
C      1  0.4907690000000  0.3972910000000  0.5034200000000 1.0
C      1  0.5170890000000  0.5148470000000  0.5918450000000 1.0
C      1  0.5890120000000  0.5019760000000  0.5423890000000 1.0
C      1  0.5401500000000  0.5729110000000  0.5280070000000 1.0
C      1  0.5362690000000  0.5013520000000  0.4637100000000 1.0
C      1  0.5095100000000  0.4821880000000  0.3866260000000 1.0
C      1  0.4365910000000  0.5368080000000  0.4191670000000 1.0
C      1  0.4337450000000  0.4164420000000  0.5039620000000 1.0
C      1  0.4974430000000  0.4827710000000  0.4769900000000 1.0
C      1  0.4369800000000  0.4367730000000  0.4544240000000 1.0
C      1  0.4176800000000  0.4800220000000  0.5753670000000 1.0
C      1  0.4214180000000  0.4271900000000  0.5526140000000 1.0
C      1  0.5052950000000  0.4322700000000  0.4209850000000 1.0
C      1  0.3867070000000  0.5302580000000  0.5506740000000 1.0
C      1  0.4684220000000  0.4536150000000  0.5523850000000 1.0
C      1  0.5566380000000  0.4546680000000  0.5008030000000 1.0
C      1  0.6032030000000  0.5251440000000  0.4966230000000 1.0
C      1  0.4421850000000  0.4583630000000  0.5018320000000 1.0
C      1  0.5413960000000  0.4587810000000  0.4557360000000 1.0
C      1  0.4239420000000  0.4571670000000  0.5524330000000 1.0
C      1  0.4724260000000  0.4914600000000  0.5279260000000 1.0
C      1  0.5086350000000  0.5833090000000  0.5263040000000 1.0
C      1  0.5251760000000  0.4924340000000  0.5251710000000 1.0
C      1  0.5055320000000  0.5377910000000  0.5315820000000 1.0
C      1  0.4439470000000  0.4744850000000  0.4188400000000 1.0
C      1  0.4747140000000  0.4996370000000  0.4233040000000 1.0
C      1  0.4994020000000  0.4730020000000  0.5373590000000 1.0
C      1  0.5660810000000  0.4160170000000  0.4986770000000 1.0
C      1  0.5498590000000  0.4300060000000  0.4484340000000 1.0
C      1  0.5852380000000  0.4886660000000  0.4641700000000 1.0
C      1  0.4356570000000  0.5470460000000  0.5721200000000 1.0
C      1  0.5864010000000  0.5541840000000  0.4991350000000 1.0
C      1  0.4689500000000  0.5129940000000  0.5504430000000 1.0
C      1  0.5655330000000  0.5361160000000  0.4790530000000 1.0
C      1  0.5941300000000  0.5178090000000  0.4149450000000 1.0
C      1  0.4861590000000  0.5288730000000  0.4308230000000 1.0
C      1  0.4536680000000  0.6068850000000  0.4802550000000 1.0
C      1  0.4078380000000  0.5164960000000  0.4493530000000 1.0
C      1  0.4930910000000  0.5087940000000  0.4575540000000 1.0
C      1  0.4848920000000  0.5630370000000  0.4609910000000 1.0
C      1  0.5408440000000  0.5372620000000  0.5893440000000 1.0
C      1  0.4985030000000  0.4972290000000  0.5063710000000 1.0
C      1  0.4329650000000  0.5886920000000  0.4757740000000 1.0
C      1  0.4758460000000  0.4532560000000  0.5975170000000 1.0
C      1  0.4825510000000  0.4564830000000  0.4195420000000 1.0
C      1  0.4588690000000  0.4883650000000  0.4694000000000 1.0
C      1  0.4689480000000  0.4792920000000  0.6009870000000 1.0
C      1  0.4528330000000  0.5258650000000  0.5233960000000 1.0
C      1  0.4391910000000  0.4124530000000  0.5432040000000 1.0
C      1  0.5584890000000  0.4531940000000  0.5320910000000 1.0
C      1  0.4350950000000  0.4077450000000  0.4729190000000 1.0
C      1  0.5327470000000  0.5346000000000  0.4564030000000 1.0
C      1  0.4971340000000  0.4288780000000  0.4985050000000 1.0
C      1  0.4585590000000  0.4375240000000  0.4807420000000 1.0
C      1  0.4958740000000  0.5082190000000  0.3981120000000 1.0
C      1  0.4843790000000  0.5611190000000  0.5038390000000 1.0
C      1  0.4595870000000  0.5400040000000  0.4936800000000 1.0
C      1  0.4787700000000  0.5303030000000  0.5977730000000 1.0
C      1  0.5365620000000  0.5420120000000  0.5272610000000 1.0
C      1  0.4624020000000  0.4212460000000  0.5217730000000 1.0
C      1  0.4439870000000  0.5705930000000  0.5250730000000 1.0
C      1  0.6181070000000  0.4963000000000  0.5374660000000 1.0
C      1  0.5554700000000  0.4502890000000  0.5665360000000 1.0
C      1  0.4902970000000  0.4369180000000  0.5813490000000 1.0
C      1  0.4734800000000  0.5405740000000  0.4042340000000 1.0
C      1  0.4497350000000  0.4683050000000  0.5678540000000 1.0
C      1  0.5234650000000  0.4720800000000  0.4325550000000 1.0
C      1  0.5339670000000  0.5420820000000  0.4874600000000 1.0
C      1  0.4392480000000  0.5621400000000  0.4330760000000 1.0
C      1  0.5825810000000  0.5414360000000  0.5428430000000 1.0
C      1  0.4638150000000  0.5157240000000  0.3884350000000 1.0
C      1  0.5684380000000  0.5188200000000  0.4250430000000 1.0
C      1  0.5089190000000  0.4870110000000  0.5654140000000 1.0
C      1  0.5645130000000  0.5675150000000  0.4317810000000 1.0
C      1  0.4385020000000  0.4921320000000  0.5995540000000 1.0
C      1  0.5005130000000  0.5536420000000  0.5873790000000 1.0
C      1  0.4881120000000  0.5287230000000  0.5660220000000 1.0
C      1  0.4523190000000  0.4426580000000  0.4283350000000 1.0
C      1  0.5157250000000  0.5662790000000  0.4973200000000 1.0
C      1  0.6090420000000  0.5205160000000  0.4670270000000 1.0
C      1  0.5486430000000  0.4198960000000  0.5255590000000 1.0
C      1  0.5901560000000  0.5220550000000  0.5698200000000 1.0
C      1  0.5225980000000  0.5690820000000  0.5737830000000 1.0
C      1  0.5665510000000  0.5116470000000  0.4608890000000 1.0
C      1  0.4752260000000  0.4183510000000  0.4257910000000 1.0
C      1  0.5495690000000  0.4058390000000  0.4707330000000 1.0
C      1  0.4145080000000  0.4915430000000  0.5349980000000 1.0
C      1  0.4612850000000  0.5542220000000  0.5804520000000 1.0
C      1  0.4193000000000  0.4865370000000  0.4379110000000 1.0
C      1  0.4273690000000  0.5588180000000  0.5465560000000 1.0
C      1  0.5280100000000  0.5872000000000  0.4609550000000 1.0
C      1  0.4883940000000  0.4138660000000  0.4521450000000 1.0
C      1  0.4515310000000  0.5214630000000  0.4656040000000 1.0
C      1  0.4899930000000  0.4984310000000  0.5916750000000 1.0
C      1  0.5100340000000  0.5269800000000  0.5019090000000 1.0
C      1  0.4519540000000  0.4998480000000  0.5697890000000 1.0
C      1  0.5195030000000  0.4047280000000  0.5208780000000 1.0
C      1  0.4992420000000  0.4287980000000  0.5578410000000 1.0
C      1  0.6283350000000  0.4843600000000  0.5609640000000 1.0
C      1  0.5509190000000  0.5558090000000  0.5624790000000 1.0
C      1  0.5880670000000  0.4643040000000  0.4665530000000 1.0
C      1  0.5648960000000  0.5795800000000  0.5070390000000 1.0
C      1  0.5057900000000  0.5463140000000  0.4461900000000 1.0
C      1  0.5128120000000  0.4374820000000  0.5280280000000 1.0
C      1  0.4484280000000  0.5161310000000  0.4329480000000 1.0
C      1  0.4586620000000  0.5533980000000  0.4560840000000 1.0
C      1  0.4217250000000  0.5684300000000  0.4567180000000 1.0
C      1  0.5659520000000  0.4817400000000  0.5449520000000 1.0
C      1  0.4740770000000  0.5865460000000  0.5223270000000 1.0
C      1  0.5406540000000  0.4021080000000  0.4079130000000 1.0
C      1  0.4568920000000  0.4860610000000  0.3906120000000 1.0
C      1  0.5250070000000  0.5714380000000  0.4362130000000 1.0
C      1  0.5169250000000  0.4566430000000  0.5008970000000 1.0
C      1  0.6085460000000  0.4832590000000  0.5816550000000 1.0
C      1  0.5314250000000  0.4222410000000  0.4247400000000 1.0
C      1  0.5711190000000  0.4390990000000  0.4738310000000 1.0
C      1  0.4272240000000  0.5183390000000  0.5798840000000 1.0
C      1  0.5328350000000  0.4808480000000  0.4043010000000 1.0
C      1  0.4971690000000  0.4337290000000  0.4682870000000 1.0
C      1  0.4990530000000  0.5862260000000  0.4764990000000 1.0
C      1  0.3999370000000  0.5523160000000  0.5408110000000 1.0
C      1  0.5355770000000  0.4304590000000  0.4893450000000 1.0
C      1  0.4170400000000  0.5405780000000  0.4722690000000 1.0
C      1  0.4431930000000  0.4738450000000  0.5288750000000 1.0
END
