TITL C-2778422-5617-1254 0.00793452169881495 125000 -851.824428826662 0 0 145 (C1) n - 1
REM
REM in /home/nfs/bkarasulu/CARBON/AIRSS/Generating-Clusters/REBO/Only-C1/SD-CG/HFTN-CG
REM
REM
REM
REM
REM
REM ./C.cell (11c1c37f851c82e70ff6c80c92926a4b)
REM
REM compiler GCC version 9.2.1 20190827 (Red Hat 9.2.1-1)
REM options -cpp -mtune=generic -march=x86-64 -g -O0 -fpre-include=/usr/include/finclude/math-vector-fortran.h
REM seed 1501809272 282568300 992317402 -1940827658 2012228678 428812951 -2036490406 -817960725 118860153 1110238457 -1734341898 1092614506 1095026332 590527135 642435418 -1129625588 -1103531134 1754860416 1348660881 -877503603 1833615339 528265451 11527129 899572750 262826057 1730153575 1123393240 667279490 1574012507 -1426753368 -169974429 -1442508363 1703038072
REM
CELL 1.54180   50.00000   50.00000   50.00000   90.00000   90.00000   90.00000
LATT -1
SFAC C  
C      1  0.4388500000000  0.4959010000000  0.4312920000000 1.0
C      1  0.4256240000000  0.4574700000000  0.5244180000000 1.0
C      1  0.5078830000000  0.5034700000000  0.5424350000000 1.0
C      1  0.4361910000000  0.5550690000000  0.5587570000000 1.0
C      1  0.5245870000000  0.4026200000000  0.4956740000000 1.0
C      1  0.5716490000000  0.5473510000000  0.5456990000000 1.0
C      1  0.5897960000000  0.5200670000000  0.5424520000000 1.0
C      1  0.5631850000000  0.5470200000000  0.4333810000000 1.0
C      1  0.5367440000000  0.5562210000000  0.4755080000000 1.0
C      1  0.4513190000000  0.4610330000000  0.4904290000000 1.0
C      1  0.4647190000000  0.4687550000000  0.4536570000000 1.0
C      1  0.5852120000000  0.5438170000000  0.5044370000000 1.0
C      1  0.4629560000000  0.5544780000000  0.5300080000000 1.0
C      1  0.5392040000000  0.5313600000000  0.4986370000000 1.0
C      1  0.4561850000000  0.5449350000000  0.4239700000000 1.0
C      1  0.5049000000000  0.4405590000000  0.5481300000000 1.0
C      1  0.5557860000000  0.5544560000000  0.5178390000000 1.0
C      1  0.4339650000000  0.5278940000000  0.4302770000000 1.0
C      1  0.4337660000000  0.4611310000000  0.4631390000000 1.0
C      1  0.5900900000000  0.4606660000000  0.5425370000000 1.0
C      1  0.4757110000000  0.4041860000000  0.4755800000000 1.0
C      1  0.5511410000000  0.5136210000000  0.4530660000000 1.0
C      1  0.5319190000000  0.4559360000000  0.5338760000000 1.0
C      1  0.5470430000000  0.4493800000000  0.4877050000000 1.0
C      1  0.4221410000000  0.5263890000000  0.5200000000000 1.0
C      1  0.5587430000000  0.4895490000000  0.5633480000000 1.0
C      1  0.4430960000000  0.4481450000000  0.5619980000000 1.0
C      1  0.5600360000000  0.4266310000000  0.4659350000000 1.0
C      1  0.4010350000000  0.5476100000000  0.5127560000000 1.0
C      1  0.5610770000000  0.5124210000000  0.4822110000000 1.0
C      1  0.4783420000000  0.5324330000000  0.4092410000000 1.0
C      1  0.4758090000000  0.4261450000000  0.4506840000000 1.0
C      1  0.4467560000000  0.5904550000000  0.5024730000000 1.0
C      1  0.5476240000000  0.5837770000000  0.5026540000000 1.0
C      1  0.4667830000000  0.4779130000000  0.5445170000000 1.0
C      1  0.4380480000000  0.5035550000000  0.4624450000000 1.0
C      1  0.4942210000000  0.4473640000000  0.5774710000000 1.0
C      1  0.5229940000000  0.5030260000000  0.4885780000000 1.0
C      1  0.5269040000000  0.4303730000000  0.4474650000000 1.0
C      1  0.4435530000000  0.4748000000000  0.5766530000000 1.0
C      1  0.4702650000000  0.4559400000000  0.4245870000000 1.0
C      1  0.4518790000000  0.5291960000000  0.5036570000000 1.0
C      1  0.4619380000000  0.5627160000000  0.4488690000000 1.0
C      1  0.5172830000000  0.5858670000000  0.4896780000000 1.0
C      1  0.5996300000000  0.4846390000000  0.5228090000000 1.0
C      1  0.4478140000000  0.4237280000000  0.4703790000000 1.0
C      1  0.5279480000000  0.4861660000000  0.5884890000000 1.0
C      1  0.4325190000000  0.5615490000000  0.4617330000000 1.0
C      1  0.5585090000000  0.5104900000000  0.5376210000000 1.0
C      1  0.4889170000000  0.6004870000000  0.5244470000000 1.0
C      1  0.4802640000000  0.4549070000000  0.5316450000000 1.0
C      1  0.4777380000000  0.5043620000000  0.5347020000000 1.0
C      1  0.4901720000000  0.5930430000000  0.4765170000000 1.0
C      1  0.4961580000000  0.4352220000000  0.4897830000000 1.0
C      1  0.4684920000000  0.4317160000000  0.5619820000000 1.0
C      1  0.4389430000000  0.4367380000000  0.4399890000000 1.0
C      1  0.4360080000000  0.4793140000000  0.5380040000000 1.0
C      1  0.5289950000000  0.5727640000000  0.5735850000000 1.0
C      1  0.4726160000000  0.5987490000000  0.4978350000000 1.0
C      1  0.5249750000000  0.5092400000000  0.4113130000000 1.0
C      1  0.5385170000000  0.5744640000000  0.5404050000000 1.0
C      1  0.5343270000000  0.5331720000000  0.5443340000000 1.0
C      1  0.5635630000000  0.4172280000000  0.5249710000000 1.0
C      1  0.4845400000000  0.5212420000000  0.5883140000000 1.0
C      1  0.4654130000000  0.5290330000000  0.5455950000000 1.0
C      1  0.5350990000000  0.5137390000000  0.5695540000000 1.0
C      1  0.5276470000000  0.4878370000000  0.5263620000000 1.0
C      1  0.4064770000000  0.5126880000000  0.4693990000000 1.0
C      1  0.5509080000000  0.4166980000000  0.4964180000000 1.0
C      1  0.4993990000000  0.4976230000000  0.5750680000000 1.0
C      1  0.4206430000000  0.5047550000000  0.4985400000000 1.0
C      1  0.4124130000000  0.5721380000000  0.5099280000000 1.0
C      1  0.4364390000000  0.5758260000000  0.5316370000000 1.0
C      1  0.4303060000000  0.5003470000000  0.5609740000000 1.0
C      1  0.4949250000000  0.4890470000000  0.3951700000000 1.0
C      1  0.5936030000000  0.5155390000000  0.4771590000000 1.0
C      1  0.5774650000000  0.4578760000000  0.4800630000000 1.0
C      1  0.4685700000000  0.4431680000000  0.5054880000000 1.0
C      1  0.5727860000000  0.5083250000000  0.4327230000000 1.0
C      1  0.5057890000000  0.4562430000000  0.5117830000000 1.0
C      1  0.5737960000000  0.4708550000000  0.5080680000000 1.0
C      1  0.4103460000000  0.4795710000000  0.4781090000000 1.0
C      1  0.5562180000000  0.4967410000000  0.5097230000000 1.0
C      1  0.4735200000000  0.5822590000000  0.5446290000000 1.0
C      1  0.5088850000000  0.5642460000000  0.5401850000000 1.0
C      1  0.4994020000000  0.5198860000000  0.3946000000000 1.0
C      1  0.4603640000000  0.5263460000000  0.5724270000000 1.0
C      1  0.4658780000000  0.4810630000000  0.4058790000000 1.0
C      1  0.5114740000000  0.5452140000000  0.4554800000000 1.0
C      1  0.4646060000000  0.5660290000000  0.5739290000000 1.0
C      1  0.4635900000000  0.5220730000000  0.4723890000000 1.0
C      1  0.6007270000000  0.5151510000000  0.5105460000000 1.0
C      1  0.5294940000000  0.4704270000000  0.4966980000000 1.0
C      1  0.5137240000000  0.3982410000000  0.5204240000000 1.0
C      1  0.5731760000000  0.5255140000000  0.5722720000000 1.0
C      1  0.4775310000000  0.4746980000000  0.5753100000000 1.0
C      1  0.4865380000000  0.5497900000000  0.5942600000000 1.0
C      1  0.5223060000000  0.5973030000000  0.5215800000000 1.0
C      1  0.4839740000000  0.5412300000000  0.5011050000000 1.0
C      1  0.4842090000000  0.5458890000000  0.4678750000000 1.0
C      1  0.5163880000000  0.4417210000000  0.4169400000000 1.0
C      1  0.4793550000000  0.4985420000000  0.4550760000000 1.0
C      1  0.4388080000000  0.4661920000000  0.4227240000000 1.0
C      1  0.5500480000000  0.5504510000000  0.5698090000000 1.0
C      1  0.5570530000000  0.5041520000000  0.5935180000000 1.0
C      1  0.4194900000000  0.5375690000000  0.4527900000000 1.0
C      1  0.4609330000000  0.4176670000000  0.4222120000000 1.0
C      1  0.5109020000000  0.4964900000000  0.4573360000000 1.0
C      1  0.5046060000000  0.5339280000000  0.5275450000000 1.0
C      1  0.4871680000000  0.5820140000000  0.4509850000000 1.0
C      1  0.5910050000000  0.4948140000000  0.4502430000000 1.0
C      1  0.5232090000000  0.5201550000000  0.4420600000000 1.0
C      1  0.4691600000000  0.5071890000000  0.4253600000000 1.0
C      1  0.4688380000000  0.4123620000000  0.5381700000000 1.0
C      1  0.5257900000000  0.4551130000000  0.5820570000000 1.0
C      1  0.4960610000000  0.5769590000000  0.5667190000000 1.0
C      1  0.5127640000000  0.5730630000000  0.4375410000000 1.0
C      1  0.5430720000000  0.5656420000000  0.4431420000000 1.0
C      1  0.4977710000000  0.4465090000000  0.4517350000000 1.0
C      1  0.5187080000000  0.4132720000000  0.5439870000000 1.0
C      1  0.4260440000000  0.5272330000000  0.5512160000000 1.0
C      1  0.5692660000000  0.4626420000000  0.5637720000000 1.0
C      1  0.5611600000000  0.4486280000000  0.5274840000000 1.0
C      1  0.4324430000000  0.4271580000000  0.4994720000000 1.0
C      1  0.5695600000000  0.5513780000000  0.4802890000000 1.0
C      1  0.5514650000000  0.4544350000000  0.4483580000000 1.0
C      1  0.5110100000000  0.5616200000000  0.6000550000000 1.0
C      1  0.4126220000000  0.4540380000000  0.4971470000000 1.0
C      1  0.5486860000000  0.4431460000000  0.5686310000000 1.0
C      1  0.5463100000000  0.4195620000000  0.5505300000000 1.0
C      1  0.4404710000000  0.4300900000000  0.5327770000000 1.0
C      1  0.5201030000000  0.4753170000000  0.4120490000000 1.0
C      1  0.4963620000000  0.5690110000000  0.5106320000000 1.0
C      1  0.4728990000000  0.5031310000000  0.5060510000000 1.0
C      1  0.5084050000000  0.4131600000000  0.4707260000000 1.0
C      1  0.5213050000000  0.4697590000000  0.4446300000000 1.0
C      1  0.5819170000000  0.4685910000000  0.4532890000000 1.0
C      1  0.4886300000000  0.4658450000000  0.4768420000000 1.0
C      1  0.4264580000000  0.5780680000000  0.4832550000000 1.0
C      1  0.4946800000000  0.4895890000000  0.4929260000000 1.0
C      1  0.4484790000000  0.4909710000000  0.4923110000000 1.0
C      1  0.5811760000000  0.5397630000000  0.4558210000000 1.0
C      1  0.4621060000000  0.4109210000000  0.5052420000000 1.0
C      1  0.5533030000000  0.5239760000000  0.4145130000000 1.0
C      1  0.4887740000000  0.4338330000000  0.4137020000000 1.0
END
