TITL C-2778429-3646-1335 0.00246481381317044 125000 -635.016937934336 0 0 110 (C1) n - 1
REM
REM in /home/nfs/bkarasulu/CARBON/AIRSS/Generating-Clusters/REBO/Only-C1/SD-CG/HFTN-CG
REM
REM
REM
REM
REM
REM ./C.cell (11c1c37f851c82e70ff6c80c92926a4b)
REM
REM compiler GCC version 9.2.1 20190827 (Red Hat 9.2.1-1)
REM options -cpp -mtune=generic -march=x86-64 -g -O0 -fpre-include=/usr/include/finclude/math-vector-fortran.h
REM seed -642013556 1862302891 -1350508586 51503211 1026386173 1402952342 -1676102604 -826498220 1892317103 -160384960 -1485855806 55769765 760899219 -10300964 1161668510 1889675030 857671861 1467991268 944075924 396857185 92952025 -120818929 -1213999721 -1592988140 -1349123773 -242466702 1899390860 1036289515 1040727219 323205416 774859859 1147605488 -729048427
REM
CELL 1.54180   50.00000   50.00000   50.00000   90.00000   90.00000   90.00000
LATT -1
SFAC C  
C      1  0.5056840000000  0.4131190000000  0.5376270000000 1.0
C      1  0.5344560000000  0.4312840000000  0.5375560000000 1.0
C      1  0.5003980000000  0.5898390000000  0.5243750000000 1.0
C      1  0.4696190000000  0.5053510000000  0.4546210000000 1.0
C      1  0.4401930000000  0.4468690000000  0.5020530000000 1.0
C      1  0.4478100000000  0.5340940000000  0.5089620000000 1.0
C      1  0.5270200000000  0.4689300000000  0.4468350000000 1.0
C      1  0.5410220000000  0.4916650000000  0.4177640000000 1.0
C      1  0.5008370000000  0.5221870000000  0.4806900000000 1.0
C      1  0.5191030000000  0.5440250000000  0.5438310000000 1.0
C      1  0.4764470000000  0.5299260000000  0.5364500000000 1.0
C      1  0.5422670000000  0.5371760000000  0.5678380000000 1.0
C      1  0.4789040000000  0.5923380000000  0.4780270000000 1.0
C      1  0.5231680000000  0.5145330000000  0.5126620000000 1.0
C      1  0.4860620000000  0.4852200000000  0.6058160000000 1.0
C      1  0.4580420000000  0.5370200000000  0.5781780000000 1.0
C      1  0.4975770000000  0.4626940000000  0.4526190000000 1.0
C      1  0.4189260000000  0.4847230000000  0.4556960000000 1.0
C      1  0.4744380000000  0.5319910000000  0.4688780000000 1.0
C      1  0.4599220000000  0.5023000000000  0.5127590000000 1.0
C      1  0.5490610000000  0.5782550000000  0.5045730000000 1.0
C      1  0.3760890000000  0.5390280000000  0.4858870000000 1.0
C      1  0.5917810000000  0.5101090000000  0.4885300000000 1.0
C      1  0.5530710000000  0.5127850000000  0.4404670000000 1.0
C      1  0.5525310000000  0.5826700000000  0.5346470000000 1.0
C      1  0.4423870000000  0.4940200000000  0.4378760000000 1.0
C      1  0.5498170000000  0.5045700000000  0.5741640000000 1.0
C      1  0.4486870000000  0.5514780000000  0.5545580000000 1.0
C      1  0.5390240000000  0.4929280000000  0.4576680000000 1.0
C      1  0.4873320000000  0.4392360000000  0.4435870000000 1.0
C      1  0.4904100000000  0.4579750000000  0.5540540000000 1.0
C      1  0.5473240000000  0.4358920000000  0.4639470000000 1.0
C      1  0.5145740000000  0.5091630000000  0.4305610000000 1.0
C      1  0.4306340000000  0.5325750000000  0.5361180000000 1.0
C      1  0.5377780000000  0.4932030000000  0.5347950000000 1.0
C      1  0.5862930000000  0.4847410000000  0.5085970000000 1.0
C      1  0.5125010000000  0.5640930000000  0.4531780000000 1.0
C      1  0.5236990000000  0.5007260000000  0.4815570000000 1.0
C      1  0.5760370000000  0.5131010000000  0.5247680000000 1.0
C      1  0.4458650000000  0.5106840000000  0.5802200000000 1.0
C      1  0.5118950000000  0.4802990000000  0.5977000000000 1.0
C      1  0.5984230000000  0.5067040000000  0.4619180000000 1.0
C      1  0.4269800000000  0.5351180000000  0.4824780000000 1.0
C      1  0.4954670000000  0.4934400000000  0.4452470000000 1.0
C      1  0.4720100000000  0.3929730000000  0.5010610000000 1.0
C      1  0.4859710000000  0.5377960000000  0.5852930000000 1.0
C      1  0.4568610000000  0.4863370000000  0.4750680000000 1.0
C      1  0.5232060000000  0.5428800000000  0.4762550000000 1.0
C      1  0.5157640000000  0.5428630000000  0.4273340000000 1.0
C      1  0.5120500000000  0.4491660000000  0.5220180000000 1.0
C      1  0.4778100000000  0.4690220000000  0.4920250000000 1.0
C      1  0.5456310000000  0.5395190000000  0.4383400000000 1.0
C      1  0.4526320000000  0.4359690000000  0.5239900000000 1.0
C      1  0.5028130000000  0.5719450000000  0.5513170000000 1.0
C      1  0.4824600000000  0.4297360000000  0.5516670000000 1.0
C      1  0.5111490000000  0.5297530000000  0.5798800000000 1.0
C      1  0.5614010000000  0.4607410000000  0.4650920000000 1.0
C      1  0.5297070000000  0.4792400000000  0.5769130000000 1.0
C      1  0.4348550000000  0.5090630000000  0.4154880000000 1.0
C      1  0.3985660000000  0.5015890000000  0.4616930000000 1.0
C      1  0.5172950000000  0.5109100000000  0.5519030000000 1.0
C      1  0.5623510000000  0.4719080000000  0.4918190000000 1.0
C      1  0.4207120000000  0.5032120000000  0.5204030000000 1.0
C      1  0.4733760000000  0.4099080000000  0.5264140000000 1.0
C      1  0.5886900000000  0.4946570000000  0.4400810000000 1.0
C      1  0.4303190000000  0.5043360000000  0.5533100000000 1.0
C      1  0.5349760000000  0.5797500000000  0.5522690000000 1.0
C      1  0.5537880000000  0.5590070000000  0.4566740000000 1.0
C      1  0.4735530000000  0.5632880000000  0.5362940000000 1.0
C      1  0.4760860000000  0.5784950000000  0.5057740000000 1.0
C      1  0.3981230000000  0.5252820000000  0.4767530000000 1.0
C      1  0.5058080000000  0.4020510000000  0.4665510000000 1.0
C      1  0.5539540000000  0.5499470000000  0.4888660000000 1.0
C      1  0.5735810000000  0.5312820000000  0.4998820000000 1.0
C      1  0.4796840000000  0.4062230000000  0.4782170000000 1.0
C      1  0.4632640000000  0.5558010000000  0.4547890000000 1.0
C      1  0.4555580000000  0.4546400000000  0.4623570000000 1.0
C      1  0.4193300000000  0.4717960000000  0.5073950000000 1.0
C      1  0.5814780000000  0.4534650000000  0.5216200000000 1.0
C      1  0.4914960000000  0.5032070000000  0.5073550000000 1.0
C      1  0.5133450000000  0.4716500000000  0.4169680000000 1.0
C      1  0.4848290000000  0.4691230000000  0.4153570000000 1.0
C      1  0.4652560000000  0.4901230000000  0.5873220000000 1.0
C      1  0.4745510000000  0.4369120000000  0.4812720000000 1.0
C      1  0.4748910000000  0.4831490000000  0.5594840000000 1.0
C      1  0.5654450000000  0.5215980000000  0.5489260000000 1.0
C      1  0.5614850000000  0.4823970000000  0.5534520000000 1.0
C      1  0.4521110000000  0.4864900000000  0.5381400000000 1.0
C      1  0.5740450000000  0.4533580000000  0.4164990000000 1.0
C      1  0.5069310000000  0.5526380000000  0.4028640000000 1.0
C      1  0.4363710000000  0.5558720000000  0.4608640000000 1.0
C      1  0.5166500000000  0.5736330000000  0.5016610000000 1.0
C      1  0.5062260000000  0.4411660000000  0.4905480000000 1.0
C      1  0.5626740000000  0.4337360000000  0.5241040000000 1.0
C      1  0.4517990000000  0.4542780000000  0.5444610000000 1.0
C      1  0.4834320000000  0.5756220000000  0.4564500000000 1.0
C      1  0.5385890000000  0.4750230000000  0.5077790000000 1.0
C      1  0.5115930000000  0.4731740000000  0.4905260000000 1.0
C      1  0.4758200000000  0.5460160000000  0.5002960000000 1.0
C      1  0.4348060000000  0.5026050000000  0.4892860000000 1.0
C      1  0.5074760000000  0.5448230000000  0.5128340000000 1.0
C      1  0.5837320000000  0.4701880000000  0.5457400000000 1.0
C      1  0.4635370000000  0.4694630000000  0.4328020000000 1.0
C      1  0.5230350000000  0.4591950000000  0.5538450000000 1.0
C      1  0.4253420000000  0.4619190000000  0.4752970000000 1.0
C      1  0.5341450000000  0.5808810000000  0.4735490000000 1.0
C      1  0.4876500000000  0.5076450000000  0.5468270000000 1.0
C      1  0.5655420000000  0.4744050000000  0.4341670000000 1.0
C      1  0.5238460000000  0.4237550000000  0.4727850000000 1.0
C      1  0.4889840000000  0.4733300000000  0.5234030000000 1.0
END
