TITL C-2778437-8639-218 -0.00440202223844806 125000 -401.798567810856 0 0 71 (C1) n - 1
REM
REM in /home/nfs/bkarasulu/CARBON/AIRSS/Generating-Clusters/REBO/Only-C1/SD-CG/HFTN-CG
REM
REM
REM
REM
REM
REM ./C.cell (11c1c37f851c82e70ff6c80c92926a4b)
REM
REM compiler GCC version 9.2.1 20190827 (Red Hat 9.2.1-1)
REM options -cpp -mtune=generic -march=x86-64 -g -O0 -fpre-include=/usr/include/finclude/math-vector-fortran.h
REM seed 1144354672 593486830 -246574088 1455248858 -1977262973 919667839 1550169733 -2005283941 -1355802422 -1877458807 -107920990 -1022999917 1926276153 1494867599 -693477923 -474599346 -241174232 432071685 -2026115576 141616942 567075552 790396787 -1869228827 -302277738 990818356 142235943 -125066733 1912163535 -1550302346 -1555000014 617651561 1215853195 -671578766
REM
CELL 1.54180   50.00000   50.00000   50.00000   90.00000   90.00000   90.00000
LATT -1
SFAC C  
C      1  0.4819490000000  0.4861700000000  0.4821280000000 1.0
C      1  0.5645980000000  0.5185960000000  0.5172080000000 1.0
C      1  0.4237460000000  0.5214460000000  0.4941660000000 1.0
C      1  0.4545880000000  0.5667120000000  0.4984830000000 1.0
C      1  0.5426730000000  0.5286390000000  0.5354790000000 1.0
C      1  0.4769060000000  0.4517850000000  0.5641570000000 1.0
C      1  0.4791330000000  0.5601790000000  0.5486590000000 1.0
C      1  0.6022470000000  0.5126530000000  0.5498130000000 1.0
C      1  0.5624330000000  0.5510930000000  0.3976730000000 1.0
C      1  0.5877360000000  0.4753050000000  0.5210540000000 1.0
C      1  0.5114880000000  0.5681730000000  0.5150590000000 1.0
C      1  0.5199320000000  0.4866870000000  0.4704980000000 1.0
C      1  0.4403670000000  0.5421780000000  0.4881200000000 1.0
C      1  0.4658180000000  0.5150740000000  0.5247750000000 1.0
C      1  0.4729590000000  0.4478820000000  0.4271660000000 1.0
C      1  0.5504950000000  0.4443550000000  0.5160080000000 1.0
C      1  0.5086080000000  0.5425360000000  0.4845310000000 1.0
C      1  0.4572880000000  0.4721550000000  0.4362840000000 1.0
C      1  0.4518920000000  0.4869720000000  0.5358210000000 1.0
C      1  0.5123760000000  0.4326640000000  0.4672770000000 1.0
C      1  0.4573240000000  0.4550810000000  0.4783860000000 1.0
C      1  0.5223850000000  0.4559250000000  0.5218640000000 1.0
C      1  0.5671350000000  0.5520560000000  0.4463550000000 1.0
C      1  0.4932010000000  0.4964600000000  0.5468850000000 1.0
C      1  0.5275780000000  0.5409550000000  0.5621340000000 1.0
C      1  0.5125680000000  0.5067510000000  0.4969510000000 1.0
C      1  0.4865150000000  0.5637520000000  0.4972000000000 1.0
C      1  0.4610710000000  0.5414370000000  0.5367920000000 1.0
C      1  0.4752460000000  0.4280240000000  0.5016620000000 1.0
C      1  0.5519080000000  0.4739020000000  0.4502190000000 1.0
C      1  0.4097540000000  0.5105790000000  0.5206090000000 1.0
C      1  0.5465600000000  0.5044790000000  0.4943530000000 1.0
C      1  0.5774090000000  0.5414410000000  0.4974460000000 1.0
C      1  0.4406530000000  0.5056890000000  0.5588190000000 1.0
C      1  0.4751820000000  0.4452370000000  0.4596330000000 1.0
C      1  0.4194360000000  0.4877800000000  0.4971600000000 1.0
C      1  0.5174250000000  0.5339110000000  0.4527130000000 1.0
C      1  0.5691440000000  0.4613950000000  0.5053670000000 1.0
C      1  0.5329550000000  0.4552080000000  0.4715340000000 1.0
C      1  0.5540180000000  0.5432710000000  0.4223320000000 1.0
C      1  0.5201200000000  0.4751380000000  0.4393150000000 1.0
C      1  0.5860330000000  0.5017800000000  0.5302840000000 1.0
C      1  0.4331920000000  0.5465100000000  0.5419830000000 1.0
C      1  0.4507430000000  0.4534960000000  0.5424160000000 1.0
C      1  0.5227750000000  0.4700420000000  0.5520260000000 1.0
C      1  0.4717850000000  0.5864250000000  0.5503490000000 1.0
C      1  0.5110280000000  0.5029100000000  0.4284520000000 1.0
C      1  0.5013590000000  0.4379960000000  0.5418010000000 1.0
C      1  0.4191780000000  0.5214160000000  0.5456120000000 1.0
C      1  0.4859580000000  0.5101120000000  0.4397250000000 1.0
C      1  0.5053630000000  0.4661210000000  0.5698890000000 1.0
C      1  0.4806710000000  0.5140810000000  0.4985850000000 1.0
C      1  0.4952160000000  0.4205880000000  0.4838750000000 1.0
C      1  0.5029040000000  0.5515570000000  0.5605450000000 1.0
C      1  0.4718030000000  0.5074350000000  0.5635470000000 1.0
C      1  0.4868670000000  0.4683540000000  0.5344960000000 1.0
C      1  0.4369920000000  0.4679000000000  0.5145280000000 1.0
C      1  0.5383570000000  0.5299060000000  0.4772120000000 1.0
C      1  0.5037830000000  0.4494500000000  0.4406280000000 1.0
C      1  0.4720640000000  0.4890820000000  0.4542470000000 1.0
C      1  0.4699600000000  0.4611900000000  0.5083540000000 1.0
C      1  0.5082490000000  0.4724160000000  0.4995310000000 1.0
C      1  0.4714150000000  0.4292780000000  0.5320650000000 1.0
C      1  0.5637160000000  0.5453340000000  0.4735340000000 1.0
C      1  0.4331490000000  0.4680000000000  0.4748150000000 1.0
C      1  0.5327720000000  0.5242150000000  0.4258360000000 1.0
C      1  0.4709180000000  0.5359890000000  0.4795380000000 1.0
C      1  0.5304950000000  0.5568900000000  0.5256320000000 1.0
C      1  0.5564510000000  0.4776440000000  0.4835090000000 1.0
C      1  0.5171020000000  0.5082640000000  0.5417580000000 1.0
C      1  0.4848830000000  0.5358920000000  0.4531420000000 1.0
END
