TITL C-2778422-5617-295 -0.00352919188399333 125000 -780.067988313694 0 0 134 (C1) n - 1
REM
REM in /home/nfs/bkarasulu/CARBON/AIRSS/Generating-Clusters/REBO/Only-C1/SD-CG/HFTN-CG
REM
REM
REM
REM
REM
REM ./C.cell (11c1c37f851c82e70ff6c80c92926a4b)
REM
REM compiler GCC version 9.2.1 20190827 (Red Hat 9.2.1-1)
REM options -cpp -mtune=generic -march=x86-64 -g -O0 -fpre-include=/usr/include/finclude/math-vector-fortran.h
REM seed 205609852 293273839 377714523 -1566927051 500145468 -1574052947 361354699 817993290 104333399 -411359260 -465781528 751220744 -518446012 1528817614 -1028094232 1255427151 -1139072525 -373304924 1090873139 1660506778 -1146503230 -481569849 -725865497 -1699717702 -953642745 -624689630 -292824959 1481848451 -1485939297 -1295703681 -139315648 -1576076322 830568456
REM
CELL 1.54180   50.00000   50.00000   50.00000   90.00000   90.00000   90.00000
LATT -1
SFAC C  
C      1  0.4336230000000  0.5304940000000  0.5359160000000 1.0
C      1  0.4812780000000  0.5025380000000  0.4534500000000 1.0
C      1  0.5660210000000  0.4927440000000  0.5650480000000 1.0
C      1  0.5179080000000  0.5647290000000  0.5281000000000 1.0
C      1  0.4347120000000  0.4755170000000  0.4351070000000 1.0
C      1  0.5216970000000  0.4253490000000  0.5248640000000 1.0
C      1  0.5033310000000  0.4810210000000  0.4672600000000 1.0
C      1  0.4529790000000  0.4916360000000  0.5934770000000 1.0
C      1  0.4574020000000  0.5500810000000  0.4472700000000 1.0
C      1  0.5086100000000  0.5770660000000  0.4345270000000 1.0
C      1  0.5663320000000  0.5681910000000  0.5271080000000 1.0
C      1  0.5034100000000  0.4044800000000  0.5074160000000 1.0
C      1  0.4222190000000  0.5002450000000  0.4382960000000 1.0
C      1  0.5144920000000  0.4956600000000  0.4938180000000 1.0
C      1  0.4658260000000  0.5066420000000  0.5052570000000 1.0
C      1  0.4539600000000  0.4325370000000  0.4968150000000 1.0
C      1  0.4793220000000  0.5613010000000  0.4787850000000 1.0
C      1  0.4979490000000  0.4867260000000  0.6123540000000 1.0
C      1  0.4756130000000  0.5771110000000  0.4423670000000 1.0
C      1  0.4731370000000  0.4844860000000  0.6178350000000 1.0
C      1  0.4715740000000  0.5795690000000  0.5524020000000 1.0
C      1  0.5701070000000  0.4469810000000  0.5452790000000 1.0
C      1  0.4064320000000  0.5651050000000  0.5046380000000 1.0
C      1  0.5685440000000  0.5497830000000  0.5509700000000 1.0
C      1  0.4808320000000  0.5407890000000  0.5553870000000 1.0
C      1  0.4995960000000  0.4518550000000  0.4597180000000 1.0
C      1  0.5582870000000  0.4790440000000  0.4289630000000 1.0
C      1  0.5338680000000  0.4758740000000  0.5087000000000 1.0
C      1  0.4041310000000  0.5443450000000  0.5286570000000 1.0
C      1  0.5532100000000  0.5137010000000  0.5326920000000 1.0
C      1  0.5784280000000  0.5535590000000  0.5021940000000 1.0
C      1  0.4532640000000  0.4024190000000  0.4822280000000 1.0
C      1  0.4095310000000  0.5000590000000  0.4929540000000 1.0
C      1  0.4708840000000  0.4749150000000  0.4946000000000 1.0
C      1  0.4392340000000  0.4250730000000  0.4605760000000 1.0
C      1  0.4570780000000  0.4456720000000  0.5422550000000 1.0
C      1  0.5712910000000  0.5712130000000  0.4776750000000 1.0
C      1  0.5340740000000  0.4636140000000  0.4217440000000 1.0
C      1  0.5945850000000  0.4923080000000  0.5057380000000 1.0
C      1  0.5429300000000  0.4153410000000  0.4847060000000 1.0
C      1  0.4898100000000  0.5275520000000  0.5847260000000 1.0
C      1  0.5877160000000  0.5018850000000  0.4428110000000 1.0
C      1  0.4349940000000  0.4875580000000  0.4740000000000 1.0
C      1  0.5096200000000  0.4347060000000  0.5527610000000 1.0
C      1  0.5168800000000  0.4515150000000  0.5081650000000 1.0
C      1  0.4825810000000  0.4289750000000  0.4786580000000 1.0
C      1  0.5730410000000  0.4757860000000  0.4572650000000 1.0
C      1  0.4597860000000  0.5422600000000  0.5214170000000 1.0
C      1  0.4489780000000  0.5431020000000  0.5598730000000 1.0
C      1  0.5409620000000  0.5836420000000  0.5214870000000 1.0
C      1  0.4893380000000  0.5137890000000  0.4845720000000 1.0
C      1  0.4255730000000  0.5678320000000  0.4890950000000 1.0
C      1  0.5473710000000  0.4337720000000  0.4607270000000 1.0
C      1  0.5246960000000  0.4417940000000  0.4432970000000 1.0
C      1  0.4765750000000  0.4729010000000  0.5798200000000 1.0
C      1  0.4533120000000  0.4728400000000  0.5221230000000 1.0
C      1  0.5066100000000  0.6036540000000  0.4861440000000 1.0
C      1  0.5102950000000  0.5119410000000  0.5214220000000 1.0
C      1  0.5535500000000  0.5163690000000  0.4785560000000 1.0
C      1  0.4585670000000  0.4214660000000  0.5257620000000 1.0
C      1  0.5306090000000  0.4497120000000  0.5722370000000 1.0
C      1  0.5504670000000  0.5384230000000  0.4307360000000 1.0
C      1  0.5081350000000  0.5088490000000  0.4120550000000 1.0
C      1  0.5115370000000  0.4966590000000  0.5482860000000 1.0
C      1  0.5050450000000  0.4043830000000  0.4567090000000 1.0
C      1  0.4328920000000  0.4522250000000  0.4920730000000 1.0
C      1  0.4731650000000  0.4047410000000  0.4566010000000 1.0
C      1  0.5028860000000  0.5549560000000  0.5006240000000 1.0
C      1  0.5522890000000  0.4339400000000  0.5120170000000 1.0
C      1  0.5565890000000  0.5248910000000  0.5712350000000 1.0
C      1  0.4065190000000  0.5133440000000  0.4641960000000 1.0
C      1  0.4903100000000  0.5358280000000  0.5230160000000 1.0
C      1  0.5948070000000  0.5250930000000  0.4963290000000 1.0
C      1  0.4694070000000  0.4502940000000  0.4478340000000 1.0
C      1  0.4270130000000  0.4580300000000  0.5481360000000 1.0
C      1  0.5834180000000  0.5198260000000  0.5445000000000 1.0
C      1  0.4413800000000  0.5026670000000  0.5634700000000 1.0
C      1  0.5058770000000  0.5014350000000  0.5874970000000 1.0
C      1  0.5302840000000  0.5366670000000  0.5233030000000 1.0
C      1  0.5373440000000  0.5696160000000  0.4272050000000 1.0
C      1  0.5177250000000  0.5473910000000  0.4101240000000 1.0
C      1  0.4872990000000  0.5528290000000  0.4214800000000 1.0
C      1  0.5128220000000  0.5270650000000  0.4377350000000 1.0
C      1  0.5176520000000  0.4025950000000  0.4823180000000 1.0
C      1  0.5014220000000  0.5674290000000  0.5526900000000 1.0
C      1  0.5001900000000  0.4520340000000  0.5873180000000 1.0
C      1  0.4586100000000  0.5232500000000  0.5836290000000 1.0
C      1  0.4573060000000  0.4726540000000  0.4172720000000 1.0
C      1  0.4097610000000  0.5113230000000  0.5225430000000 1.0
C      1  0.5246290000000  0.5560400000000  0.4745960000000 1.0
C      1  0.4494590000000  0.5513730000000  0.4803120000000 1.0
C      1  0.4358340000000  0.5263000000000  0.4527770000000 1.0
C      1  0.4902240000000  0.4528870000000  0.4984490000000 1.0
C      1  0.4637970000000  0.4767200000000  0.4632950000000 1.0
C      1  0.5066940000000  0.4777980000000  0.4087230000000 1.0
C      1  0.5825080000000  0.4867760000000  0.5355410000000 1.0
C      1  0.4788600000000  0.4459020000000  0.5615310000000 1.0
C      1  0.4579370000000  0.4206860000000  0.4339350000000 1.0
C      1  0.5558050000000  0.4527600000000  0.4846370000000 1.0
C      1  0.5768960000000  0.4577150000000  0.5178500000000 1.0
C      1  0.4978890000000  0.4248150000000  0.4303530000000 1.0
C      1  0.4835650000000  0.4955680000000  0.5592520000000 1.0
C      1  0.5364870000000  0.5313740000000  0.4593560000000 1.0
C      1  0.5395980000000  0.4862180000000  0.5360180000000 1.0
C      1  0.4777800000000  0.4950060000000  0.4143900000000 1.0
C      1  0.5097110000000  0.4450950000000  0.4067180000000 1.0
C      1  0.4440350000000  0.5186490000000  0.4851170000000 1.0
C      1  0.4975460000000  0.5376590000000  0.4650640000000 1.0
C      1  0.5860050000000  0.4670190000000  0.4865340000000 1.0
C      1  0.4726300000000  0.4430740000000  0.4151510000000 1.0
C      1  0.5447980000000  0.5782860000000  0.4757410000000 1.0
C      1  0.5646870000000  0.5094740000000  0.4197690000000 1.0
C      1  0.5334960000000  0.5964870000000  0.4954320000000 1.0
C      1  0.4295310000000  0.4564410000000  0.4604200000000 1.0
C      1  0.4227950000000  0.4755260000000  0.5108790000000 1.0
C      1  0.4230450000000  0.5688820000000  0.5408210000000 1.0
C      1  0.5255700000000  0.4447970000000  0.6055620000000 1.0
C      1  0.5047790000000  0.5515480000000  0.5974250000000 1.0
C      1  0.4524460000000  0.5693750000000  0.5299430000000 1.0
C      1  0.4734050000000  0.5241160000000  0.4317750000000 1.0
C      1  0.5514430000000  0.4862920000000  0.4815000000000 1.0
C      1  0.5812970000000  0.5248970000000  0.4651250000000 1.0
C      1  0.5512100000000  0.4641070000000  0.5580150000000 1.0
C      1  0.5374170000000  0.5208970000000  0.4046270000000 1.0
C      1  0.4873120000000  0.5914890000000  0.4709260000000 1.0
C      1  0.5190410000000  0.5651730000000  0.5780240000000 1.0
C      1  0.4416770000000  0.5743710000000  0.5676460000000 1.0
C      1  0.4612240000000  0.4995600000000  0.5377310000000 1.0
C      1  0.6030500000000  0.5006300000000  0.4735490000000 1.0
C      1  0.5338340000000  0.5011880000000  0.5726170000000 1.0
C      1  0.4752320000000  0.4011030000000  0.5084660000000 1.0
C      1  0.4226820000000  0.4877430000000  0.5430630000000 1.0
C      1  0.5452970000000  0.5562110000000  0.5738080000000 1.0
C      1  0.5561290000000  0.5307130000000  0.5045460000000 1.0
END
