TITL C-2778431-5191-805 0.00236074636733391 125000 -937.318006797837 0 0 162 (C1) n - 1
REM
REM in /home/nfs/bkarasulu/CARBON/AIRSS/Generating-Clusters/REBO/Only-C1/SD-CG/HFTN-CG
REM
REM
REM
REM
REM
REM ./C.cell (11c1c37f851c82e70ff6c80c92926a4b)
REM
REM compiler GCC version 9.2.1 20190827 (Red Hat 9.2.1-1)
REM options -cpp -mtune=generic -march=x86-64 -g -O0 -fpre-include=/usr/include/finclude/math-vector-fortran.h
REM seed 1765435069 767056341 2121317409 1282352366 -906353116 -151007734 -2118414885 619464002 -2067084346 1639235464 -252576072 1583646896 -1062158370 -2116438933 -1795472382 1086522630 1266701938 276324932 -1234833172 742056444 -1327949662 -490118757 139417883 -768585904 -1779471722 1333443083 1859281305 -214791095 -2027223153 1207371361 1362091704 -1700131889 -1623289884
REM
CELL 1.54180   50.00000   50.00000   50.00000   90.00000   90.00000   90.00000
LATT -1
SFAC C  
C      1  0.5444000000000  0.4520510000000  0.4748510000000 1.0
C      1  0.4769600000000  0.5078680000000  0.5621810000000 1.0
C      1  0.4682920000000  0.4117100000000  0.4518690000000 1.0
C      1  0.5839410000000  0.4982000000000  0.5722020000000 1.0
C      1  0.3936000000000  0.5046460000000  0.4718210000000 1.0
C      1  0.5419020000000  0.4229970000000  0.5486170000000 1.0
C      1  0.4806290000000  0.4523420000000  0.5752560000000 1.0
C      1  0.4721160000000  0.5459260000000  0.4640850000000 1.0
C      1  0.5734650000000  0.5511710000000  0.5550650000000 1.0
C      1  0.4927640000000  0.4798780000000  0.6014720000000 1.0
C      1  0.4753570000000  0.5198590000000  0.4012280000000 1.0
C      1  0.4500210000000  0.4884330000000  0.5112280000000 1.0
C      1  0.4168510000000  0.5441680000000  0.4546940000000 1.0
C      1  0.5434770000000  0.5180490000000  0.5328760000000 1.0
C      1  0.5937360000000  0.5238010000000  0.5558920000000 1.0
C      1  0.4686680000000  0.5476570000000  0.4201100000000 1.0
C      1  0.5916390000000  0.4980170000000  0.5336560000000 1.0
C      1  0.5517310000000  0.4844010000000  0.4489980000000 1.0
C      1  0.4175990000000  0.4601240000000  0.5391530000000 1.0
C      1  0.4512230000000  0.4857040000000  0.4379120000000 1.0
C      1  0.5284190000000  0.4492760000000  0.4459250000000 1.0
C      1  0.4358660000000  0.5294910000000  0.5810700000000 1.0
C      1  0.6121830000000  0.5360090000000  0.5094260000000 1.0
C      1  0.4943230000000  0.4799230000000  0.5604940000000 1.0
C      1  0.4534520000000  0.5261690000000  0.5454040000000 1.0
C      1  0.4185370000000  0.4361110000000  0.4624650000000 1.0
C      1  0.4477210000000  0.4619730000000  0.5768260000000 1.0
C      1  0.4215850000000  0.4727090000000  0.5651560000000 1.0
C      1  0.4534030000000  0.4217440000000  0.5310690000000 1.0
C      1  0.4844980000000  0.4486560000000  0.5261590000000 1.0
C      1  0.5025690000000  0.5606600000000  0.5057760000000 1.0
C      1  0.5724650000000  0.5739960000000  0.5110330000000 1.0
C      1  0.5089560000000  0.5373010000000  0.5282460000000 1.0
C      1  0.5894800000000  0.4758340000000  0.5856620000000 1.0
C      1  0.4044430000000  0.4971790000000  0.4441950000000 1.0
C      1  0.5215460000000  0.4547090000000  0.4069660000000 1.0
C      1  0.5577260000000  0.4899870000000  0.4827150000000 1.0
C      1  0.4455870000000  0.5212340000000  0.4924670000000 1.0
C      1  0.5618890000000  0.5421860000000  0.5179160000000 1.0
C      1  0.4377020000000  0.5470760000000  0.4275850000000 1.0
C      1  0.5548190000000  0.5478990000000  0.4873260000000 1.0
C      1  0.5019790000000  0.4049170000000  0.4926000000000 1.0
C      1  0.4795930000000  0.5907320000000  0.5476730000000 1.0
C      1  0.4188490000000  0.5035080000000  0.5129110000000 1.0
C      1  0.5515840000000  0.5157170000000  0.4527510000000 1.0
C      1  0.5929920000000  0.5419400000000  0.5287530000000 1.0
C      1  0.4502860000000  0.4014460000000  0.4875590000000 1.0
C      1  0.5002670000000  0.6099150000000  0.5045830000000 1.0
C      1  0.4732310000000  0.5054930000000  0.4502980000000 1.0
C      1  0.5616920000000  0.4985690000000  0.5473470000000 1.0
C      1  0.4422400000000  0.4296550000000  0.4386870000000 1.0
C      1  0.5249740000000  0.4814240000000  0.5688830000000 1.0
C      1  0.5386940000000  0.4124890000000  0.4577740000000 1.0
C      1  0.4958020000000  0.5217540000000  0.5004060000000 1.0
C      1  0.6061640000000  0.4521890000000  0.5133720000000 1.0
C      1  0.4824320000000  0.4968170000000  0.5187810000000 1.0
C      1  0.4765920000000  0.4924650000000  0.3940880000000 1.0
C      1  0.4851440000000  0.5367130000000  0.5487370000000 1.0
C      1  0.5065260000000  0.4286520000000  0.4198750000000 1.0
C      1  0.5250730000000  0.5387980000000  0.5850810000000 1.0
C      1  0.5932290000000  0.5479610000000  0.4638920000000 1.0
C      1  0.4746660000000  0.4351840000000  0.4293920000000 1.0
C      1  0.4105270000000  0.5259910000000  0.4262660000000 1.0
C      1  0.4481530000000  0.4621720000000  0.4610170000000 1.0
C      1  0.4838170000000  0.5092860000000  0.6122780000000 1.0
C      1  0.5230260000000  0.6048990000000  0.5221680000000 1.0
C      1  0.5833120000000  0.5021940000000  0.4324920000000 1.0
C      1  0.4970770000000  0.5241210000000  0.6306020000000 1.0
C      1  0.5340690000000  0.5591570000000  0.4656460000000 1.0
C      1  0.4967580000000  0.4425130000000  0.4804130000000 1.0
C      1  0.5217510000000  0.5557030000000  0.4278080000000 1.0
C      1  0.5111950000000  0.5990420000000  0.5485110000000 1.0
C      1  0.4884400000000  0.5227960000000  0.4307180000000 1.0
C      1  0.4492940000000  0.4326460000000  0.4776520000000 1.0
C      1  0.5131650000000  0.4326620000000  0.5616520000000 1.0
C      1  0.5451250000000  0.4690850000000  0.5442800000000 1.0
C      1  0.5455480000000  0.4141700000000  0.5158720000000 1.0
C      1  0.4731760000000  0.3879540000000  0.4924870000000 1.0
C      1  0.5296700000000  0.4786040000000  0.5087440000000 1.0
C      1  0.4629930000000  0.4639140000000  0.4011140000000 1.0
C      1  0.5023050000000  0.5776950000000  0.4811880000000 1.0
C      1  0.4410840000000  0.4583880000000  0.4218670000000 1.0
C      1  0.4265930000000  0.4679650000000  0.4968470000000 1.0
C      1  0.4741170000000  0.4749060000000  0.4757290000000 1.0
C      1  0.5567640000000  0.5808660000000  0.4752380000000 1.0
C      1  0.4522440000000  0.5432730000000  0.5095120000000 1.0
C      1  0.5623810000000  0.4936320000000  0.4116760000000 1.0
C      1  0.4574770000000  0.4324970000000  0.5627000000000 1.0
C      1  0.5015880000000  0.6099510000000  0.4714180000000 1.0
C      1  0.4071170000000  0.5171800000000  0.5402110000000 1.0
C      1  0.5719740000000  0.4182430000000  0.5324440000000 1.0
C      1  0.5607790000000  0.4759890000000  0.5137550000000 1.0
C      1  0.5282340000000  0.5917170000000  0.4642430000000 1.0
C      1  0.4991680000000  0.4399120000000  0.4527400000000 1.0
C      1  0.4355050000000  0.5552390000000  0.5660440000000 1.0
C      1  0.4760640000000  0.6000520000000  0.5168950000000 1.0
C      1  0.5522240000000  0.4681880000000  0.4004420000000 1.0
C      1  0.5156680000000  0.4500020000000  0.5022270000000 1.0
C      1  0.5955650000000  0.4300920000000  0.5248340000000 1.0
C      1  0.4218030000000  0.5063610000000  0.5650090000000 1.0
C      1  0.5260430000000  0.5333580000000  0.4527560000000 1.0
C      1  0.4451950000000  0.4529300000000  0.5287150000000 1.0
C      1  0.4344360000000  0.5103780000000  0.4426140000000 1.0
C      1  0.4325680000000  0.4141060000000  0.5086540000000 1.0
C      1  0.5253760000000  0.4803360000000  0.4781790000000 1.0
C      1  0.5107520000000  0.4973050000000  0.4602970000000 1.0
C      1  0.5284400000000  0.4769890000000  0.4309580000000 1.0
C      1  0.4000840000000  0.5327620000000  0.4791770000000 1.0
C      1  0.5720980000000  0.4584210000000  0.4559790000000 1.0
C      1  0.5130900000000  0.5628110000000  0.5783180000000 1.0
C      1  0.4446990000000  0.4956270000000  0.5423740000000 1.0
C      1  0.5277240000000  0.5827960000000  0.5648370000000 1.0
C      1  0.4563680000000  0.5859000000000  0.5005330000000 1.0
C      1  0.4634680000000  0.4528610000000  0.4994880000000 1.0
C      1  0.4866300000000  0.4191940000000  0.5529460000000 1.0
C      1  0.3991090000000  0.4515650000000  0.5206800000000 1.0
C      1  0.4644960000000  0.4870870000000  0.5859060000000 1.0
C      1  0.4304430000000  0.5491820000000  0.5327170000000 1.0
C      1  0.5494050000000  0.5404570000000  0.4214250000000 1.0
C      1  0.4949390000000  0.5672890000000  0.4294670000000 1.0
C      1  0.5159950000000  0.4999780000000  0.5243140000000 1.0
C      1  0.5534340000000  0.5302980000000  0.5700010000000 1.0
C      1  0.5693640000000  0.5205610000000  0.4802860000000 1.0
C      1  0.4074880000000  0.5353570000000  0.5113940000000 1.0
C      1  0.5330090000000  0.5068990000000  0.5813550000000 1.0
C      1  0.5502720000000  0.5928810000000  0.5215130000000 1.0
C      1  0.5001550000000  0.5286090000000  0.4685160000000 1.0
C      1  0.5804560000000  0.4511730000000  0.5781940000000 1.0
C      1  0.5413660000000  0.5140160000000  0.4129540000000 1.0
C      1  0.5116490000000  0.4556600000000  0.5867290000000 1.0
C      1  0.4933310000000  0.4002740000000  0.4604580000000 1.0
C      1  0.5173740000000  0.4514220000000  0.5349720000000 1.0
C      1  0.4568020000000  0.5748730000000  0.5675860000000 1.0
C      1  0.6024030000000  0.5244660000000  0.4829620000000 1.0
C      1  0.5863960000000  0.5712610000000  0.4806890000000 1.0
C      1  0.4022910000000  0.4870970000000  0.4918250000000 1.0
C      1  0.4322930000000  0.5792770000000  0.5165820000000 1.0
C      1  0.5156010000000  0.4051470000000  0.4427340000000 1.0
C      1  0.5576810000000  0.4314320000000  0.4437230000000 1.0
C      1  0.5910420000000  0.4843010000000  0.4546230000000 1.0
C      1  0.4928680000000  0.5905330000000  0.4446290000000 1.0
C      1  0.4456840000000  0.5310960000000  0.4633060000000 1.0
C      1  0.4175700000000  0.4658450000000  0.4456350000000 1.0
C      1  0.4847180000000  0.4151350000000  0.5194000000000 1.0
C      1  0.4863880000000  0.5617880000000  0.5649650000000 1.0
C      1  0.4577410000000  0.5185700000000  0.5954980000000 1.0
C      1  0.4117800000000  0.5974430000000  0.5207110000000 1.0
C      1  0.4712380000000  0.5716260000000  0.4783500000000 1.0
C      1  0.5146240000000  0.5052280000000  0.4268780000000 1.0
C      1  0.4895040000000  0.4774200000000  0.4447810000000 1.0
C      1  0.5770730000000  0.5347330000000  0.4405080000000 1.0
C      1  0.5930020000000  0.4797020000000  0.5079300000000 1.0
C      1  0.5621660000000  0.4457220000000  0.5595400000000 1.0
C      1  0.5310170000000  0.4226490000000  0.4894310000000 1.0
C      1  0.4924500000000  0.4703820000000  0.4150660000000 1.0
C      1  0.5346960000000  0.5468930000000  0.5465260000000 1.0
C      1  0.5533550000000  0.5746820000000  0.5479680000000 1.0
C      1  0.4143040000000  0.4362540000000  0.4962190000000 1.0
C      1  0.5989220000000  0.4935240000000  0.4806490000000 1.0
C      1  0.4671470000000  0.4717600000000  0.5432600000000 1.0
C      1  0.4707550000000  0.5063860000000  0.4823340000000 1.0
C      1  0.4759410000000  0.5537680000000  0.5137510000000 1.0
END
