TITL C-2778429-3646-1445 -0.0072833407601617 125000 -1145.19973225086 0 0 198 (C1) n - 1
REM
REM in /home/nfs/bkarasulu/CARBON/AIRSS/Generating-Clusters/REBO/Only-C1/SD-CG/HFTN-CG
REM
REM
REM
REM
REM
REM ./C.cell (11c1c37f851c82e70ff6c80c92926a4b)
REM
REM compiler GCC version 9.2.1 20190827 (Red Hat 9.2.1-1)
REM options -cpp -mtune=generic -march=x86-64 -g -O0 -fpre-include=/usr/include/finclude/math-vector-fortran.h
REM seed -1851338423 -2130306075 -944941705 -1658518974 -32975984 1131371036 -448719335 2038091065 1049926029 -1508350570 107192049 904902530 -1049934142 -1042241965 -1069054559 -550817163 -823035920 -1216822673 2014605355 -688219043 -6399434 571982339 -1757229828 -38029933 1325318596 -147747435 -944962317 -742477613 -2106744211 2033001493 -50577096 -908130015 -1666781463
REM
CELL 1.54180   50.00000   50.00000   50.00000   90.00000   90.00000   90.00000
LATT -1
SFAC C  
C      1  0.4428220000000  0.4632990000000  0.4372210000000 1.0
C      1  0.5794160000000  0.4387990000000  0.4775200000000 1.0
C      1  0.5002930000000  0.4278060000000  0.5166580000000 1.0
C      1  0.5583670000000  0.4301250000000  0.5706770000000 1.0
C      1  0.4620820000000  0.5071000000000  0.4481500000000 1.0
C      1  0.5900930000000  0.5240980000000  0.5573900000000 1.0
C      1  0.5990380000000  0.4818070000000  0.4979370000000 1.0
C      1  0.6097610000000  0.5208610000000  0.4643760000000 1.0
C      1  0.5144970000000  0.4634090000000  0.5525410000000 1.0
C      1  0.5413030000000  0.6149170000000  0.4837460000000 1.0
C      1  0.5510470000000  0.5297530000000  0.5624740000000 1.0
C      1  0.4977970000000  0.5787780000000  0.4145510000000 1.0
C      1  0.5748680000000  0.4142170000000  0.5208140000000 1.0
C      1  0.5057970000000  0.3916820000000  0.5546710000000 1.0
C      1  0.5131430000000  0.4734520000000  0.5246200000000 1.0
C      1  0.4447850000000  0.5492760000000  0.5246030000000 1.0
C      1  0.5376090000000  0.4806370000000  0.4499860000000 1.0
C      1  0.4412420000000  0.4918450000000  0.5158080000000 1.0
C      1  0.5928140000000  0.5512890000000  0.5391500000000 1.0
C      1  0.4232360000000  0.4912350000000  0.4801620000000 1.0
C      1  0.4717820000000  0.5929370000000  0.4884630000000 1.0
C      1  0.4918120000000  0.4920060000000  0.3831630000000 1.0
C      1  0.4477550000000  0.4832710000000  0.4630020000000 1.0
C      1  0.4898180000000  0.3960930000000  0.4531540000000 1.0
C      1  0.5252810000000  0.5698350000000  0.5428150000000 1.0
C      1  0.4086510000000  0.5638140000000  0.4648690000000 1.0
C      1  0.5616480000000  0.5350350000000  0.4525940000000 1.0
C      1  0.5142360000000  0.5527870000000  0.4030390000000 1.0
C      1  0.4639670000000  0.5398460000000  0.3953090000000 1.0
C      1  0.4958110000000  0.5278930000000  0.3954860000000 1.0
C      1  0.5134370000000  0.4045660000000  0.5829430000000 1.0
C      1  0.5737630000000  0.4987070000000  0.5733630000000 1.0
C      1  0.4833790000000  0.5155950000000  0.5837600000000 1.0
C      1  0.4405110000000  0.5551700000000  0.4145430000000 1.0
C      1  0.4643530000000  0.4598730000000  0.5418540000000 1.0
C      1  0.5661720000000  0.5512150000000  0.5924670000000 1.0
C      1  0.5316450000000  0.5767260000000  0.4775840000000 1.0
C      1  0.4546100000000  0.5293110000000  0.5777500000000 1.0
C      1  0.4952520000000  0.5622090000000  0.4507490000000 1.0
C      1  0.4615910000000  0.5592280000000  0.5524460000000 1.0
C      1  0.4702280000000  0.5976200000000  0.5470670000000 1.0
C      1  0.5150830000000  0.6101020000000  0.4630460000000 1.0
C      1  0.5173510000000  0.4351340000000  0.4492040000000 1.0
C      1  0.4096930000000  0.5681410000000  0.5263050000000 1.0
C      1  0.5557860000000  0.4040260000000  0.5407150000000 1.0
C      1  0.5291800000000  0.4695230000000  0.4763240000000 1.0
C      1  0.5058610000000  0.4734610000000  0.4917150000000 1.0
C      1  0.5897460000000  0.4817960000000  0.4321190000000 1.0
C      1  0.5665670000000  0.4735310000000  0.4633110000000 1.0
C      1  0.5585040000000  0.5719960000000  0.4981240000000 1.0
C      1  0.5279870000000  0.5447470000000  0.5815210000000 1.0
C      1  0.6051760000000  0.5375440000000  0.4855460000000 1.0
C      1  0.4412720000000  0.4398950000000  0.4585740000000 1.0
C      1  0.5409420000000  0.4577680000000  0.5966560000000 1.0
C      1  0.4810710000000  0.4201360000000  0.4931750000000 1.0
C      1  0.4596580000000  0.4112800000000  0.4586670000000 1.0
C      1  0.4264340000000  0.4106600000000  0.4925290000000 1.0
C      1  0.4313370000000  0.4748190000000  0.3868860000000 1.0
C      1  0.5801040000000  0.4469480000000  0.5547400000000 1.0
C      1  0.5157170000000  0.5865230000000  0.4422170000000 1.0
C      1  0.6063790000000  0.5014410000000  0.4450770000000 1.0
C      1  0.5220790000000  0.4838460000000  0.5980140000000 1.0
C      1  0.4395990000000  0.4393660000000  0.5054990000000 1.0
C      1  0.5627550000000  0.5236600000000  0.5086590000000 1.0
C      1  0.5617870000000  0.5880520000000  0.5262530000000 1.0
C      1  0.5310500000000  0.3868140000000  0.5368650000000 1.0
C      1  0.5170880000000  0.4335900000000  0.6005740000000 1.0
C      1  0.5407360000000  0.5438590000000  0.4758350000000 1.0
C      1  0.5484490000000  0.4732570000000  0.4068260000000 1.0
C      1  0.5067370000000  0.5276970000000  0.5626410000000 1.0
C      1  0.5110070000000  0.5822170000000  0.5193150000000 1.0
C      1  0.5431550000000  0.4153810000000  0.5883060000000 1.0
C      1  0.5564850000000  0.5194200000000  0.5935450000000 1.0
C      1  0.4801710000000  0.4537870000000  0.5142230000000 1.0
C      1  0.5355540000000  0.3978100000000  0.4850600000000 1.0
C      1  0.5682370000000  0.4236920000000  0.4337580000000 1.0
C      1  0.4510640000000  0.5728210000000  0.4413900000000 1.0
C      1  0.6064390000000  0.5657910000000  0.5126170000000 1.0
C      1  0.4563280000000  0.5896780000000  0.5169130000000 1.0
C      1  0.5673130000000  0.4104080000000  0.4917860000000 1.0
C      1  0.4575370000000  0.3970950000000  0.4895000000000 1.0
C      1  0.5692820000000  0.4672830000000  0.5800190000000 1.0
C      1  0.5929740000000  0.4543950000000  0.5034160000000 1.0
C      1  0.5230110000000  0.4835370000000  0.3939510000000 1.0
C      1  0.5041830000000  0.3876240000000  0.4827860000000 1.0
C      1  0.3961690000000  0.5093730000000  0.4426540000000 1.0
C      1  0.4582940000000  0.4048450000000  0.5437980000000 1.0
C      1  0.4390640000000  0.5998890000000  0.4823080000000 1.0
C      1  0.5952390000000  0.5276430000000  0.5145460000000 1.0
C      1  0.5472770000000  0.4417930000000  0.4539990000000 1.0
C      1  0.4746070000000  0.5918570000000  0.4338590000000 1.0
C      1  0.4624010000000  0.4969440000000  0.5999050000000 1.0
C      1  0.5048180000000  0.5335610000000  0.6019330000000 1.0
C      1  0.4958400000000  0.4652560000000  0.4038010000000 1.0
C      1  0.5863770000000  0.4398230000000  0.5276890000000 1.0
C      1  0.5429520000000  0.5699110000000  0.4398570000000 1.0
C      1  0.4906810000000  0.4423950000000  0.5526000000000 1.0
C      1  0.4103040000000  0.4900270000000  0.5270270000000 1.0
C      1  0.4083310000000  0.4766360000000  0.5512070000000 1.0
C      1  0.4186330000000  0.5908680000000  0.5039530000000 1.0
C      1  0.4208770000000  0.4740440000000  0.4160450000000 1.0
C      1  0.4962720000000  0.5798750000000  0.5577300000000 1.0
C      1  0.5356760000000  0.4136520000000  0.4286520000000 1.0
C      1  0.5711360000000  0.5180910000000  0.4782460000000 1.0
C      1  0.4856910000000  0.6128700000000  0.4486890000000 1.0
C      1  0.5545690000000  0.4099890000000  0.4616760000000 1.0
C      1  0.5513120000000  0.4617180000000  0.5223590000000 1.0
C      1  0.5850490000000  0.4508760000000  0.4459420000000 1.0
C      1  0.5706240000000  0.5721180000000  0.5477100000000 1.0
C      1  0.4794920000000  0.5523590000000  0.4225510000000 1.0
C      1  0.5257080000000  0.5769470000000  0.5749190000000 1.0
C      1  0.5356780000000  0.5416490000000  0.5368810000000 1.0
C      1  0.4811490000000  0.5190280000000  0.4244320000000 1.0
C      1  0.5975520000000  0.4876040000000  0.5434340000000 1.0
C      1  0.5696550000000  0.5668910000000  0.4600600000000 1.0
C      1  0.5341370000000  0.5151650000000  0.4929050000000 1.0
C      1  0.5057730000000  0.5950090000000  0.4901270000000 1.0
C      1  0.4420020000000  0.5298530000000  0.4451860000000 1.0
C      1  0.4066580000000  0.5371470000000  0.5240400000000 1.0
C      1  0.5419840000000  0.4344660000000  0.5311310000000 1.0
C      1  0.3995940000000  0.4395010000000  0.5042660000000 1.0
C      1  0.4095930000000  0.5229130000000  0.5532270000000 1.0
C      1  0.3850730000000  0.5210170000000  0.5030340000000 1.0
C      1  0.5492940000000  0.6093730000000  0.5089280000000 1.0
C      1  0.4973140000000  0.4764080000000  0.5786270000000 1.0
C      1  0.4641680000000  0.4477410000000  0.4832980000000 1.0
C      1  0.4674430000000  0.4772520000000  0.4181980000000 1.0
C      1  0.4332720000000  0.5842760000000  0.5397300000000 1.0
C      1  0.4709520000000  0.5087540000000  0.5463980000000 1.0
C      1  0.4122490000000  0.5009580000000  0.4215280000000 1.0
C      1  0.4245110000000  0.5179600000000  0.5017730000000 1.0
C      1  0.5222400000000  0.5118320000000  0.4086600000000 1.0
C      1  0.4471730000000  0.5518640000000  0.4686590000000 1.0
C      1  0.5281750000000  0.4092870000000  0.5125120000000 1.0
C      1  0.5518970000000  0.5191760000000  0.4244840000000 1.0
C      1  0.4683430000000  0.5386120000000  0.4919610000000 1.0
C      1  0.5409960000000  0.4578100000000  0.5632240000000 1.0
C      1  0.4040460000000  0.5132690000000  0.4680750000000 1.0
C      1  0.5181990000000  0.4899940000000  0.4330530000000 1.0
C      1  0.4286430000000  0.5858540000000  0.4595070000000 1.0
C      1  0.5323510000000  0.5451810000000  0.4275700000000 1.0
C      1  0.5022910000000  0.4084940000000  0.4239740000000 1.0
C      1  0.5285220000000  0.5111000000000  0.6031190000000 1.0
C      1  0.4419900000000  0.5251480000000  0.5463720000000 1.0
C      1  0.4825100000000  0.4535500000000  0.4547760000000 1.0
C      1  0.4914740000000  0.4504350000000  0.5986770000000 1.0
C      1  0.4479530000000  0.5854260000000  0.5693310000000 1.0
C      1  0.6051710000000  0.4990070000000  0.5196700000000 1.0
C      1  0.4636330000000  0.4261590000000  0.5626850000000 1.0
C      1  0.4172850000000  0.4457760000000  0.5604180000000 1.0
C      1  0.4825420000000  0.5572200000000  0.6055430000000 1.0
C      1  0.5413620000000  0.4503650000000  0.4214540000000 1.0
C      1  0.5093680000000  0.4412630000000  0.4167210000000 1.0
C      1  0.4267340000000  0.4712870000000  0.5773150000000 1.0
C      1  0.5382980000000  0.4928630000000  0.5163210000000 1.0
C      1  0.4832310000000  0.3831680000000  0.5070570000000 1.0
C      1  0.5837630000000  0.4931880000000  0.4769050000000 1.0
C      1  0.4897020000000  0.4792710000000  0.4407330000000 1.0
C      1  0.5550330000000  0.4583940000000  0.4915460000000 1.0
C      1  0.5232700000000  0.5108250000000  0.5410440000000 1.0
C      1  0.4808120000000  0.3880550000000  0.5360370000000 1.0
C      1  0.4605990000000  0.5592290000000  0.5867430000000 1.0
C      1  0.4503450000000  0.4951050000000  0.3993800000000 1.0
C      1  0.4232320000000  0.5189310000000  0.5807830000000 1.0
C      1  0.4696010000000  0.4825350000000  0.5634000000000 1.0
C      1  0.4758260000000  0.4276890000000  0.4335710000000 1.0
C      1  0.5067290000000  0.5323220000000  0.4435720000000 1.0
C      1  0.4355400000000  0.5213410000000  0.4128150000000 1.0
C      1  0.5582440000000  0.5693790000000  0.5730520000000 1.0
C      1  0.5031060000000  0.5563280000000  0.4999370000000 1.0
C      1  0.4922230000000  0.6044400000000  0.5265340000000 1.0
C      1  0.5344590000000  0.5517580000000  0.5084140000000 1.0
C      1  0.4960610000000  0.4250920000000  0.4675880000000 1.0
C      1  0.4407620000000  0.4106200000000  0.5231130000000 1.0
C      1  0.4712480000000  0.4847550000000  0.5081870000000 1.0
C      1  0.5143400000000  0.4225830000000  0.5472170000000 1.0
C      1  0.4943100000000  0.5074200000000  0.4598100000000 1.0
C      1  0.3917570000000  0.4925780000000  0.5047090000000 1.0
C      1  0.4024530000000  0.4668820000000  0.4855690000000 1.0
C      1  0.4386270000000  0.5639440000000  0.4991770000000 1.0
C      1  0.5653070000000  0.4822760000000  0.5435640000000 1.0
C      1  0.5663640000000  0.4918410000000  0.4187830000000 1.0
C      1  0.4731600000000  0.5345710000000  0.5234330000000 1.0
C      1  0.5054700000000  0.5244670000000  0.5021670000000 1.0
C      1  0.4173150000000  0.5516410000000  0.4391570000000 1.0
C      1  0.4353560000000  0.4937420000000  0.5913350000000 1.0
C      1  0.4653100000000  0.4530130000000  0.5810440000000 1.0
C      1  0.5873150000000  0.5651180000000  0.4855030000000 1.0
C      1  0.5645150000000  0.5139840000000  0.5378200000000 1.0
C      1  0.4916910000000  0.5484550000000  0.5465170000000 1.0
C      1  0.4770790000000  0.4855000000000  0.4780560000000 1.0
C      1  0.5523630000000  0.5962520000000  0.4588500000000 1.0
C      1  0.4053610000000  0.5411330000000  0.4843850000000 1.0
C      1  0.4372330000000  0.4608040000000  0.5282740000000 1.0
C      1  0.4084950000000  0.4425950000000  0.5303360000000 1.0
C      1  0.4837030000000  0.5645080000000  0.4776210000000 1.0
C      1  0.4147370000000  0.4370510000000  0.4743660000000 1.0
C      1  0.4947280000000  0.5012510000000  0.5232800000000 1.0
END
