TITL C-2778422-5617-85 0.000581155928527723 125000 -125.317472671392 0 0 23 (C1) n - 1
REM
REM in /home/nfs/bkarasulu/CARBON/AIRSS/Generating-Clusters/REBO/Only-C1/SD-CG/HFTN-CG
REM
REM
REM
REM
REM
REM ./C.cell (11c1c37f851c82e70ff6c80c92926a4b)
REM
REM compiler GCC version 9.2.1 20190827 (Red Hat 9.2.1-1)
REM options -cpp -mtune=generic -march=x86-64 -g -O0 -fpre-include=/usr/include/finclude/math-vector-fortran.h
REM seed -270131558 -1457559005 319576836 -1910132128 -1697048820 1316778599 -216999341 101496445 386717497 1389567341 1199984768 -683923285 868223480 -1141246400 1884337329 -535085819 2035071464 -1526914699 -1426006773 -724330853 -336974371 -1411292416 -686091938 347601376 -1045864937 1634246029 743672528 1373598660 595373674 -1595624298 -722678735 -1010122974 -1155348959
REM
CELL 1.54180   50.00000   50.00000   50.00000   90.00000   90.00000   90.00000
LATT -1
SFAC C  
C      1  0.5699470000000  0.5718750000000  0.5217330000000 1.0
C      1  0.5466240000000  0.5006890000000  0.5256240000000 1.0
C      1  0.4460730000000  0.5298250000000  0.5295780000000 1.0
C      1  0.4591280000000  0.5020610000000  0.5291830000000 1.0
C      1  0.5021540000000  0.5402880000000  0.4776080000000 1.0
C      1  0.4570930000000  0.5236080000000  0.4992920000000 1.0
C      1  0.4611020000000  0.4745710000000  0.5220060000000 1.0
C      1  0.4837640000000  0.4572280000000  0.5271950000000 1.0
C      1  0.5577110000000  0.5492080000000  0.5169040000000 1.0
C      1  0.5247010000000  0.5302540000000  0.4566060000000 1.0
C      1  0.5086520000000  0.4699320000000  0.5323670000000 1.0
C      1  0.5280440000000  0.4816240000000  0.5155660000000 1.0
C      1  0.4719530000000  0.4780340000000  0.4716370000000 1.0
C      1  0.5307650000000  0.5009830000000  0.4555860000000 1.0
C      1  0.4985010000000  0.4405610000000  0.4846780000000 1.0
C      1  0.5448850000000  0.5254480000000  0.5118410000000 1.0
C      1  0.4502810000000  0.5008220000000  0.4807090000000 1.0
C      1  0.5202120000000  0.4867860000000  0.4843300000000 1.0
C      1  0.4502800000000  0.4718570000000  0.4949330000000 1.0
C      1  0.4869100000000  0.4349340000000  0.5093240000000 1.0
C      1  0.4979590000000  0.4675030000000  0.4752970000000 1.0
C      1  0.5254970000000  0.5202350000000  0.4898220000000 1.0
C      1  0.4777670000000  0.5416750000000  0.4881810000000 1.0
END
