TITL C-2778423-5760-1314 0.000598162150166448 125000 -360.10840820525 0 0 64 (C1) n - 1
REM
REM in /home/nfs/bkarasulu/CARBON/AIRSS/Generating-Clusters/REBO/Only-C1/SD-CG/HFTN-CG
REM
REM
REM
REM
REM
REM ./C.cell (11c1c37f851c82e70ff6c80c92926a4b)
REM
REM compiler GCC version 9.2.1 20190827 (Red Hat 9.2.1-1)
REM options -cpp -mtune=generic -march=x86-64 -g -O0 -fpre-include=/usr/include/finclude/math-vector-fortran.h
REM seed 40617607 1240009724 203820958 -1256826176 1381015224 1691976076 -944916422 -2084034800 1956812481 918855001 -1604708045 -313944365 -652632208 -1825599989 -351979176 1103571778 1014663612 -538766161 355292965 1869551173 -381149758 -2066927683 2022646476 -1427254793 -446288257 -247517168 -947140648 1242195004 -1408648580 -1448227214 -30840736 123559312 -1058743717
REM
CELL 1.54180   50.00000   50.00000   50.00000   90.00000   90.00000   90.00000
LATT -1
SFAC C  
C      1  0.4838860000000  0.5580930000000  0.4922030000000 1.0
C      1  0.5527120000000  0.4465310000000  0.5195390000000 1.0
C      1  0.5389780000000  0.4274760000000  0.5116270000000 1.0
C      1  0.4914900000000  0.4080030000000  0.5220060000000 1.0
C      1  0.4661480000000  0.5162570000000  0.4193250000000 1.0
C      1  0.5486180000000  0.5205810000000  0.4407320000000 1.0
C      1  0.4765890000000  0.5004300000000  0.4475750000000 1.0
C      1  0.5360920000000  0.4923790000000  0.5457410000000 1.0
C      1  0.5472990000000  0.5527490000000  0.5364310000000 1.0
C      1  0.5242470000000  0.5526880000000  0.4861480000000 1.0
C      1  0.5522570000000  0.4896080000000  0.4864560000000 1.0
C      1  0.4362210000000  0.5139380000000  0.5231140000000 1.0
C      1  0.5724030000000  0.5415950000000  0.5296090000000 1.0
C      1  0.4963310000000  0.5353070000000  0.5698950000000 1.0
C      1  0.5356710000000  0.5636060000000  0.5141470000000 1.0
C      1  0.4778680000000  0.4471000000000  0.4437860000000 1.0
C      1  0.4990580000000  0.5755430000000  0.4482170000000 1.0
C      1  0.5101380000000  0.5014070000000  0.4903290000000 1.0
C      1  0.4507340000000  0.5309080000000  0.4464800000000 1.0
C      1  0.5362430000000  0.4826060000000  0.4400030000000 1.0
C      1  0.4934280000000  0.4731380000000  0.5878610000000 1.0
C      1  0.4555930000000  0.4469580000000  0.4274810000000 1.0
C      1  0.5249320000000  0.5129310000000  0.5654060000000 1.0
C      1  0.4522760000000  0.4653180000000  0.5512050000000 1.0
C      1  0.4103380000000  0.5157330000000  0.5190740000000 1.0
C      1  0.4970440000000  0.5401740000000  0.4113680000000 1.0
C      1  0.5060280000000  0.4140630000000  0.4727970000000 1.0
C      1  0.5159790000000  0.4989150000000  0.5203290000000 1.0
C      1  0.4982560000000  0.5072450000000  0.4124460000000 1.0
C      1  0.4999840000000  0.4721290000000  0.4810800000000 1.0
C      1  0.4896150000000  0.4730270000000  0.4532780000000 1.0
C      1  0.5571190000000  0.5480420000000  0.4842770000000 1.0
C      1  0.4297510000000  0.4485740000000  0.5616550000000 1.0
C      1  0.4956770000000  0.5047160000000  0.5794070000000 1.0
C      1  0.5304790000000  0.4673680000000  0.4936880000000 1.0
C      1  0.5134340000000  0.4567060000000  0.5798690000000 1.0
C      1  0.5529780000000  0.4979730000000  0.4601840000000 1.0
C      1  0.5043840000000  0.5583970000000  0.5383160000000 1.0
C      1  0.4961060000000  0.4513990000000  0.5058330000000 1.0
C      1  0.5098800000000  0.4232760000000  0.5018260000000 1.0
C      1  0.4888140000000  0.5288600000000  0.4576700000000 1.0
C      1  0.4926140000000  0.5473340000000  0.5165630000000 1.0
C      1  0.4717200000000  0.4526250000000  0.5296610000000 1.0
C      1  0.4623780000000  0.5393950000000  0.4755790000000 1.0
C      1  0.4504530000000  0.4978070000000  0.5433630000000 1.0
C      1  0.4942280000000  0.5505610000000  0.4362530000000 1.0
C      1  0.4584480000000  0.5297470000000  0.5057200000000 1.0
C      1  0.5269620000000  0.5448300000000  0.5583230000000 1.0
C      1  0.5258780000000  0.4616910000000  0.5562310000000 1.0
C      1  0.4736170000000  0.4213900000000  0.5337550000000 1.0
C      1  0.4581800000000  0.5441630000000  0.5365260000000 1.0
C      1  0.5030970000000  0.5742120000000  0.4760750000000 1.0
C      1  0.5083780000000  0.4681700000000  0.5306580000000 1.0
C      1  0.4912240000000  0.4242450000000  0.4527690000000 1.0
C      1  0.4718390000000  0.5447840000000  0.5570970000000 1.0
C      1  0.4867660000000  0.5162800000000  0.5191160000000 1.0
C      1  0.4435880000000  0.4987120000000  0.4384380000000 1.0
C      1  0.4799220000000  0.4860940000000  0.5314820000000 1.0
C      1  0.4687270000000  0.4871540000000  0.5701230000000 1.0
C      1  0.5767720000000  0.5405550000000  0.5020630000000 1.0
C      1  0.5505160000000  0.4789300000000  0.5188090000000 1.0
C      1  0.5105550000000  0.5259390000000  0.4785100000000 1.0
C      1  0.5288490000000  0.5187010000000  0.4219790000000 1.0
C      1  0.5102080000000  0.4849310000000  0.4324990000000 1.0
END
