TITL C-2778424-3986-602 -0.00273762704286181 125000 -670.858963287559 0 0 117 (C1) n - 1
REM
REM in /home/nfs/bkarasulu/CARBON/AIRSS/Generating-Clusters/REBO/Only-C1/SD-CG/HFTN-CG
REM
REM
REM
REM
REM
REM ./C.cell (11c1c37f851c82e70ff6c80c92926a4b)
REM
REM compiler GCC version 9.2.1 20190827 (Red Hat 9.2.1-1)
REM options -cpp -mtune=generic -march=x86-64 -g -O0 -fpre-include=/usr/include/finclude/math-vector-fortran.h
REM seed 1927313108 1516028445 -1113374156 -2120049573 -668583924 -1168110267 -953814790 -747873010 -1643125780 1761028814 -1703514332 488417696 449908518 436825475 -290301541 -902271045 -982811207 786654408 -77716135 -605784979 -889770537 -459087864 -2058968279 1467028646 1421910110 -748254463 1284617218 8932663 300545980 -254469769 653210450 -1076546085 1952021329
REM
CELL 1.54180   50.00000   50.00000   50.00000   90.00000   90.00000   90.00000
LATT -1
SFAC C  
C      1  0.4729400000000  0.5199340000000  0.5152650000000 1.0
C      1  0.4824440000000  0.5785950000000  0.4710930000000 1.0
C      1  0.5265590000000  0.5347910000000  0.5829220000000 1.0
C      1  0.5918960000000  0.4584550000000  0.5629960000000 1.0
C      1  0.5124280000000  0.4507370000000  0.4762430000000 1.0
C      1  0.5024950000000  0.4193780000000  0.5476760000000 1.0
C      1  0.4627330000000  0.4310990000000  0.4833280000000 1.0
C      1  0.4705740000000  0.5055980000000  0.5428390000000 1.0
C      1  0.5208700000000  0.5955500000000  0.4962780000000 1.0
C      1  0.5045190000000  0.5644940000000  0.4414210000000 1.0
C      1  0.4985040000000  0.4446460000000  0.5655890000000 1.0
C      1  0.5887310000000  0.4969430000000  0.5096970000000 1.0
C      1  0.4357630000000  0.5492120000000  0.4754840000000 1.0
C      1  0.4527820000000  0.4997220000000  0.4695930000000 1.0
C      1  0.5132350000000  0.5835230000000  0.4666590000000 1.0
C      1  0.5059030000000  0.4336220000000  0.5007530000000 1.0
C      1  0.5456680000000  0.5123690000000  0.5831270000000 1.0
C      1  0.5697320000000  0.5115280000000  0.5251060000000 1.0
C      1  0.5049620000000  0.4886770000000  0.5170490000000 1.0
C      1  0.5105040000000  0.4833320000000  0.4778390000000 1.0
C      1  0.5086550000000  0.5836230000000  0.5220960000000 1.0
C      1  0.5403650000000  0.4400420000000  0.4646670000000 1.0
C      1  0.5383260000000  0.4854000000000  0.5849710000000 1.0
C      1  0.4791710000000  0.5473910000000  0.5278440000000 1.0
C      1  0.5922970000000  0.5100650000000  0.4835700000000 1.0
C      1  0.5404340000000  0.5461930000000  0.4315840000000 1.0
C      1  0.4700360000000  0.5500300000000  0.5549520000000 1.0
C      1  0.4450090000000  0.4800350000000  0.4462350000000 1.0
C      1  0.5052400000000  0.5342100000000  0.5999890000000 1.0
C      1  0.5549760000000  0.4298250000000  0.4923780000000 1.0
C      1  0.5283880000000  0.5557730000000  0.5630300000000 1.0
C      1  0.5585810000000  0.5143540000000  0.4797190000000 1.0
C      1  0.4817940000000  0.4751870000000  0.5466140000000 1.0
C      1  0.4954520000000  0.4251250000000  0.4464320000000 1.0
C      1  0.5714630000000  0.5302940000000  0.5459100000000 1.0
C      1  0.5437360000000  0.4873260000000  0.4822070000000 1.0
C      1  0.4756360000000  0.4970140000000  0.4101200000000 1.0
C      1  0.4653250000000  0.5404780000000  0.4388980000000 1.0
C      1  0.5365970000000  0.4792580000000  0.4267510000000 1.0
C      1  0.5471750000000  0.4685490000000  0.5498630000000 1.0
C      1  0.4650000000000  0.5307260000000  0.4776870000000 1.0
C      1  0.5606560000000  0.5707470000000  0.5163060000000 1.0
C      1  0.5753600000000  0.5539190000000  0.4939520000000 1.0
C      1  0.4572230000000  0.5653200000000  0.4541290000000 1.0
C      1  0.5194970000000  0.4588900000000  0.4237470000000 1.0
C      1  0.4319380000000  0.4715280000000  0.5448970000000 1.0
C      1  0.5214730000000  0.4358970000000  0.4403350000000 1.0
C      1  0.5407790000000  0.5064110000000  0.5171010000000 1.0
C      1  0.4642360000000  0.4546950000000  0.5283920000000 1.0
C      1  0.4325850000000  0.4441000000000  0.5336650000000 1.0
C      1  0.4923720000000  0.5070570000000  0.4944810000000 1.0
C      1  0.4535790000000  0.4760070000000  0.5634180000000 1.0
C      1  0.4724150000000  0.5732380000000  0.5093000000000 1.0
C      1  0.4798230000000  0.4713870000000  0.5067340000000 1.0
C      1  0.4185580000000  0.5199790000000  0.4720020000000 1.0
C      1  0.4142690000000  0.5339480000000  0.5029240000000 1.0
C      1  0.4890610000000  0.4666710000000  0.4181310000000 1.0
C      1  0.4267030000000  0.5151550000000  0.4174280000000 1.0
C      1  0.4969940000000  0.5317970000000  0.4476430000000 1.0
C      1  0.5022250000000  0.3998950000000  0.4979070000000 1.0
C      1  0.5148180000000  0.4675490000000  0.5473230000000 1.0
C      1  0.4223600000000  0.4577240000000  0.4585060000000 1.0
C      1  0.4168980000000  0.5207130000000  0.5310030000000 1.0
C      1  0.4352640000000  0.4903710000000  0.4973650000000 1.0
C      1  0.4513800000000  0.5775410000000  0.4855950000000 1.0
C      1  0.5618380000000  0.4627560000000  0.4710080000000 1.0
C      1  0.4982780000000  0.5021240000000  0.4334400000000 1.0
C      1  0.5102830000000  0.5071500000000  0.5428660000000 1.0
C      1  0.5655930000000  0.5338490000000  0.4511560000000 1.0
C      1  0.4517490000000  0.4481840000000  0.4445970000000 1.0
C      1  0.5108050000000  0.5482840000000  0.4138580000000 1.0
C      1  0.4270340000000  0.5361870000000  0.5527940000000 1.0
C      1  0.5151090000000  0.5547060000000  0.5076250000000 1.0
C      1  0.5250060000000  0.5284040000000  0.4634880000000 1.0
C      1  0.4871590000000  0.4140880000000  0.4714610000000 1.0
C      1  0.5250640000000  0.5330230000000  0.5304580000000 1.0
C      1  0.5044290000000  0.4991820000000  0.5691640000000 1.0
C      1  0.5317140000000  0.4128350000000  0.5088350000000 1.0
C      1  0.5360270000000  0.4520110000000  0.5769020000000 1.0
C      1  0.5797740000000  0.4515310000000  0.4951640000000 1.0
C      1  0.5228310000000  0.5190700000000  0.4199770000000 1.0
C      1  0.4871110000000  0.4090660000000  0.5258080000000 1.0
C      1  0.4412980000000  0.5222610000000  0.4465400000000 1.0
C      1  0.5709740000000  0.5196480000000  0.5720960000000 1.0
C      1  0.4465610000000  0.4933170000000  0.4195260000000 1.0
C      1  0.4541350000000  0.5245380000000  0.5643290000000 1.0
C      1  0.5210200000000  0.5185100000000  0.4925380000000 1.0
C      1  0.5081010000000  0.4699300000000  0.5862660000000 1.0
C      1  0.5333310000000  0.4738340000000  0.5117820000000 1.0
C      1  0.4794590000000  0.5855770000000  0.5396430000000 1.0
C      1  0.5859790000000  0.4690850000000  0.5161290000000 1.0
C      1  0.4875310000000  0.5500450000000  0.4888900000000 1.0
C      1  0.5445090000000  0.5081130000000  0.4430240000000 1.0
C      1  0.4446170000000  0.5208400000000  0.5022510000000 1.0
C      1  0.4153100000000  0.4861080000000  0.4721230000000 1.0
C      1  0.4819550000000  0.5305040000000  0.4109690000000 1.0
C      1  0.4516970000000  0.4976920000000  0.5799870000000 1.0
C      1  0.4272310000000  0.5649560000000  0.5567140000000 1.0
C      1  0.4929840000000  0.4751850000000  0.4514020000000 1.0
C      1  0.4327190000000  0.4317850000000  0.4744920000000 1.0
C      1  0.5455380000000  0.5795180000000  0.4895540000000 1.0
C      1  0.5377220000000  0.5600390000000  0.4626510000000 1.0
C      1  0.4796530000000  0.4581020000000  0.4778610000000 1.0
C      1  0.4624640000000  0.4246480000000  0.5161180000000 1.0
C      1  0.5065990000000  0.5697780000000  0.5527040000000 1.0
C      1  0.5320130000000  0.4319360000000  0.5494970000000 1.0
C      1  0.5886810000000  0.5394030000000  0.4735330000000 1.0
C      1  0.4171230000000  0.4187460000000  0.4932560000000 1.0
C      1  0.4757150000000  0.4414620000000  0.4331650000000 1.0
C      1  0.5510790000000  0.5528230000000  0.5403710000000 1.0
C      1  0.5700110000000  0.4874450000000  0.4522340000000 1.0
C      1  0.4542310000000  0.5761780000000  0.5581950000000 1.0
C      1  0.4292440000000  0.4183730000000  0.5190570000000 1.0
C      1  0.5395970000000  0.4447330000000  0.5189110000000 1.0
C      1  0.5744490000000  0.4652500000000  0.5429620000000 1.0
C      1  0.4248510000000  0.4930570000000  0.5272850000000 1.0
C      1  0.5444510000000  0.5404850000000  0.4965810000000 1.0
END
