TITL C-2778429-3646-1475 -0.00162294499361061 125000 -1153.25653979933 0 0 198 (C1) n - 1
REM
REM in /home/nfs/bkarasulu/CARBON/AIRSS/Generating-Clusters/REBO/Only-C1/SD-CG/HFTN-CG
REM
REM
REM
REM
REM
REM ./C.cell (11c1c37f851c82e70ff6c80c92926a4b)
REM
REM compiler GCC version 9.2.1 20190827 (Red Hat 9.2.1-1)
REM options -cpp -mtune=generic -march=x86-64 -g -O0 -fpre-include=/usr/include/finclude/math-vector-fortran.h
REM seed 1392679865 628335007 -1887387639 1752595408 1469464155 -1855215920 469832347 -1461550129 671617465 425147489 567166262 1802872905 1653356372 -369584350 -1649108384 -589160029 -1793988530 -2001366807 1284567456 1715839577 2036535835 -1283262563 191381580 -475602592 -1739240683 201938578 -171954631 -1025209474 953838192 674371944 -722223396 -115827232 1410417069
REM
CELL 1.54180   50.00000   50.00000   50.00000   90.00000   90.00000   90.00000
LATT -1
SFAC C  
C      1  0.4402730000000  0.5356020000000  0.4575540000000 1.0
C      1  0.5261770000000  0.5744240000000  0.4488230000000 1.0
C      1  0.5166460000000  0.4548840000000  0.4966740000000 1.0
C      1  0.4332340000000  0.5069070000000  0.5007570000000 1.0
C      1  0.5559840000000  0.4960480000000  0.5975210000000 1.0
C      1  0.5105840000000  0.5190770000000  0.4641500000000 1.0
C      1  0.5561280000000  0.5040560000000  0.4098040000000 1.0
C      1  0.4808110000000  0.4649640000000  0.5619020000000 1.0
C      1  0.5070420000000  0.4778490000000  0.5346860000000 1.0
C      1  0.5343440000000  0.4828390000000  0.4592080000000 1.0
C      1  0.5002000000000  0.5365680000000  0.5106620000000 1.0
C      1  0.5748070000000  0.4601420000000  0.4309010000000 1.0
C      1  0.5739900000000  0.4072710000000  0.4911370000000 1.0
C      1  0.4810820000000  0.4457420000000  0.6083630000000 1.0
C      1  0.3990310000000  0.4262840000000  0.5033440000000 1.0
C      1  0.5350340000000  0.3773530000000  0.5017870000000 1.0
C      1  0.4937890000000  0.4102540000000  0.4812940000000 1.0
C      1  0.4018210000000  0.4627360000000  0.4508330000000 1.0
C      1  0.4141960000000  0.5588840000000  0.5680670000000 1.0
C      1  0.5147940000000  0.5111240000000  0.5405200000000 1.0
C      1  0.4637280000000  0.5692650000000  0.5694540000000 1.0
C      1  0.4863210000000  0.4628010000000  0.4441290000000 1.0
C      1  0.4428040000000  0.4543700000000  0.5678010000000 1.0
C      1  0.4879140000000  0.5635860000000  0.4448740000000 1.0
C      1  0.4091250000000  0.5194270000000  0.5208470000000 1.0
C      1  0.4681990000000  0.4241320000000  0.4366230000000 1.0
C      1  0.5949940000000  0.5261750000000  0.4704350000000 1.0
C      1  0.5293420000000  0.5828280000000  0.5245130000000 1.0
C      1  0.5372280000000  0.4528200000000  0.5415430000000 1.0
C      1  0.4731680000000  0.5350080000000  0.4525520000000 1.0
C      1  0.4771730000000  0.5215750000000  0.4244690000000 1.0
C      1  0.4541940000000  0.5412020000000  0.5317070000000 1.0
C      1  0.5741700000000  0.5677970000000  0.5625910000000 1.0
C      1  0.6086880000000  0.5032310000000  0.4605390000000 1.0
C      1  0.5979120000000  0.4524200000000  0.4735500000000 1.0
C      1  0.5417160000000  0.5088620000000  0.4399160000000 1.0
C      1  0.4987230000000  0.4934500000000  0.6069360000000 1.0
C      1  0.5857150000000  0.4933500000000  0.5795560000000 1.0
C      1  0.4949750000000  0.6089300000000  0.5092410000000 1.0
C      1  0.5282630000000  0.4531700000000  0.6105040000000 1.0
C      1  0.5776780000000  0.5221930000000  0.5928020000000 1.0
C      1  0.4484080000000  0.5449480000000  0.4865890000000 1.0
C      1  0.4015940000000  0.5320060000000  0.5690370000000 1.0
C      1  0.4879190000000  0.5915540000000  0.5599730000000 1.0
C      1  0.5986290000000  0.4929610000000  0.4978640000000 1.0
C      1  0.3885980000000  0.4799590000000  0.4952480000000 1.0
C      1  0.6016620000000  0.5425950000000  0.4933480000000 1.0
C      1  0.5364110000000  0.5964180000000  0.4942570000000 1.0
C      1  0.4968210000000  0.4232650000000  0.4501710000000 1.0
C      1  0.5712540000000  0.4949440000000  0.4497540000000 1.0
C      1  0.4347140000000  0.5915380000000  0.4998270000000 1.0
C      1  0.4089650000000  0.4827220000000  0.4258090000000 1.0
C      1  0.4030890000000  0.4690690000000  0.5308470000000 1.0
C      1  0.4928040000000  0.4299100000000  0.5456750000000 1.0
C      1  0.5410190000000  0.5319460000000  0.4724660000000 1.0
C      1  0.5736360000000  0.4491210000000  0.5571690000000 1.0
C      1  0.4330880000000  0.5655960000000  0.5208220000000 1.0
C      1  0.5274380000000  0.5039930000000  0.6015860000000 1.0
C      1  0.5527940000000  0.4590660000000  0.4570000000000 1.0
C      1  0.5289820000000  0.5110510000000  0.3942220000000 1.0
C      1  0.5739140000000  0.5707210000000  0.4631000000000 1.0
C      1  0.4350490000000  0.5752810000000  0.5520700000000 1.0
C      1  0.5916790000000  0.4326500000000  0.5340470000000 1.0
C      1  0.5917170000000  0.4345040000000  0.5015310000000 1.0
C      1  0.4379450000000  0.4995970000000  0.5501540000000 1.0
C      1  0.5688450000000  0.4757520000000  0.4079700000000 1.0
C      1  0.5659640000000  0.4503010000000  0.4858430000000 1.0
C      1  0.5150750000000  0.4867460000000  0.4868270000000 1.0
C      1  0.5225060000000  0.4238650000000  0.4846010000000 1.0
C      1  0.4815120000000  0.4359630000000  0.5002880000000 1.0
C      1  0.4460830000000  0.4956390000000  0.5963110000000 1.0
C      1  0.5181150000000  0.4072360000000  0.5490740000000 1.0
C      1  0.5428440000000  0.5413150000000  0.4296620000000 1.0
C      1  0.4808040000000  0.5715430000000  0.4139380000000 1.0
C      1  0.4246020000000  0.4161150000000  0.5057090000000 1.0
C      1  0.4773660000000  0.5004040000000  0.3751480000000 1.0
C      1  0.5668710000000  0.5304160000000  0.4666270000000 1.0
C      1  0.4509570000000  0.4594140000000  0.4720500000000 1.0
C      1  0.4644980000000  0.5070900000000  0.5495270000000 1.0
C      1  0.4570870000000  0.4120570000000  0.4967600000000 1.0
C      1  0.5748930000000  0.5521580000000  0.4344870000000 1.0
C      1  0.4863670000000  0.5012570000000  0.5273840000000 1.0
C      1  0.4879560000000  0.4391410000000  0.5780900000000 1.0
C      1  0.4493900000000  0.6079500000000  0.4828910000000 1.0
C      1  0.4298850000000  0.4544630000000  0.4974660000000 1.0
C      1  0.4338350000000  0.5449340000000  0.4258840000000 1.0
C      1  0.4747980000000  0.5847490000000  0.5114490000000 1.0
C      1  0.5137600000000  0.5435730000000  0.4460990000000 1.0
C      1  0.5775830000000  0.5214780000000  0.4292040000000 1.0
C      1  0.5685910000000  0.4284840000000  0.4369720000000 1.0
C      1  0.4516150000000  0.5734160000000  0.4314840000000 1.0
C      1  0.5337130000000  0.5597480000000  0.5953440000000 1.0
C      1  0.4266820000000  0.5742450000000  0.4517760000000 1.0
C      1  0.4444170000000  0.4290980000000  0.4580190000000 1.0
C      1  0.3970330000000  0.5134410000000  0.5459110000000 1.0
C      1  0.5004920000000  0.5622310000000  0.5556820000000 1.0
C      1  0.5490100000000  0.5324740000000  0.5835140000000 1.0
C      1  0.5810170000000  0.5832670000000  0.5406360000000 1.0
C      1  0.4639460000000  0.4857520000000  0.4864290000000 1.0
C      1  0.4661520000000  0.5717780000000  0.4849960000000 1.0
C      1  0.4240120000000  0.5669500000000  0.4821390000000 1.0
C      1  0.4377220000000  0.4970180000000  0.4695330000000 1.0
C      1  0.5016610000000  0.4648800000000  0.6145470000000 1.0
C      1  0.4088370000000  0.5252920000000  0.4603380000000 1.0
C      1  0.5352480000000  0.3786780000000  0.5269670000000 1.0
C      1  0.5552520000000  0.5786610000000  0.4359790000000 1.0
C      1  0.4283630000000  0.4845940000000  0.5247960000000 1.0
C      1  0.4492550000000  0.4272000000000  0.5759560000000 1.0
C      1  0.3950820000000  0.5277960000000  0.4844730000000 1.0
C      1  0.5135090000000  0.4201030000000  0.5778100000000 1.0
C      1  0.4648990000000  0.4046270000000  0.4650170000000 1.0
C      1  0.5934530000000  0.5695300000000  0.4880600000000 1.0
C      1  0.5357120000000  0.5362570000000  0.5331150000000 1.0
C      1  0.5362820000000  0.4335410000000  0.5914110000000 1.0
C      1  0.5416240000000  0.4320810000000  0.4194550000000 1.0
C      1  0.4406830000000  0.5373660000000  0.5626920000000 1.0
C      1  0.5144350000000  0.4707310000000  0.4267160000000 1.0
C      1  0.5087700000000  0.6043850000000  0.4809230000000 1.0
C      1  0.5091710000000  0.5885390000000  0.4227760000000 1.0
C      1  0.5117850000000  0.5706760000000  0.4760810000000 1.0
C      1  0.4624030000000  0.5909900000000  0.4582110000000 1.0
C      1  0.5344490000000  0.5689190000000  0.4105630000000 1.0
C      1  0.4875760000000  0.5073240000000  0.4865210000000 1.0
C      1  0.4454390000000  0.4945400000000  0.4364420000000 1.0
C      1  0.4973400000000  0.3941290000000  0.5284030000000 1.0
C      1  0.4953710000000  0.5141160000000  0.3964250000000 1.0
C      1  0.5198460000000  0.4214390000000  0.4312760000000 1.0
C      1  0.4140450000000  0.4774560000000  0.4780250000000 1.0
C      1  0.5298420000000  0.4789790000000  0.5584700000000 1.0
C      1  0.5486390000000  0.4298460000000  0.5614980000000 1.0
C      1  0.4716660000000  0.5091640000000  0.5994390000000 1.0
C      1  0.5380290000000  0.4516940000000  0.4007020000000 1.0
C      1  0.5499360000000  0.4028360000000  0.5428510000000 1.0
C      1  0.4658770000000  0.4918540000000  0.4124230000000 1.0
C      1  0.5843350000000  0.5398010000000  0.5660300000000 1.0
C      1  0.5851630000000  0.4227130000000  0.4643050000000 1.0
C      1  0.3935600000000  0.4855140000000  0.5529300000000 1.0
C      1  0.4347950000000  0.4656290000000  0.4454330000000 1.0
C      1  0.4928420000000  0.5258640000000  0.5701370000000 1.0
C      1  0.4722430000000  0.4040720000000  0.5232270000000 1.0
C      1  0.4571820000000  0.4613700000000  0.5398640000000 1.0
C      1  0.4591780000000  0.4259760000000  0.6024300000000 1.0
C      1  0.5153800000000  0.5318170000000  0.5889010000000 1.0
C      1  0.4168790000000  0.4389290000000  0.4698730000000 1.0
C      1  0.4495050000000  0.5271360000000  0.4053540000000 1.0
C      1  0.4246410000000  0.5105500000000  0.5761840000000 1.0
C      1  0.5379870000000  0.5446790000000  0.5011830000000 1.0
C      1  0.5751250000000  0.4070050000000  0.5246920000000 1.0
C      1  0.4934310000000  0.5967260000000  0.4522040000000 1.0
C      1  0.5775490000000  0.4619050000000  0.5271800000000 1.0
C      1  0.4604130000000  0.4222040000000  0.5471860000000 1.0
C      1  0.4682090000000  0.4494890000000  0.4182840000000 1.0
C      1  0.5626840000000  0.5198670000000  0.5203840000000 1.0
C      1  0.5449010000000  0.4001810000000  0.4838990000000 1.0
C      1  0.4495930000000  0.5041620000000  0.3846240000000 1.0
C      1  0.4296900000000  0.4721400000000  0.5856450000000 1.0
C      1  0.4877880000000  0.5469540000000  0.4808680000000 1.0
C      1  0.4214020000000  0.4674300000000  0.4030250000000 1.0
C      1  0.5470930000000  0.5700310000000  0.5700920000000 1.0
C      1  0.5635520000000  0.4807550000000  0.5594670000000 1.0
C      1  0.5880650000000  0.5854880000000  0.5097680000000 1.0
C      1  0.4428280000000  0.4383840000000  0.5229990000000 1.0
C      1  0.5968030000000  0.4841500000000  0.5253370000000 1.0
C      1  0.4667500000000  0.5388020000000  0.5827650000000 1.0
C      1  0.6021540000000  0.4979040000000  0.5499930000000 1.0
C      1  0.5926860000000  0.5315620000000  0.5181710000000 1.0
C      1  0.4093850000000  0.5477990000000  0.5052190000000 1.0
C      1  0.5031410000000  0.4919430000000  0.4492420000000 1.0
C      1  0.5292760000000  0.5629800000000  0.5472220000000 1.0
C      1  0.4978510000000  0.4501040000000  0.5241770000000 1.0
C      1  0.4922390000000  0.4488300000000  0.4718810000000 1.0
C      1  0.4192930000000  0.5143190000000  0.4312450000000 1.0
C      1  0.5510250000000  0.4949220000000  0.5022160000000 1.0
C      1  0.4614770000000  0.4839510000000  0.5170760000000 1.0
C      1  0.4858580000000  0.5392940000000  0.5394180000000 1.0
C      1  0.3793510000000  0.5065630000000  0.4950600000000 1.0
C      1  0.5454160000000  0.4261160000000  0.4616730000000 1.0
C      1  0.4886070000000  0.4716360000000  0.4053280000000 1.0
C      1  0.5505530000000  0.5691270000000  0.4855620000000 1.0
C      1  0.5233580000000  0.5137720000000  0.5026240000000 1.0
C      1  0.5211280000000  0.5440820000000  0.3963100000000 1.0
C      1  0.5753230000000  0.4935580000000  0.4824170000000 1.0
C      1  0.5659590000000  0.5144740000000  0.5520790000000 1.0
C      1  0.6032760000000  0.5263550000000  0.5445720000000 1.0
C      1  0.4866700000000  0.4926040000000  0.5663430000000 1.0
C      1  0.4997060000000  0.6135390000000  0.5375070000000 1.0
C      1  0.5202820000000  0.4793900000000  0.3955370000000 1.0
C      1  0.5972100000000  0.4732950000000  0.4522370000000 1.0
C      1  0.4909070000000  0.5476190000000  0.3974900000000 1.0
C      1  0.5050720000000  0.5702770000000  0.5080210000000 1.0
C      1  0.3890750000000  0.4525870000000  0.5099650000000 1.0
C      1  0.5369100000000  0.5101620000000  0.5633690000000 1.0
C      1  0.4622710000000  0.5225540000000  0.5039540000000 1.0
C      1  0.4418760000000  0.4534540000000  0.4033480000000 1.0
C      1  0.5476050000000  0.4620830000000  0.5104630000000 1.0
C      1  0.4639770000000  0.5839300000000  0.5382020000000 1.0
C      1  0.4022110000000  0.4775640000000  0.5790890000000 1.0
C      1  0.5586950000000  0.5972300000000  0.5195040000000 1.0
END
