TITL C-2778430-5657-1018 -0.00143761222129685 125000 -220.842896344515 0 0 40 (C1) n - 1
REM
REM in /home/nfs/bkarasulu/CARBON/AIRSS/Generating-Clusters/REBO/Only-C1/SD-CG/HFTN-CG
REM
REM
REM
REM
REM
REM ./C.cell (11c1c37f851c82e70ff6c80c92926a4b)
REM
REM compiler GCC version 9.2.1 20190827 (Red Hat 9.2.1-1)
REM options -cpp -mtune=generic -march=x86-64 -g -O0 -fpre-include=/usr/include/finclude/math-vector-fortran.h
REM seed 2096826350 -1979224842 -1151328017 -1664055554 1000899937 -1777691124 745911309 113211732 504562300 -1345519782 -681144413 865442748 -704359775 1466786005 -1490065602 963929234 600884885 -730428732 -1992994355 -284787966 -1183646881 2090076975 167841558 -1096251415 -1025546812 1565138075 192367497 -1091240151 1990900021 -946852633 780217744 -903842922 -2028204167
REM
CELL 1.54180   50.00000   50.00000   50.00000   90.00000   90.00000   90.00000
LATT -1
SFAC C  
C      1  0.5198640000000  0.5290920000000  0.4777340000000 1.0
C      1  0.5498210000000  0.5009640000000  0.5287470000000 1.0
C      1  0.5433290000000  0.4775790000000  0.4916060000000 1.0
C      1  0.4944020000000  0.4350630000000  0.5261830000000 1.0
C      1  0.5503460000000  0.5277900000000  0.4882310000000 1.0
C      1  0.4604330000000  0.4833650000000  0.5184070000000 1.0
C      1  0.5197930000000  0.5711960000000  0.5259600000000 1.0
C      1  0.5328110000000  0.4471070000000  0.4522780000000 1.0
C      1  0.5034230000000  0.5205690000000  0.4499260000000 1.0
C      1  0.4844610000000  0.5013440000000  0.4699740000000 1.0
C      1  0.5130480000000  0.4668580000000  0.4486000000000 1.0
C      1  0.4996330000000  0.5358390000000  0.4995250000000 1.0
C      1  0.5548910000000  0.5275930000000  0.5168620000000 1.0
C      1  0.4516430000000  0.4763060000000  0.4886510000000 1.0
C      1  0.5130430000000  0.4725480000000  0.5006160000000 1.0
C      1  0.5167790000000  0.5020340000000  0.5328590000000 1.0
C      1  0.4970740000000  0.4630310000000  0.4257000000000 1.0
C      1  0.4754300000000  0.5352770000000  0.4451140000000 1.0
C      1  0.5322640000000  0.4718300000000  0.5294530000000 1.0
C      1  0.4708780000000  0.4554220000000  0.4812160000000 1.0
C      1  0.5188290000000  0.4435210000000  0.5331730000000 1.0
C      1  0.4651470000000  0.4523120000000  0.5318140000000 1.0
C      1  0.5434650000000  0.5006280000000  0.4737190000000 1.0
C      1  0.4725200000000  0.5225420000000  0.4940140000000 1.0
C      1  0.4498780000000  0.5470740000000  0.5160270000000 1.0
C      1  0.5241700000000  0.4966240000000  0.4514790000000 1.0
C      1  0.5381880000000  0.5479780000000  0.5307350000000 1.0
C      1  0.4504920000000  0.4991330000000  0.4704850000000 1.0
C      1  0.4961920000000  0.4729820000000  0.4749350000000 1.0
C      1  0.5639650000000  0.4631700000000  0.5001740000000 1.0
C      1  0.4876320000000  0.5381140000000  0.5501540000000 1.0
C      1  0.4647780000000  0.5277860000000  0.5476290000000 1.0
C      1  0.4955740000000  0.5641450000000  0.5127430000000 1.0
C      1  0.4887910000000  0.4632180000000  0.5538720000000 1.0
C      1  0.4677270000000  0.5680220000000  0.5165940000000 1.0
C      1  0.4569430000000  0.5297560000000  0.4650030000000 1.0
C      1  0.4932370000000  0.4801060000000  0.5272460000000 1.0
C      1  0.4734230000000  0.4371480000000  0.5025830000000 1.0
C      1  0.4557320000000  0.5137750000000  0.5198250000000 1.0
C      1  0.5099520000000  0.5311570000000  0.5301550000000 1.0
END
