TITL C-2778422-5617-63 -0.0332348786552319 125000 -138.815216034191 0 0 26 (C1) n - 1
REM
REM in /home/nfs/bkarasulu/CARBON/AIRSS/Generating-Clusters/REBO/Only-C1/SD-CG/HFTN-CG
REM
REM
REM
REM
REM
REM ./C.cell (11c1c37f851c82e70ff6c80c92926a4b)
REM
REM compiler GCC version 9.2.1 20190827 (Red Hat 9.2.1-1)
REM options -cpp -mtune=generic -march=x86-64 -g -O0 -fpre-include=/usr/include/finclude/math-vector-fortran.h
REM seed 619464941 1147132223 68348616 1639848325 137720365 104696891 15571231 -1565864977 -1566029159 -1529271204 -1437690091 1260496029 -973133992 618947080 -103203552 280131521 1777364800 -472457220 -941222859 1226940323 -1625242289 -1568018399 -837522109 1564044731 889814594 326366257 280218353 -1025526263 -776939505 -763481344 59477897 -921119868 -2085768637
REM
CELL 1.54180   50.00000   50.00000   50.00000   90.00000   90.00000   90.00000
LATT -1
SFAC C  
C      1  0.5570070000000  0.5109140000000  0.5263250000000 1.0
C      1  0.4665520000000  0.4966380000000  0.5647060000000 1.0
C      1  0.5169820000000  0.5265120000000  0.4426330000000 1.0
C      1  0.5270160000000  0.5261150000000  0.4725220000000 1.0
C      1  0.4939670000000  0.4960920000000  0.5684390000000 1.0
C      1  0.4816940000000  0.4805140000000  0.4373030000000 1.0
C      1  0.5550460000000  0.4822890000000  0.5223430000000 1.0
C      1  0.4957950000000  0.5148840000000  0.4947110000000 1.0
C      1  0.5189730000000  0.5369650000000  0.5007920000000 1.0
C      1  0.5183140000000  0.4958410000000  0.4677160000000 1.0
C      1  0.4593550000000  0.5043060000000  0.5378960000000 1.0
C      1  0.4922800000000  0.4980660000000  0.5162010000000 1.0
C      1  0.5298000000000  0.4680860000000  0.5057670000000 1.0
C      1  0.5106590000000  0.4975710000000  0.5422790000000 1.0
C      1  0.5104240000000  0.4763570000000  0.4870720000000 1.0
C      1  0.5285470000000  0.5240890000000  0.5306690000000 1.0
C      1  0.4783250000000  0.4715820000000  0.4897140000000 1.0
C      1  0.4656720000000  0.4823170000000  0.5170240000000 1.0
C      1  0.4974690000000  0.5378690000000  0.5272880000000 1.0
C      1  0.5282790000000  0.4726400000000  0.5373220000000 1.0
C      1  0.4721670000000  0.5294960000000  0.5309830000000 1.0
C      1  0.4818430000000  0.5164950000000  0.4709270000000 1.0
C      1  0.4688910000000  0.5187720000000  0.4482540000000 1.0
C      1  0.4797320000000  0.4556080000000  0.4594210000000 1.0
C      1  0.4606680000000  0.4823700000000  0.4626260000000 1.0
C      1  0.5045410000000  0.4976150000000  0.4390670000000 1.0
END
