TITL C-2778425-5191-109 -0.00395325392325591 125000 -412.699293662982 0 0 72 (C1) n - 1
REM
REM in /home/nfs/bkarasulu/CARBON/AIRSS/Generating-Clusters/REBO/Only-C1/SD-CG/HFTN-CG
REM
REM
REM
REM
REM
REM ./C.cell (11c1c37f851c82e70ff6c80c92926a4b)
REM
REM compiler GCC version 9.2.1 20190827 (Red Hat 9.2.1-1)
REM options -cpp -mtune=generic -march=x86-64 -g -O0 -fpre-include=/usr/include/finclude/math-vector-fortran.h
REM seed 1490681445 1268879318 264592965 1606305689 -470347081 -1685689398 -867734703 -658175060 1191575766 -655939949 -2077704941 -1140630552 1094260028 1914376417 1173586307 -989071070 -517542007 -1172037612 -513581779 -534607800 1254564271 708629188 -474889456 627580834 1403921214 -1105018513 64189000 1639861824 1370105825 1899841460 1902386180 1438731657 -1808379498
REM
CELL 1.54180   50.00000   50.00000   50.00000   90.00000   90.00000   90.00000
LATT -1
SFAC C  
C      1  0.5033040000000  0.4899790000000  0.5701350000000 1.0
C      1  0.5151450000000  0.4448060000000  0.5399410000000 1.0
C      1  0.4939890000000  0.5067640000000  0.5160650000000 1.0
C      1  0.5171940000000  0.5123760000000  0.4306670000000 1.0
C      1  0.5746540000000  0.4774630000000  0.5330760000000 1.0
C      1  0.5762300000000  0.5120650000000  0.4667200000000 1.0
C      1  0.5442930000000  0.5566410000000  0.4959420000000 1.0
C      1  0.4410030000000  0.5000390000000  0.4432260000000 1.0
C      1  0.4672550000000  0.4299550000000  0.5701550000000 1.0
C      1  0.5165720000000  0.4373330000000  0.4657620000000 1.0
C      1  0.4897880000000  0.4329170000000  0.5325540000000 1.0
C      1  0.4865190000000  0.5051960000000  0.4297020000000 1.0
C      1  0.5212460000000  0.5818810000000  0.4326390000000 1.0
C      1  0.4640330000000  0.4514960000000  0.5568570000000 1.0
C      1  0.5653230000000  0.4245140000000  0.5237170000000 1.0
C      1  0.4894010000000  0.5481420000000  0.4757010000000 1.0
C      1  0.4750240000000  0.4797560000000  0.5133510000000 1.0
C      1  0.4734750000000  0.5215480000000  0.4693250000000 1.0
C      1  0.5349370000000  0.4370490000000  0.5179410000000 1.0
C      1  0.4272410000000  0.4543390000000  0.5030840000000 1.0
C      1  0.4602990000000  0.4468210000000  0.4562110000000 1.0
C      1  0.4602390000000  0.4768520000000  0.5412070000000 1.0
C      1  0.4664680000000  0.5507440000000  0.4431090000000 1.0
C      1  0.4996690000000  0.5553550000000  0.5043270000000 1.0
C      1  0.5400550000000  0.5216790000000  0.5634440000000 1.0
C      1  0.5800040000000  0.5177550000000  0.4985450000000 1.0
C      1  0.5657350000000  0.4804760000000  0.5647260000000 1.0
C      1  0.5911090000000  0.4981080000000  0.5532470000000 1.0
C      1  0.4835880000000  0.5090140000000  0.5735720000000 1.0
C      1  0.5349340000000  0.5399650000000  0.5195100000000 1.0
C      1  0.5538990000000  0.5303220000000  0.4816100000000 1.0
C      1  0.5134070000000  0.4958490000000  0.4670040000000 1.0
C      1  0.5374270000000  0.4908270000000  0.5680880000000 1.0
C      1  0.5212810000000  0.5381600000000  0.5768260000000 1.0
C      1  0.5023430000000  0.5892040000000  0.5067770000000 1.0
C      1  0.5284770000000  0.5128070000000  0.4832790000000 1.0
C      1  0.4727880000000  0.4715670000000  0.4846000000000 1.0
C      1  0.5662840000000  0.4519080000000  0.5077400000000 1.0
C      1  0.4162700000000  0.5053140000000  0.4832070000000 1.0
C      1  0.4280160000000  0.5105870000000  0.5139360000000 1.0
C      1  0.4652380000000  0.4595480000000  0.4323760000000 1.0
C      1  0.5760290000000  0.5132050000000  0.5275060000000 1.0
C      1  0.4643000000000  0.4879920000000  0.4303630000000 1.0
C      1  0.5167400000000  0.5194880000000  0.5086300000000 1.0
C      1  0.5203710000000  0.5720850000000  0.4833300000000 1.0
C      1  0.4409410000000  0.4634350000000  0.4767990000000 1.0
C      1  0.5709580000000  0.4587230000000  0.4808930000000 1.0
C      1  0.5424950000000  0.5024000000000  0.4337040000000 1.0
C      1  0.4892490000000  0.4255240000000  0.5049570000000 1.0
C      1  0.5692940000000  0.4473020000000  0.4337830000000 1.0
C      1  0.4312690000000  0.4915810000000  0.5384150000000 1.0
C      1  0.4943450000000  0.5339910000000  0.5814660000000 1.0
C      1  0.4952030000000  0.5373810000000  0.4376970000000 1.0
C      1  0.4777690000000  0.5721220000000  0.5219870000000 1.0
C      1  0.5695270000000  0.4658770000000  0.4536730000000 1.0
C      1  0.4847010000000  0.4418400000000  0.4767490000000 1.0
C      1  0.5174760000000  0.4659910000000  0.5562560000000 1.0
C      1  0.4529380000000  0.5582940000000  0.5224740000000 1.0
C      1  0.4210560000000  0.5354180000000  0.4939870000000 1.0
C      1  0.5524700000000  0.5290360000000  0.5391720000000 1.0
C      1  0.5655650000000  0.4938240000000  0.4479650000000 1.0
C      1  0.4526330000000  0.5334650000000  0.5373190000000 1.0
C      1  0.4236290000000  0.4635380000000  0.5259990000000 1.0
C      1  0.4267620000000  0.4873160000000  0.4645070000000 1.0
C      1  0.4585950000000  0.5064920000000  0.5573010000000 1.0
C      1  0.5178120000000  0.4283040000000  0.4943220000000 1.0
C      1  0.4579660000000  0.5588000000000  0.4730350000000 1.0
C      1  0.4851640000000  0.4956340000000  0.4695530000000 1.0
C      1  0.4405600000000  0.5560240000000  0.4954540000000 1.0
C      1  0.4488630000000  0.5261920000000  0.4518260000000 1.0
C      1  0.4606120000000  0.5091430000000  0.5176740000000 1.0
C      1  0.5105540000000  0.5624620000000  0.4533010000000 1.0
END
