TITL C-2778424-3986-679 -6.95468220157322e-05 125000 -146.85832975906 0 0 28 (C1) n - 1
REM
REM in /home/nfs/bkarasulu/CARBON/AIRSS/Generating-Clusters/REBO/Only-C1/SD-CG/HFTN-CG
REM
REM
REM
REM
REM
REM ./C.cell (11c1c37f851c82e70ff6c80c92926a4b)
REM
REM compiler GCC version 9.2.1 20190827 (Red Hat 9.2.1-1)
REM options -cpp -mtune=generic -march=x86-64 -g -O0 -fpre-include=/usr/include/finclude/math-vector-fortran.h
REM seed 119435611 1347098267 1410445048 1603048650 99972739 1701872257 -225380679 -1737144995 1853202832 -1410137866 1404596454 250907923 896343751 1451397383 -748004942 594419336 -884336520 -156074166 163974357 -1146257733 -780083265 -1042378444 -752662457 299305405 285843744 662161139 -346481976 257249696 762895768 -1691200887 956805487 1351405512 1778005506
REM
CELL 1.54180   50.00000   50.00000   50.00000   90.00000   90.00000   90.00000
LATT -1
SFAC C  
C      1  0.5261740000000  0.5228530000000  0.4751440000000 1.0
C      1  0.4864250000000  0.5061850000000  0.5431370000000 1.0
C      1  0.4481300000000  0.4621740000000  0.4862290000000 1.0
C      1  0.4798280000000  0.5247140000000  0.4369150000000 1.0
C      1  0.5045670000000  0.5130240000000  0.4297030000000 1.0
C      1  0.5139590000000  0.4973660000000  0.5267190000000 1.0
C      1  0.5373960000000  0.5485010000000  0.4944710000000 1.0
C      1  0.5424940000000  0.5067850000000  0.5239530000000 1.0
C      1  0.4890230000000  0.4398540000000  0.4759110000000 1.0
C      1  0.5503360000000  0.5110860000000  0.4929930000000 1.0
C      1  0.4745580000000  0.4629400000000  0.4770360000000 1.0
C      1  0.4703830000000  0.5025290000000  0.5631430000000 1.0
C      1  0.4541530000000  0.4988300000000  0.5833840000000 1.0
C      1  0.4816690000000  0.5649290000000  0.5413820000000 1.0
C      1  0.4233870000000  0.4614580000000  0.4948350000000 1.0
C      1  0.5145520000000  0.4996200000000  0.4568910000000 1.0
C      1  0.5198500000000  0.4566750000000  0.4950510000000 1.0
C      1  0.4972000000000  0.5525600000000  0.5222920000000 1.0
C      1  0.5174150000000  0.5647180000000  0.5065250000000 1.0
C      1  0.4741580000000  0.5165370000000  0.4642560000000 1.0
C      1  0.5041660000000  0.4506980000000  0.5402810000000 1.0
C      1  0.4941880000000  0.5229120000000  0.5156990000000 1.0
C      1  0.5123150000000  0.4678110000000  0.5199250000000 1.0
C      1  0.5221890000000  0.4721780000000  0.4717000000000 1.0
C      1  0.4953020000000  0.5216820000000  0.4853970000000 1.0
C      1  0.5573320000000  0.5348100000000  0.5147500000000 1.0
C      1  0.5236700000000  0.4296540000000  0.4933830000000 1.0
C      1  0.4851830000000  0.4869180000000  0.4688950000000 1.0
END
