TITL C-2778428-5639-185 0.00151383895447978 125000 -1157.24013329393 0 0 197 (C1) n - 1
REM
REM in /home/nfs/bkarasulu/CARBON/AIRSS/Generating-Clusters/REBO/Only-C1/SD-CG/HFTN-CG
REM
REM
REM
REM
REM
REM ./C.cell (11c1c37f851c82e70ff6c80c92926a4b)
REM
REM compiler GCC version 9.2.1 20190827 (Red Hat 9.2.1-1)
REM options -cpp -mtune=generic -march=x86-64 -g -O0 -fpre-include=/usr/include/finclude/math-vector-fortran.h
REM seed -1598184251 -1603565095 719943577 141546360 140002453 591751812 -16985870 1647554746 -627787631 950298675 1621549275 -1968834400 -406163655 1262177186 -2050103759 715702897 -1066091698 -184020812 -497897394 149720961 -1651148787 305516466 29485493 2008967108 514397028 -1852860803 -703447532 -916080995 1479805726 -324218773 -1257592750 1672855389 -1568449795
REM
CELL 1.54180   50.00000   50.00000   50.00000   90.00000   90.00000   90.00000
LATT -1
SFAC C  
C      1  0.5366880000000  0.5416270000000  0.4897410000000 1.0
C      1  0.5517610000000  0.4964860000000  0.4263370000000 1.0
C      1  0.4507490000000  0.5556750000000  0.4320480000000 1.0
C      1  0.4815110000000  0.5365540000000  0.6067460000000 1.0
C      1  0.5913510000000  0.4787810000000  0.4447830000000 1.0
C      1  0.4703350000000  0.4781200000000  0.5532390000000 1.0
C      1  0.5239470000000  0.4240200000000  0.4187190000000 1.0
C      1  0.5419870000000  0.5494050000000  0.4583570000000 1.0
C      1  0.5624160000000  0.6029820000000  0.4790890000000 1.0
C      1  0.5354890000000  0.4659910000000  0.4682060000000 1.0
C      1  0.5845610000000  0.4514090000000  0.4520210000000 1.0
C      1  0.4689080000000  0.3870790000000  0.4840790000000 1.0
C      1  0.5347480000000  0.5531360000000  0.5871420000000 1.0
C      1  0.4838100000000  0.3784100000000  0.5196260000000 1.0
C      1  0.5528000000000  0.5047340000000  0.5165690000000 1.0
C      1  0.4988620000000  0.4350960000000  0.4472450000000 1.0
C      1  0.5455160000000  0.5240700000000  0.5410990000000 1.0
C      1  0.5915020000000  0.4642340000000  0.5326580000000 1.0
C      1  0.4431150000000  0.5794180000000  0.5679830000000 1.0
C      1  0.4406890000000  0.5077310000000  0.4532650000000 1.0
C      1  0.3890330000000  0.4864410000000  0.4542070000000 1.0
C      1  0.5232700000000  0.4796830000000  0.4945650000000 1.0
C      1  0.4015820000000  0.5233230000000  0.4620450000000 1.0
C      1  0.6254310000000  0.5025990000000  0.5102140000000 1.0
C      1  0.4604950000000  0.5908610000000  0.4628790000000 1.0
C      1  0.5014290000000  0.5859880000000  0.4379240000000 1.0
C      1  0.4284860000000  0.5298720000000  0.4336800000000 1.0
C      1  0.4357710000000  0.5319830000000  0.5046040000000 1.0
C      1  0.4587400000000  0.3976560000000  0.5125330000000 1.0
C      1  0.5332450000000  0.4612390000000  0.5221710000000 1.0
C      1  0.5381860000000  0.4479850000000  0.5533760000000 1.0
C      1  0.4587860000000  0.5713590000000  0.5938960000000 1.0
C      1  0.4061910000000  0.5056340000000  0.4332360000000 1.0
C      1  0.4440840000000  0.4288890000000  0.4890510000000 1.0
C      1  0.4409950000000  0.4078770000000  0.5356880000000 1.0
C      1  0.5526710000000  0.5619450000000  0.5054150000000 1.0
C      1  0.3864260000000  0.5076930000000  0.5061840000000 1.0
C      1  0.4674470000000  0.6009400000000  0.4923570000000 1.0
C      1  0.5455730000000  0.5455640000000  0.4104320000000 1.0
C      1  0.5829670000000  0.5735040000000  0.5286170000000 1.0
C      1  0.5200250000000  0.5015530000000  0.5391710000000 1.0
C      1  0.4260030000000  0.4837670000000  0.4217410000000 1.0
C      1  0.5933990000000  0.5453630000000  0.5266430000000 1.0
C      1  0.5600080000000  0.5908880000000  0.4544950000000 1.0
C      1  0.5151670000000  0.4082410000000  0.4476330000000 1.0
C      1  0.5259640000000  0.5682790000000  0.4217100000000 1.0
C      1  0.4881050000000  0.4273910000000  0.5848670000000 1.0
C      1  0.4885300000000  0.5777330000000  0.5895760000000 1.0
C      1  0.5980550000000  0.5292250000000  0.5523640000000 1.0
C      1  0.5053530000000  0.5502400000000  0.5283940000000 1.0
C      1  0.5646600000000  0.4749950000000  0.5208530000000 1.0
C      1  0.5394980000000  0.5234370000000  0.4431440000000 1.0
C      1  0.5800220000000  0.4967460000000  0.4258590000000 1.0
C      1  0.4982880000000  0.3794660000000  0.4887900000000 1.0
C      1  0.5384090000000  0.4708010000000  0.4189400000000 1.0
C      1  0.6207480000000  0.5136530000000  0.4842590000000 1.0
C      1  0.4886460000000  0.4918620000000  0.5303700000000 1.0
C      1  0.5888490000000  0.4302910000000  0.5300320000000 1.0
C      1  0.4187530000000  0.5024960000000  0.5861030000000 1.0
C      1  0.4631360000000  0.4054930000000  0.4628760000000 1.0
C      1  0.4549060000000  0.5119060000000  0.6226750000000 1.0
C      1  0.4877710000000  0.4372450000000  0.5459690000000 1.0
C      1  0.5995100000000  0.4409430000000  0.4759950000000 1.0
C      1  0.4234350000000  0.5709610000000  0.4808950000000 1.0
C      1  0.4950090000000  0.5664610000000  0.4936870000000 1.0
C      1  0.5997870000000  0.4947730000000  0.4697270000000 1.0
C      1  0.4944670000000  0.3842530000000  0.5461560000000 1.0
C      1  0.4974100000000  0.5010530000000  0.5902920000000 1.0
C      1  0.4079450000000  0.5345280000000  0.4859910000000 1.0
C      1  0.4487550000000  0.4843620000000  0.5006260000000 1.0
C      1  0.4451820000000  0.5573080000000  0.5205450000000 1.0
C      1  0.4583060000000  0.5373750000000  0.4085890000000 1.0
C      1  0.4626080000000  0.5868400000000  0.5411300000000 1.0
C      1  0.5170600000000  0.4588460000000  0.4431330000000 1.0
C      1  0.5036580000000  0.5022110000000  0.4852290000000 1.0
C      1  0.5213800000000  0.3923690000000  0.5394800000000 1.0
C      1  0.5464250000000  0.3989720000000  0.4957550000000 1.0
C      1  0.4919430000000  0.4714640000000  0.5757640000000 1.0
C      1  0.4824700000000  0.4011130000000  0.5666320000000 1.0
C      1  0.5793150000000  0.4422740000000  0.5016480000000 1.0
C      1  0.5309140000000  0.5279300000000  0.3889500000000 1.0
C      1  0.4978040000000  0.5395520000000  0.5835680000000 1.0
C      1  0.4928910000000  0.5377640000000  0.5531830000000 1.0
C      1  0.4123610000000  0.4295780000000  0.5018820000000 1.0
C      1  0.5325510000000  0.4088960000000  0.5594320000000 1.0
C      1  0.5180930000000  0.5705840000000  0.4703540000000 1.0
C      1  0.4657120000000  0.5516130000000  0.3859800000000 1.0
C      1  0.4682270000000  0.5032730000000  0.5749470000000 1.0
C      1  0.4932740000000  0.5569390000000  0.3898580000000 1.0
C      1  0.4232880000000  0.5577940000000  0.4508260000000 1.0
C      1  0.5022730000000  0.4832390000000  0.6181540000000 1.0
C      1  0.4394820000000  0.4429960000000  0.5663460000000 1.0
C      1  0.5110420000000  0.6016380000000  0.4691760000000 1.0
C      1  0.4162430000000  0.4220140000000  0.5311770000000 1.0
C      1  0.4024130000000  0.4693780000000  0.5476800000000 1.0
C      1  0.4206590000000  0.4638780000000  0.5204800000000 1.0
C      1  0.5364200000000  0.4352160000000  0.4750880000000 1.0
C      1  0.5210910000000  0.4020720000000  0.5124890000000 1.0
C      1  0.3999750000000  0.4587900000000  0.4970920000000 1.0
C      1  0.4880850000000  0.5128870000000  0.6269870000000 1.0
C      1  0.5342640000000  0.5932090000000  0.4417680000000 1.0
C      1  0.5432970000000  0.4976270000000  0.4650080000000 1.0
C      1  0.5615880000000  0.4889650000000  0.4894170000000 1.0
C      1  0.5471580000000  0.4409300000000  0.4242540000000 1.0
C      1  0.4760860000000  0.4302820000000  0.4796850000000 1.0
C      1  0.4691460000000  0.5167370000000  0.5439480000000 1.0
C      1  0.4917040000000  0.5802180000000  0.5248330000000 1.0
C      1  0.4868420000000  0.5012280000000  0.3890690000000 1.0
C      1  0.5686920000000  0.4063830000000  0.5148780000000 1.0
C      1  0.5158950000000  0.5731300000000  0.5954390000000 1.0
C      1  0.5146890000000  0.5474150000000  0.3740450000000 1.0
C      1  0.5491750000000  0.4688430000000  0.5733240000000 1.0
C      1  0.4883080000000  0.5343040000000  0.5034550000000 1.0
C      1  0.5369170000000  0.6015420000000  0.5273200000000 1.0
C      1  0.4220270000000  0.5789990000000  0.5105660000000 1.0
C      1  0.5532350000000  0.5936250000000  0.5039380000000 1.0
C      1  0.6249440000000  0.5177810000000  0.5340020000000 1.0
C      1  0.5091010000000  0.4486760000000  0.4927700000000 1.0
C      1  0.3849160000000  0.5419880000000  0.5082880000000 1.0
C      1  0.5357580000000  0.5507220000000  0.5312750000000 1.0
C      1  0.3965400000000  0.5690660000000  0.5238600000000 1.0
C      1  0.4388060000000  0.4980550000000  0.5303070000000 1.0
C      1  0.5867010000000  0.5310420000000  0.5034280000000 1.0
C      1  0.4793120000000  0.4524990000000  0.5978440000000 1.0
C      1  0.4733820000000  0.4420260000000  0.4363680000000 1.0
C      1  0.4703880000000  0.4290340000000  0.5191270000000 1.0
C      1  0.5555440000000  0.4306600000000  0.5350340000000 1.0
C      1  0.4172650000000  0.4147510000000  0.4728730000000 1.0
C      1  0.4035790000000  0.4752880000000  0.4745900000000 1.0
C      1  0.4351780000000  0.5466700000000  0.5734720000000 1.0
C      1  0.5242290000000  0.5222620000000  0.5904800000000 1.0
C      1  0.5878320000000  0.4706920000000  0.4869050000000 1.0
C      1  0.4506750000000  0.4529930000000  0.5105410000000 1.0
C      1  0.4737960000000  0.5729300000000  0.4443450000000 1.0
C      1  0.4116820000000  0.5284580000000  0.5658950000000 1.0
C      1  0.4996760000000  0.5503060000000  0.4204350000000 1.0
C      1  0.5271540000000  0.4760760000000  0.5983230000000 1.0
C      1  0.4126310000000  0.4414650000000  0.5525200000000 1.0
C      1  0.4458070000000  0.4981340000000  0.5953430000000 1.0
C      1  0.4593670000000  0.4217760000000  0.5569550000000 1.0
C      1  0.4620280000000  0.5672750000000  0.4950670000000 1.0
C      1  0.6153720000000  0.5016470000000  0.5592410000000 1.0
C      1  0.5963460000000  0.4798900000000  0.5601140000000 1.0
C      1  0.5163160000000  0.4917120000000  0.4447720000000 1.0
C      1  0.5541250000000  0.5536400000000  0.5666210000000 1.0
C      1  0.5480990000000  0.4381320000000  0.5027060000000 1.0
C      1  0.5703670000000  0.5448340000000  0.4242770000000 1.0
C      1  0.3982330000000  0.5393390000000  0.5402450000000 1.0
C      1  0.5691030000000  0.5241530000000  0.5625740000000 1.0
C      1  0.5820530000000  0.5212260000000  0.4785600000000 1.0
C      1  0.5211800000000  0.3924740000000  0.4738410000000 1.0
C      1  0.4614390000000  0.5156610000000  0.4995420000000 1.0
C      1  0.4385370000000  0.4153680000000  0.4518920000000 1.0
C      1  0.4335300000000  0.4665010000000  0.4429820000000 1.0
C      1  0.5236200000000  0.5168430000000  0.5085730000000 1.0
C      1  0.4668680000000  0.5215620000000  0.4666670000000 1.0
C      1  0.5102100000000  0.5201050000000  0.4278520000000 1.0
C      1  0.5207290000000  0.4821780000000  0.5643600000000 1.0
C      1  0.4152440000000  0.4961630000000  0.5550520000000 1.0
C      1  0.5586880000000  0.4389210000000  0.4496490000000 1.0
C      1  0.6166170000000  0.5410720000000  0.4759880000000 1.0
C      1  0.4667820000000  0.4809760000000  0.3845630000000 1.0
C      1  0.4886770000000  0.5432630000000  0.4518840000000 1.0
C      1  0.4854250000000  0.4892000000000  0.4315250000000 1.0
C      1  0.5253680000000  0.4740080000000  0.3916340000000 1.0
C      1  0.4968960000000  0.6097130000000  0.4932210000000 1.0
C      1  0.4821220000000  0.4630560000000  0.4168400000000 1.0
C      1  0.4126460000000  0.5165130000000  0.5211740000000 1.0
C      1  0.5132250000000  0.4334080000000  0.5651160000000 1.0
C      1  0.4472710000000  0.5970280000000  0.5171370000000 1.0
C      1  0.5845210000000  0.5703250000000  0.4968650000000 1.0
C      1  0.5100440000000  0.6051750000000  0.5200720000000 1.0
C      1  0.5075660000000  0.4473850000000  0.4002020000000 1.0
C      1  0.5724160000000  0.5620980000000  0.4514400000000 1.0
C      1  0.5711650000000  0.4916970000000  0.5725250000000 1.0
C      1  0.4550970000000  0.5477120000000  0.5471280000000 1.0
C      1  0.5071010000000  0.5329120000000  0.4760280000000 1.0
C      1  0.6159450000000  0.4756280000000  0.5147700000000 1.0
C      1  0.4782190000000  0.4529820000000  0.3844910000000 1.0
C      1  0.4835050000000  0.4607160000000  0.4736340000000 1.0
C      1  0.4338250000000  0.4825080000000  0.4718850000000 1.0
C      1  0.4801070000000  0.5668700000000  0.5605780000000 1.0
C      1  0.4456820000000  0.4408230000000  0.4406860000000 1.0
C      1  0.4493910000000  0.5505800000000  0.4716760000000 1.0
C      1  0.5160940000000  0.5003990000000  0.3864010000000 1.0
C      1  0.4415160000000  0.4840570000000  0.3980900000000 1.0
C      1  0.5942190000000  0.5589430000000  0.4732270000000 1.0
C      1  0.4494870000000  0.5400640000000  0.6036500000000 1.0
C      1  0.4980900000000  0.4186370000000  0.5021870000000 1.0
C      1  0.4821050000000  0.4905560000000  0.4648650000000 1.0
C      1  0.4990200000000  0.4599580000000  0.5244840000000 1.0
C      1  0.5547500000000  0.5766650000000  0.5423750000000 1.0
C      1  0.4788840000000  0.5165970000000  0.4149310000000 1.0
C      1  0.4423130000000  0.4679980000000  0.5466370000000 1.0
C      1  0.5890120000000  0.5234430000000  0.4209510000000 1.0
C      1  0.5476840000000  0.5025450000000  0.5937110000000 1.0
C      1  0.4685280000000  0.4808830000000  0.6135020000000 1.0
END
