TITL C-2778437-8639-1399 -0.00281613352548877 125000 -856.927547883836 0 0 146 (C1) n - 1
REM
REM in /home/nfs/bkarasulu/CARBON/AIRSS/Generating-Clusters/REBO/Only-C1/SD-CG/HFTN-CG
REM
REM
REM
REM
REM
REM ./C.cell (11c1c37f851c82e70ff6c80c92926a4b)
REM
REM compiler GCC version 9.2.1 20190827 (Red Hat 9.2.1-1)
REM options -cpp -mtune=generic -march=x86-64 -g -O0 -fpre-include=/usr/include/finclude/math-vector-fortran.h
REM seed 1675646332 -1913564179 1467171483 693859553 539174 1248206231 1860024941 1999166141 -108525002 45207486 2122234025 2080619878 762960661 755399689 1554178530 2135243680 1894695945 -626542106 574907924 -1458186296 -980125464 1376500742 1964152410 -20138373 280651430 1067632118 -75908646 -1161129703 -846759866 -2128718051 -274890317 -1068012705 1806412254
REM
CELL 1.54180   50.00000   50.00000   50.00000   90.00000   90.00000   90.00000
LATT -1
SFAC C  
C      1  0.4952680000000  0.5150160000000  0.5995100000000 1.0
C      1  0.4801540000000  0.3935460000000  0.4926520000000 1.0
C      1  0.5631830000000  0.4968260000000  0.5760970000000 1.0
C      1  0.5172120000000  0.5646320000000  0.4311180000000 1.0
C      1  0.5454710000000  0.5827900000000  0.4377700000000 1.0
C      1  0.4559370000000  0.5114360000000  0.5366100000000 1.0
C      1  0.5341080000000  0.4118050000000  0.5376190000000 1.0
C      1  0.5241410000000  0.4681200000000  0.5286040000000 1.0
C      1  0.4886090000000  0.5243410000000  0.4825020000000 1.0
C      1  0.4655000000000  0.5516920000000  0.4275690000000 1.0
C      1  0.4187080000000  0.4751680000000  0.5258110000000 1.0
C      1  0.4890900000000  0.5954060000000  0.5138350000000 1.0
C      1  0.4476180000000  0.4751710000000  0.4319020000000 1.0
C      1  0.4746820000000  0.4709040000000  0.5352070000000 1.0
C      1  0.4558560000000  0.4855370000000  0.5845420000000 1.0
C      1  0.3989810000000  0.4943460000000  0.4983370000000 1.0
C      1  0.4877390000000  0.4753020000000  0.4130330000000 1.0
C      1  0.5293790000000  0.5179380000000  0.3963590000000 1.0
C      1  0.5796560000000  0.5516330000000  0.4654920000000 1.0
C      1  0.4294830000000  0.4847820000000  0.5693080000000 1.0
C      1  0.4612560000000  0.4326930000000  0.5717320000000 1.0
C      1  0.5158010000000  0.5900860000000  0.5235510000000 1.0
C      1  0.4657320000000  0.5139490000000  0.5960850000000 1.0
C      1  0.4233990000000  0.5776420000000  0.5074380000000 1.0
C      1  0.5678320000000  0.5322030000000  0.4831120000000 1.0
C      1  0.4810800000000  0.5450430000000  0.5086590000000 1.0
C      1  0.5362890000000  0.5312490000000  0.4792030000000 1.0
C      1  0.4391020000000  0.4554190000000  0.4757010000000 1.0
C      1  0.5120740000000  0.5014410000000  0.4718590000000 1.0
C      1  0.5122780000000  0.4842150000000  0.4327330000000 1.0
C      1  0.5201560000000  0.6133640000000  0.4635200000000 1.0
C      1  0.5595490000000  0.4881510000000  0.4216500000000 1.0
C      1  0.5838970000000  0.4759200000000  0.5088080000000 1.0
C      1  0.4274660000000  0.4837480000000  0.4828090000000 1.0
C      1  0.4231020000000  0.4625050000000  0.5518130000000 1.0
C      1  0.4968740000000  0.4554690000000  0.5919190000000 1.0
C      1  0.5040560000000  0.5153750000000  0.5218850000000 1.0
C      1  0.4980800000000  0.5986720000000  0.4581560000000 1.0
C      1  0.5081470000000  0.5391420000000  0.4605670000000 1.0
C      1  0.4690120000000  0.4564390000000  0.5870320000000 1.0
C      1  0.3977240000000  0.5084310000000  0.4728270000000 1.0
C      1  0.5340470000000  0.4712930000000  0.5612090000000 1.0
C      1  0.4890200000000  0.4237270000000  0.4076510000000 1.0
C      1  0.4869840000000  0.4164250000000  0.5626230000000 1.0
C      1  0.5586180000000  0.4637430000000  0.4349020000000 1.0
C      1  0.5642770000000  0.5117070000000  0.4420120000000 1.0
C      1  0.5754560000000  0.4700230000000  0.5684540000000 1.0
C      1  0.5346350000000  0.5592510000000  0.5065670000000 1.0
C      1  0.4567290000000  0.5197820000000  0.4200680000000 1.0
C      1  0.4906660000000  0.5056330000000  0.4472630000000 1.0
C      1  0.5633140000000  0.5775040000000  0.5065210000000 1.0
C      1  0.4587630000000  0.4137410000000  0.4659190000000 1.0
C      1  0.5001160000000  0.4547080000000  0.4692080000000 1.0
C      1  0.5114280000000  0.4767040000000  0.4897210000000 1.0
C      1  0.4118060000000  0.5360880000000  0.5250060000000 1.0
C      1  0.5748260000000  0.5545310000000  0.5252130000000 1.0
C      1  0.5302580000000  0.5103840000000  0.4441470000000 1.0
C      1  0.4777750000000  0.5049960000000  0.4075640000000 1.0
C      1  0.5753300000000  0.4431250000000  0.5014760000000 1.0
C      1  0.4143890000000  0.5510890000000  0.5012170000000 1.0
C      1  0.4737570000000  0.4184890000000  0.4362240000000 1.0
C      1  0.5332820000000  0.4385020000000  0.5705270000000 1.0
C      1  0.5791170000000  0.5771080000000  0.4789090000000 1.0
C      1  0.4207620000000  0.5504980000000  0.4532180000000 1.0
C      1  0.4807830000000  0.5914310000000  0.4844970000000 1.0
C      1  0.4362590000000  0.4362120000000  0.4984640000000 1.0
C      1  0.5358830000000  0.4080260000000  0.5058120000000 1.0
C      1  0.5743700000000  0.5408300000000  0.4396130000000 1.0
C      1  0.4332790000000  0.4512530000000  0.4462650000000 1.0
C      1  0.5210240000000  0.4602970000000  0.4475070000000 1.0
C      1  0.5880910000000  0.5035620000000  0.5217510000000 1.0
C      1  0.4307440000000  0.5449470000000  0.5425840000000 1.0
C      1  0.5165870000000  0.4756330000000  0.5912600000000 1.0
C      1  0.5111640000000  0.5488510000000  0.5192440000000 1.0
C      1  0.4896440000000  0.5748860000000  0.4352370000000 1.0
C      1  0.5380690000000  0.4111180000000  0.4413060000000 1.0
C      1  0.5171080000000  0.4020660000000  0.5560300000000 1.0
C      1  0.4698520000000  0.4584230000000  0.4605480000000 1.0
C      1  0.4923770000000  0.5333890000000  0.4316630000000 1.0
C      1  0.4698070000000  0.4511850000000  0.4292780000000 1.0
C      1  0.5006650000000  0.5223900000000  0.4009550000000 1.0
C      1  0.5378660000000  0.5181620000000  0.5675950000000 1.0
C      1  0.5769500000000  0.4974940000000  0.4660890000000 1.0
C      1  0.4508420000000  0.4515210000000  0.5253470000000 1.0
C      1  0.4642110000000  0.5785140000000  0.4569480000000 1.0
C      1  0.5387500000000  0.5986680000000  0.5092120000000 1.0
C      1  0.4665200000000  0.4909220000000  0.4585870000000 1.0
C      1  0.5307370000000  0.4489520000000  0.4942360000000 1.0
C      1  0.4428180000000  0.4944940000000  0.5113060000000 1.0
C      1  0.4986190000000  0.4524980000000  0.5290010000000 1.0
C      1  0.5343360000000  0.5485440000000  0.5552650000000 1.0
C      1  0.4761800000000  0.4870210000000  0.5599250000000 1.0
C      1  0.5348230000000  0.5178950000000  0.5105440000000 1.0
C      1  0.5598440000000  0.4796220000000  0.5403120000000 1.0
C      1  0.5350350000000  0.6150610000000  0.4864190000000 1.0
C      1  0.5607590000000  0.4424050000000  0.5548510000000 1.0
C      1  0.5555250000000  0.5556110000000  0.4250550000000 1.0
C      1  0.5311930000000  0.5356950000000  0.4226750000000 1.0
C      1  0.4528170000000  0.5552170000000  0.5628600000000 1.0
C      1  0.5281980000000  0.5675470000000  0.5898670000000 1.0
C      1  0.4943170000000  0.4242180000000  0.5319090000000 1.0
C      1  0.4396650000000  0.5655610000000  0.4409130000000 1.0
C      1  0.4738640000000  0.5444640000000  0.5832350000000 1.0
C      1  0.4611500000000  0.5487690000000  0.5302830000000 1.0
C      1  0.4225700000000  0.5053550000000  0.4566290000000 1.0
C      1  0.5420040000000  0.4376480000000  0.4344530000000 1.0
C      1  0.5083310000000  0.4317150000000  0.5812310000000 1.0
C      1  0.5486830000000  0.4598710000000  0.4674740000000 1.0
C      1  0.4045270000000  0.5062430000000  0.5267000000000 1.0
C      1  0.5808310000000  0.4536940000000  0.5323550000000 1.0
C      1  0.4394630000000  0.4352350000000  0.5512910000000 1.0
C      1  0.4890840000000  0.3996200000000  0.4602510000000 1.0
C      1  0.4921760000000  0.4878180000000  0.5114540000000 1.0
C      1  0.4286020000000  0.5057970000000  0.5494830000000 1.0
C      1  0.4382620000000  0.5037220000000  0.4336680000000 1.0
C      1  0.4341380000000  0.4156190000000  0.5256620000000 1.0
C      1  0.4940200000000  0.4465440000000  0.3979200000000 1.0
C      1  0.4796510000000  0.4272800000000  0.4893060000000 1.0
C      1  0.4665720000000  0.4846960000000  0.4905150000000 1.0
C      1  0.5547200000000  0.5639860000000  0.5755460000000 1.0
C      1  0.4875220000000  0.5151990000000  0.5493360000000 1.0
C      1  0.5475420000000  0.4962670000000  0.3971390000000 1.0
C      1  0.5108760000000  0.4263150000000  0.4805310000000 1.0
C      1  0.4820760000000  0.5690600000000  0.5575320000000 1.0
C      1  0.5362740000000  0.4965070000000  0.5919910000000 1.0
C      1  0.5104210000000  0.5658650000000  0.5464450000000 1.0
C      1  0.5432680000000  0.4420590000000  0.5252510000000 1.0
C      1  0.5805780000000  0.5288690000000  0.5074130000000 1.0
C      1  0.4553770000000  0.5322300000000  0.4809650000000 1.0
C      1  0.5777350000000  0.5197440000000  0.5459460000000 1.0
C      1  0.4718090000000  0.4536890000000  0.4997610000000 1.0
C      1  0.5635920000000  0.4802820000000  0.4846380000000 1.0
C      1  0.5197650000000  0.4044030000000  0.4597560000000 1.0
C      1  0.4429300000000  0.5870590000000  0.5240540000000 1.0
C      1  0.4480090000000  0.4042330000000  0.4967750000000 1.0
C      1  0.4272620000000  0.5385490000000  0.4783540000000 1.0
C      1  0.5753450000000  0.5501530000000  0.5586960000000 1.0
C      1  0.4717200000000  0.5604450000000  0.4825800000000 1.0
C      1  0.5596980000000  0.4214920000000  0.4952190000000 1.0
C      1  0.4694520000000  0.5877380000000  0.5332560000000 1.0
C      1  0.5500100000000  0.5334100000000  0.5327930000000 1.0
C      1  0.5455420000000  0.4887260000000  0.5116820000000 1.0
C      1  0.5036150000000  0.4046320000000  0.5129190000000 1.0
C      1  0.5345750000000  0.5593530000000  0.4601100000000 1.0
C      1  0.5049740000000  0.5540960000000  0.5864800000000 1.0
C      1  0.5066370000000  0.5248310000000  0.5714310000000 1.0
END
