TITL C-2778422-5617-1358 0.00376887633825939 125000 -992.091002031472 0 0 174 (C1) n - 1
REM
REM in /home/nfs/bkarasulu/CARBON/AIRSS/Generating-Clusters/REBO/Only-C1/SD-CG/HFTN-CG
REM
REM
REM
REM
REM
REM ./C.cell (11c1c37f851c82e70ff6c80c92926a4b)
REM
REM compiler GCC version 9.2.1 20190827 (Red Hat 9.2.1-1)
REM options -cpp -mtune=generic -march=x86-64 -g -O0 -fpre-include=/usr/include/finclude/math-vector-fortran.h
REM seed -489674578 -1478224427 -719564174 -650931357 1552990166 585618366 219694366 24158977 -200231668 -1029087929 2014084563 735647068 1522909977 -1626212820 610457289 1260420246 -649091943 807561845 912743027 -1683529306 -1079264475 2087627333 -1435320102 1636071118 -824870007 -410831137 276974719 1156839507 663166329 -442035678 -1478040375 183683447 1908312024
REM
CELL 1.54180   50.00000   50.00000   50.00000   90.00000   90.00000   90.00000
LATT -1
SFAC C  
C      1  0.4108520000000  0.4646670000000  0.5173630000000 1.0
C      1  0.5270560000000  0.5533080000000  0.4453650000000 1.0
C      1  0.5590390000000  0.5381600000000  0.5262630000000 1.0
C      1  0.6095050000000  0.5240200000000  0.4835730000000 1.0
C      1  0.3903940000000  0.4935870000000  0.4856680000000 1.0
C      1  0.4572750000000  0.5292900000000  0.4065980000000 1.0
C      1  0.4950310000000  0.5509040000000  0.4341690000000 1.0
C      1  0.4344730000000  0.4096640000000  0.5136720000000 1.0
C      1  0.4904010000000  0.4749080000000  0.4682770000000 1.0
C      1  0.5026140000000  0.5209990000000  0.3909180000000 1.0
C      1  0.4631590000000  0.4465350000000  0.5186050000000 1.0
C      1  0.4839460000000  0.4781470000000  0.5606170000000 1.0
C      1  0.4534270000000  0.5345410000000  0.5089740000000 1.0
C      1  0.4536300000000  0.5900120000000  0.5352030000000 1.0
C      1  0.4155560000000  0.4992730000000  0.4693890000000 1.0
C      1  0.5888000000000  0.4600480000000  0.5537140000000 1.0
C      1  0.4152140000000  0.5608670000000  0.5530470000000 1.0
C      1  0.4685390000000  0.5548630000000  0.4660770000000 1.0
C      1  0.5756960000000  0.5648880000000  0.5508150000000 1.0
C      1  0.4495230000000  0.5082430000000  0.4755200000000 1.0
C      1  0.4564980000000  0.5150130000000  0.4453970000000 1.0
C      1  0.5912050000000  0.4394650000000  0.5326850000000 1.0
C      1  0.4931770000000  0.4592140000000  0.4954310000000 1.0
C      1  0.5138090000000  0.5216770000000  0.4973200000000 1.0
C      1  0.5146060000000  0.5971610000000  0.5377340000000 1.0
C      1  0.5523120000000  0.5667560000000  0.4648320000000 1.0
C      1  0.4545550000000  0.4954360000000  0.4063180000000 1.0
C      1  0.4880660000000  0.5814870000000  0.4385840000000 1.0
C      1  0.4888950000000  0.4004570000000  0.5307700000000 1.0
C      1  0.5284820000000  0.5485180000000  0.5285290000000 1.0
C      1  0.6027280000000  0.4996930000000  0.5334640000000 1.0
C      1  0.4117800000000  0.5419070000000  0.5186050000000 1.0
C      1  0.5838220000000  0.5401580000000  0.5574920000000 1.0
C      1  0.5635970000000  0.5675590000000  0.5128180000000 1.0
C      1  0.5304370000000  0.5224560000000  0.5615200000000 1.0
C      1  0.5468500000000  0.5552540000000  0.4193830000000 1.0
C      1  0.5209120000000  0.4394780000000  0.4190640000000 1.0
C      1  0.5424170000000  0.4316580000000  0.5597050000000 1.0
C      1  0.4339100000000  0.5018880000000  0.5952330000000 1.0
C      1  0.5780300000000  0.4547810000000  0.4516780000000 1.0
C      1  0.4883750000000  0.3747660000000  0.5001670000000 1.0
C      1  0.5478520000000  0.4010280000000  0.5298840000000 1.0
C      1  0.4800850000000  0.4674930000000  0.4376590000000 1.0
C      1  0.5466960000000  0.5416280000000  0.4875300000000 1.0
C      1  0.4009580000000  0.5042290000000  0.5548830000000 1.0
C      1  0.5022030000000  0.5057870000000  0.5522090000000 1.0
C      1  0.5246190000000  0.5761330000000  0.5127450000000 1.0
C      1  0.4795700000000  0.5199090000000  0.4945600000000 1.0
C      1  0.5068450000000  0.3977590000000  0.5642240000000 1.0
C      1  0.4288760000000  0.5143470000000  0.4302140000000 1.0
C      1  0.4301230000000  0.4822950000000  0.4268860000000 1.0
C      1  0.4638110000000  0.5954340000000  0.5097980000000 1.0
C      1  0.5161500000000  0.4268980000000  0.5751950000000 1.0
C      1  0.6031700000000  0.4498070000000  0.5021740000000 1.0
C      1  0.4821080000000  0.5268280000000  0.5402110000000 1.0
C      1  0.5422130000000  0.4197390000000  0.4358460000000 1.0
C      1  0.5524530000000  0.4840650000000  0.4888040000000 1.0
C      1  0.4440770000000  0.4238180000000  0.4508060000000 1.0
C      1  0.4884550000000  0.4938610000000  0.4035900000000 1.0
C      1  0.5300170000000  0.5136000000000  0.4659740000000 1.0
C      1  0.3936950000000  0.5454840000000  0.4702230000000 1.0
C      1  0.5014670000000  0.4062520000000  0.5011360000000 1.0
C      1  0.4804210000000  0.5101560000000  0.4329290000000 1.0
C      1  0.4812040000000  0.4312750000000  0.4940670000000 1.0
C      1  0.4725910000000  0.5811880000000  0.5536890000000 1.0
C      1  0.4428570000000  0.4620850000000  0.5410120000000 1.0
C      1  0.5654360000000  0.4137580000000  0.4475950000000 1.0
C      1  0.5109280000000  0.5146070000000  0.4292970000000 1.0
C      1  0.4672350000000  0.5393420000000  0.5638660000000 1.0
C      1  0.4391680000000  0.4706750000000  0.4837440000000 1.0
C      1  0.5984230000000  0.4491820000000  0.4693210000000 1.0
C      1  0.4598490000000  0.4785420000000  0.4611210000000 1.0
C      1  0.4894250000000  0.4902740000000  0.5051860000000 1.0
C      1  0.5431520000000  0.4909080000000  0.5268510000000 1.0
C      1  0.5351250000000  0.4369610000000  0.4792700000000 1.0
C      1  0.5214790000000  0.4811320000000  0.5473010000000 1.0
C      1  0.4444820000000  0.4951150000000  0.5049600000000 1.0
C      1  0.5268280000000  0.5733820000000  0.5857010000000 1.0
C      1  0.5468540000000  0.3891480000000  0.4905290000000 1.0
C      1  0.5761220000000  0.4713070000000  0.4273190000000 1.0
C      1  0.3883300000000  0.4682640000000  0.4960710000000 1.0
C      1  0.5926720000000  0.5098720000000  0.4633380000000 1.0
C      1  0.4501180000000  0.5575930000000  0.4470120000000 1.0
C      1  0.4265050000000  0.5841110000000  0.5419970000000 1.0
C      1  0.4519600000000  0.5918430000000  0.4812850000000 1.0
C      1  0.3994810000000  0.5310350000000  0.5483570000000 1.0
C      1  0.5486100000000  0.4899790000000  0.4497090000000 1.0
C      1  0.5175150000000  0.4244250000000  0.4557780000000 1.0
C      1  0.3864800000000  0.5424800000000  0.4975970000000 1.0
C      1  0.5766120000000  0.5020360000000  0.4889570000000 1.0
C      1  0.4610780000000  0.4336340000000  0.4299810000000 1.0
C      1  0.4949130000000  0.5473760000000  0.5208690000000 1.0
C      1  0.4855520000000  0.5880540000000  0.4841400000000 1.0
C      1  0.4382390000000  0.5440220000000  0.4249640000000 1.0
C      1  0.4193510000000  0.4419780000000  0.5489630000000 1.0
C      1  0.5297480000000  0.4766470000000  0.5777200000000 1.0
C      1  0.5178270000000  0.5594230000000  0.4834750000000 1.0
C      1  0.5507530000000  0.5805280000000  0.5383100000000 1.0
C      1  0.5784540000000  0.4145910000000  0.4713260000000 1.0
C      1  0.5272200000000  0.6129360000000  0.4748080000000 1.0
C      1  0.4979230000000  0.5701220000000  0.5419500000000 1.0
C      1  0.5640310000000  0.4681970000000  0.5234800000000 1.0
C      1  0.4218690000000  0.4179680000000  0.5364860000000 1.0
C      1  0.4693080000000  0.5196590000000  0.5903030000000 1.0
C      1  0.4839420000000  0.5397340000000  0.4065490000000 1.0
C      1  0.5607740000000  0.5826360000000  0.4895040000000 1.0
C      1  0.5507570000000  0.6090820000000  0.4885400000000 1.0
C      1  0.5100380000000  0.4977760000000  0.5971600000000 1.0
C      1  0.5233970000000  0.5346940000000  0.4101760000000 1.0
C      1  0.6021080000000  0.5160570000000  0.5566170000000 1.0
C      1  0.5515170000000  0.4606710000000  0.4665620000000 1.0
C      1  0.4483230000000  0.4912910000000  0.5483420000000 1.0
C      1  0.5596240000000  0.5236850000000  0.4229820000000 1.0
C      1  0.5759980000000  0.4851950000000  0.5594360000000 1.0
C      1  0.4211990000000  0.4716780000000  0.4542730000000 1.0
C      1  0.5052390000000  0.5959720000000  0.5713170000000 1.0
C      1  0.5624630000000  0.5155080000000  0.5515540000000 1.0
C      1  0.5419080000000  0.4649590000000  0.4105110000000 1.0
C      1  0.4872140000000  0.4169690000000  0.4655020000000 1.0
C      1  0.4139600000000  0.4987890000000  0.5175480000000 1.0
C      1  0.5227000000000  0.5228700000000  0.6007450000000 1.0
C      1  0.4705830000000  0.5977340000000  0.4282050000000 1.0
C      1  0.4241880000000  0.5237940000000  0.5872220000000 1.0
C      1  0.5791720000000  0.5013280000000  0.4397810000000 1.0
C      1  0.5133020000000  0.4613980000000  0.5217870000000 1.0
C      1  0.5713960000000  0.4153960000000  0.5240240000000 1.0
C      1  0.4101270000000  0.4750730000000  0.5494800000000 1.0
C      1  0.5431490000000  0.5163090000000  0.5102360000000 1.0
C      1  0.4633850000000  0.3965580000000  0.5084010000000 1.0
C      1  0.4925680000000  0.4735600000000  0.5912830000000 1.0
C      1  0.4352580000000  0.5202480000000  0.5343910000000 1.0
C      1  0.4339090000000  0.4486040000000  0.5045970000000 1.0
C      1  0.5394370000000  0.4563120000000  0.5043950000000 1.0
C      1  0.5205140000000  0.5531470000000  0.5603380000000 1.0
C      1  0.3862640000000  0.5140260000000  0.5064910000000 1.0
C      1  0.5964200000000  0.5149890000000  0.5092520000000 1.0
C      1  0.4917690000000  0.4294470000000  0.4341210000000 1.0
C      1  0.5378500000000  0.5955800000000  0.5623220000000 1.0
C      1  0.4865400000000  0.4538160000000  0.5406470000000 1.0
C      1  0.4908470000000  0.4259250000000  0.5532140000000 1.0
C      1  0.4315590000000  0.5749390000000  0.4789010000000 1.0
C      1  0.5132490000000  0.4507360000000  0.5923130000000 1.0
C      1  0.5344690000000  0.5835180000000  0.4353620000000 1.0
C      1  0.5532110000000  0.4454790000000  0.5430480000000 1.0
C      1  0.4177530000000  0.5296280000000  0.4641450000000 1.0
C      1  0.4545680000000  0.4631160000000  0.4177570000000 1.0
C      1  0.4591250000000  0.4914670000000  0.5787360000000 1.0
C      1  0.5924040000000  0.4760550000000  0.5174040000000 1.0
C      1  0.4755090000000  0.5588520000000  0.4987560000000 1.0
C      1  0.4360470000000  0.5384500000000  0.5622200000000 1.0
C      1  0.5005780000000  0.5034870000000  0.4661220000000 1.0
C      1  0.5220860000000  0.3922270000000  0.5363190000000 1.0
C      1  0.5844880000000  0.4226880000000  0.4973190000000 1.0
C      1  0.4510030000000  0.4052410000000  0.4776070000000 1.0
C      1  0.4973780000000  0.5378550000000  0.4656210000000 1.0
C      1  0.4252720000000  0.4246620000000  0.4858660000000 1.0
C      1  0.4693650000000  0.5007510000000  0.5275000000000 1.0
C      1  0.5560610000000  0.5285390000000  0.4568960000000 1.0
C      1  0.4822870000000  0.5507740000000  0.5923050000000 1.0
C      1  0.4773100000000  0.5806130000000  0.5832190000000 1.0
C      1  0.4777420000000  0.3870180000000  0.4723520000000 1.0
C      1  0.5505460000000  0.5182170000000  0.5893570000000 1.0
C      1  0.5197720000000  0.4886950000000  0.4934450000000 1.0
C      1  0.5568530000000  0.4901770000000  0.5819300000000 1.0
C      1  0.4193910000000  0.4406140000000  0.4578700000000 1.0
C      1  0.5257810000000  0.4889430000000  0.4288110000000 1.0
C      1  0.5974920000000  0.5586670000000  0.4321780000000 1.0
C      1  0.5590330000000  0.4931900000000  0.4074160000000 1.0
C      1  0.4287440000000  0.5461860000000  0.4894090000000 1.0
C      1  0.5119910000000  0.5861770000000  0.4623360000000 1.0
C      1  0.5036020000000  0.4676530000000  0.4185130000000 1.0
C      1  0.5117790000000  0.5486420000000  0.5990360000000 1.0
C      1  0.5290460000000  0.4085610000000  0.4905920000000 1.0
C      1  0.5765090000000  0.5534640000000  0.4460900000000 1.0
END
