TITL C-2778426-5645-416 -0.00229904213128897 125000 -313.868314767419 0 0 54 (C1) n - 1
REM
REM in /home/nfs/bkarasulu/CARBON/AIRSS/Generating-Clusters/REBO/Only-C1/SD-CG/HFTN-CG
REM
REM
REM
REM
REM
REM ./C.cell (11c1c37f851c82e70ff6c80c92926a4b)
REM
REM compiler GCC version 9.2.1 20190827 (Red Hat 9.2.1-1)
REM options -cpp -mtune=generic -march=x86-64 -g -O0 -fpre-include=/usr/include/finclude/math-vector-fortran.h
REM seed -1621128450 -1339038195 -1094130228 -1976279286 971515100 -1052242509 1521834238 189830518 565982682 -2092973533 -789272923 1326795240 1073149717 1652591928 -115980199 -1828970591 1940427135 -284702091 -1828779021 1941721290 -895066415 134876385 1379037449 963508199 730624675 -431986733 -890498993 116497376 1831721261 1763242313 2052131193 -267774212 -818368333
REM
CELL 1.54180   50.00000   50.00000   50.00000   90.00000   90.00000   90.00000
LATT -1
SFAC C  
C      1  0.5166820000000  0.4985310000000  0.4877040000000 1.0
C      1  0.5401320000000  0.4891430000000  0.4261460000000 1.0
C      1  0.4830950000000  0.4976400000000  0.4660680000000 1.0
C      1  0.5097980000000  0.5375220000000  0.5661800000000 1.0
C      1  0.4890410000000  0.4348220000000  0.4615120000000 1.0
C      1  0.5086240000000  0.4797260000000  0.4609770000000 1.0
C      1  0.4367030000000  0.5142060000000  0.5175930000000 1.0
C      1  0.5408410000000  0.4505190000000  0.5175830000000 1.0
C      1  0.5472040000000  0.4484680000000  0.5442400000000 1.0
C      1  0.4589700000000  0.5501490000000  0.5015040000000 1.0
C      1  0.5397570000000  0.4986720000000  0.5358340000000 1.0
C      1  0.5452430000000  0.5285420000000  0.5335040000000 1.0
C      1  0.5143190000000  0.4794230000000  0.4313530000000 1.0
C      1  0.4765010000000  0.4235490000000  0.5352350000000 1.0
C      1  0.6121940000000  0.5549410000000  0.4963960000000 1.0
C      1  0.4853810000000  0.5371700000000  0.5144420000000 1.0
C      1  0.5437920000000  0.5504550000000  0.4693120000000 1.0
C      1  0.4797400000000  0.5133160000000  0.5367120000000 1.0
C      1  0.5063880000000  0.5572630000000  0.5235010000000 1.0
C      1  0.4825800000000  0.4001690000000  0.5453960000000 1.0
C      1  0.4305150000000  0.4661800000000  0.5458370000000 1.0
C      1  0.5244070000000  0.5466560000000  0.5431380000000 1.0
C      1  0.5521130000000  0.5038550000000  0.4458570000000 1.0
C      1  0.5196040000000  0.5714640000000  0.4679680000000 1.0
C      1  0.4386490000000  0.5424780000000  0.4894020000000 1.0
C      1  0.4620490000000  0.4352440000000  0.4581420000000 1.0
C      1  0.4981210000000  0.5119190000000  0.5611610000000 1.0
C      1  0.5114950000000  0.5906480000000  0.4864160000000 1.0
C      1  0.4900040000000  0.4964420000000  0.5089170000000 1.0
C      1  0.4380410000000  0.4896450000000  0.5583570000000 1.0
C      1  0.5182630000000  0.4930800000000  0.5598490000000 1.0
C      1  0.4341900000000  0.4840320000000  0.4714620000000 1.0
C      1  0.5076830000000  0.4514040000000  0.4719780000000 1.0
C      1  0.5137640000000  0.4533860000000  0.5007710000000 1.0
C      1  0.4597540000000  0.4869110000000  0.4530610000000 1.0
C      1  0.4651730000000  0.4767460000000  0.4271630000000 1.0
C      1  0.4296220000000  0.5110460000000  0.4844410000000 1.0
C      1  0.5681540000000  0.5375760000000  0.5208050000000 1.0
C      1  0.4329540000000  0.4602320000000  0.4957430000000 1.0
C      1  0.5337020000000  0.4822930000000  0.5097770000000 1.0
C      1  0.4907050000000  0.4747520000000  0.4163940000000 1.0
C      1  0.5066310000000  0.5828660000000  0.5122170000000 1.0
C      1  0.4896470000000  0.4658670000000  0.5146700000000 1.0
C      1  0.4497870000000  0.5099780000000  0.5427350000000 1.0
C      1  0.5901740000000  0.5462590000000  0.5086000000000 1.0
C      1  0.4411290000000  0.4509910000000  0.4666910000000 1.0
C      1  0.5420800000000  0.4725790000000  0.5582010000000 1.0
C      1  0.6338630000000  0.5634850000000  0.4843850000000 1.0
C      1  0.4700210000000  0.4484710000000  0.5244040000000 1.0
C      1  0.4881620000000  0.5260370000000  0.4822990000000 1.0
C      1  0.4616420000000  0.5105750000000  0.4965500000000 1.0
C      1  0.5113080000000  0.5388560000000  0.4704970000000 1.0
C      1  0.5375420000000  0.5177200000000  0.4690550000000 1.0
C      1  0.4420700000000  0.4561020000000  0.5218630000000 1.0
END
