TITL C-2778426-5645-62 0.0034238937271963 125000 -642.484082113394 0 0 111 (C1) n - 1
REM
REM in /home/nfs/bkarasulu/CARBON/AIRSS/Generating-Clusters/REBO/Only-C1/SD-CG/HFTN-CG
REM
REM
REM
REM
REM
REM ./C.cell (11c1c37f851c82e70ff6c80c92926a4b)
REM
REM compiler GCC version 9.2.1 20190827 (Red Hat 9.2.1-1)
REM options -cpp -mtune=generic -march=x86-64 -g -O0 -fpre-include=/usr/include/finclude/math-vector-fortran.h
REM seed 237375495 -1575684124 329427207 47843252 805474403 -494337489 -210930689 -1824947511 180895970 -18502263 363497113 1380183060 831202863 -84044305 1875745529 555679 -1708147057 1917633027 -1478242086 -723381476 -2085476889 849372038 -503930382 -751256637 1317460734 1572266983 -497069050 185568059 -1587130361 -1682185244 1792911408 -1410850795 1934564952
REM
CELL 1.54180   50.00000   50.00000   50.00000   90.00000   90.00000   90.00000
LATT -1
SFAC C  
C      1  0.4849350000000  0.5189500000000  0.5760310000000 1.0
C      1  0.5912630000000  0.4991580000000  0.5290380000000 1.0
C      1  0.4959740000000  0.5805190000000  0.4450540000000 1.0
C      1  0.4096810000000  0.5162070000000  0.4677230000000 1.0
C      1  0.5362960000000  0.5295700000000  0.4252390000000 1.0
C      1  0.5300440000000  0.4984550000000  0.5734760000000 1.0
C      1  0.4333540000000  0.4981590000000  0.4585810000000 1.0
C      1  0.4781840000000  0.4646300000000  0.4528320000000 1.0
C      1  0.5659740000000  0.4567910000000  0.4708650000000 1.0
C      1  0.4991270000000  0.4761310000000  0.4305990000000 1.0
C      1  0.5590480000000  0.4375710000000  0.5159200000000 1.0
C      1  0.5295500000000  0.4986560000000  0.4840610000000 1.0
C      1  0.4729580000000  0.4667900000000  0.5669310000000 1.0
C      1  0.4679640000000  0.4784910000000  0.4170910000000 1.0
C      1  0.5276900000000  0.4608980000000  0.4333060000000 1.0
C      1  0.5695040000000  0.4624630000000  0.5616130000000 1.0
C      1  0.5655120000000  0.5179270000000  0.5160980000000 1.0
C      1  0.5056470000000  0.5435320000000  0.4192500000000 1.0
C      1  0.5183110000000  0.4336900000000  0.4464490000000 1.0
C      1  0.5144380000000  0.5018550000000  0.5271270000000 1.0
C      1  0.4231040000000  0.4678160000000  0.4629690000000 1.0
C      1  0.4778020000000  0.5004100000000  0.4798730000000 1.0
C      1  0.5094540000000  0.5117790000000  0.5570390000000 1.0
C      1  0.5435140000000  0.5330780000000  0.5457570000000 1.0
C      1  0.5953190000000  0.4755160000000  0.5071040000000 1.0
C      1  0.5389230000000  0.5398460000000  0.4562230000000 1.0
C      1  0.5408430000000  0.5677780000000  0.4911520000000 1.0
C      1  0.5133560000000  0.4327730000000  0.5600060000000 1.0
C      1  0.5914050000000  0.4642430000000  0.4807270000000 1.0
C      1  0.4357660000000  0.4982550000000  0.4919190000000 1.0
C      1  0.4645940000000  0.4964360000000  0.4519510000000 1.0
C      1  0.4202720000000  0.4618180000000  0.4967510000000 1.0
C      1  0.5111350000000  0.5102780000000  0.4140990000000 1.0
C      1  0.4805050000000  0.5846570000000  0.5348800000000 1.0
C      1  0.4991140000000  0.5605340000000  0.5308440000000 1.0
C      1  0.4060090000000  0.5232570000000  0.4996100000000 1.0
C      1  0.4784680000000  0.4535840000000  0.5103420000000 1.0
C      1  0.4976680000000  0.4526950000000  0.4753330000000 1.0
C      1  0.5827010000000  0.5429970000000  0.4884190000000 1.0
C      1  0.4494940000000  0.5314970000000  0.4408160000000 1.0
C      1  0.4970490000000  0.4177070000000  0.4384880000000 1.0
C      1  0.5160170000000  0.4932080000000  0.4535390000000 1.0
C      1  0.4091300000000  0.4845270000000  0.5418060000000 1.0
C      1  0.4689470000000  0.4945030000000  0.5764550000000 1.0
C      1  0.4144780000000  0.5004740000000  0.5625950000000 1.0
C      1  0.5386410000000  0.4863690000000  0.5129980000000 1.0
C      1  0.5597010000000  0.5104430000000  0.4390990000000 1.0
C      1  0.4647230000000  0.4992950000000  0.5298480000000 1.0
C      1  0.4281940000000  0.4610590000000  0.5303490000000 1.0
C      1  0.4912430000000  0.4837980000000  0.5196340000000 1.0
C      1  0.4672570000000  0.4263990000000  0.5370740000000 1.0
C      1  0.5666530000000  0.4966850000000  0.4694410000000 1.0
C      1  0.5041580000000  0.5282310000000  0.5079760000000 1.0
C      1  0.4868000000000  0.4231230000000  0.4860970000000 1.0
C      1  0.4501600000000  0.4156970000000  0.4742030000000 1.0
C      1  0.5002260000000  0.5487630000000  0.4584840000000 1.0
C      1  0.4771080000000  0.5916080000000  0.4702820000000 1.0
C      1  0.5738490000000  0.4899350000000  0.5535970000000 1.0
C      1  0.4848250000000  0.5841680000000  0.5008980000000 1.0
C      1  0.5243230000000  0.5650660000000  0.4383950000000 1.0
C      1  0.4606700000000  0.4247700000000  0.5054600000000 1.0
C      1  0.5461690000000  0.4766140000000  0.4553920000000 1.0
C      1  0.5973380000000  0.5279330000000  0.5116550000000 1.0
C      1  0.5674850000000  0.4911540000000  0.4981370000000 1.0
C      1  0.4088410000000  0.4909010000000  0.5100000000000 1.0
C      1  0.4290080000000  0.5413190000000  0.5177810000000 1.0
C      1  0.5087720000000  0.4448890000000  0.5129590000000 1.0
C      1  0.4641470000000  0.5613120000000  0.5071260000000 1.0
C      1  0.5424000000000  0.4332290000000  0.5642970000000 1.0
C      1  0.5507020000000  0.5645570000000  0.5488370000000 1.0
C      1  0.5348610000000  0.4572200000000  0.5160570000000 1.0
C      1  0.5687250000000  0.5727620000000  0.5281340000000 1.0
C      1  0.5659220000000  0.4363860000000  0.5436310000000 1.0
C      1  0.4770790000000  0.4108050000000  0.4576170000000 1.0
C      1  0.5376760000000  0.5310200000000  0.5137240000000 1.0
C      1  0.5759210000000  0.5272540000000  0.4643930000000 1.0
C      1  0.4506860000000  0.5426850000000  0.4691950000000 1.0
C      1  0.4224970000000  0.5492020000000  0.4849040000000 1.0
C      1  0.5527230000000  0.4379600000000  0.4861890000000 1.0
C      1  0.5007920000000  0.4568380000000  0.5720440000000 1.0
C      1  0.4545020000000  0.5543090000000  0.5365330000000 1.0
C      1  0.5380970000000  0.4910660000000  0.4209130000000 1.0
C      1  0.5014250000000  0.4811320000000  0.4886580000000 1.0
C      1  0.4745750000000  0.5438230000000  0.4260920000000 1.0
C      1  0.4790060000000  0.5100450000000  0.4245610000000 1.0
C      1  0.5036610000000  0.5209280000000  0.4573810000000 1.0
C      1  0.4735500000000  0.5668440000000  0.5607010000000 1.0
C      1  0.4886520000000  0.5303030000000  0.5379270000000 1.0
C      1  0.4571960000000  0.5243870000000  0.5480540000000 1.0
C      1  0.5180950000000  0.5654210000000  0.5123920000000 1.0
C      1  0.5239700000000  0.4729310000000  0.5835750000000 1.0
C      1  0.5089770000000  0.5702980000000  0.4812240000000 1.0
C      1  0.4741890000000  0.5320550000000  0.4919560000000 1.0
C      1  0.5668790000000  0.5650450000000  0.4999850000000 1.0
C      1  0.5218520000000  0.5530660000000  0.5628390000000 1.0
C      1  0.5535400000000  0.5082120000000  0.5605180000000 1.0
C      1  0.5112530000000  0.4128940000000  0.5043070000000 1.0
C      1  0.4351560000000  0.5172580000000  0.5678090000000 1.0
C      1  0.5247490000000  0.4316620000000  0.4787950000000 1.0
C      1  0.5394810000000  0.5290810000000  0.4813150000000 1.0
C      1  0.4419250000000  0.4448960000000  0.4766530000000 1.0
C      1  0.4655730000000  0.5664770000000  0.4503000000000 1.0
C      1  0.4545070000000  0.4501110000000  0.5495790000000 1.0
C      1  0.4469700000000  0.4632990000000  0.4391410000000 1.0
C      1  0.4992980000000  0.4221550000000  0.5352290000000 1.0
C      1  0.5481520000000  0.4563420000000  0.5842130000000 1.0
C      1  0.4500750000000  0.5183310000000  0.5092380000000 1.0
C      1  0.4399910000000  0.5718080000000  0.4943600000000 1.0
C      1  0.4561660000000  0.4741860000000  0.4844930000000 1.0
C      1  0.4943920000000  0.5493010000000  0.5724440000000 1.0
C      1  0.4533500000000  0.4727750000000  0.5169280000000 1.0
END
