TITL C-2778430-5657-906 0.394266681526945 125000 -661.109619814464 0 0 112 (C1) n - 1
REM
REM in /home/nfs/bkarasulu/CARBON/AIRSS/Generating-Clusters/REBO/Only-C1/SD-CG/HFTN-CG
REM
REM
REM
REM
REM
REM ./C.cell (11c1c37f851c82e70ff6c80c92926a4b)
REM
REM compiler GCC version 9.2.1 20190827 (Red Hat 9.2.1-1)
REM options -cpp -mtune=generic -march=x86-64 -g -O0 -fpre-include=/usr/include/finclude/math-vector-fortran.h
REM seed -1774158572 2050517379 -1418136984 -1047427626 -1719128677 -1745435380 1050866622 2099815553 168952465 -1011179194 -159570241 1034378300 -1953852281 -1216012147 1076109251 1831481145 1567519312 214096487 -884541380 1665995347 1897933653 1794444586 -1508645724 -1559697062 2143813030 1905807933 -1251549778 1686567840 1293520994 -2049551734 -624879352 1012173591 -317996241
REM
CELL 1.54180   50.00000   50.00000   50.00000   90.00000   90.00000   90.00000
LATT -1
SFAC C  
C      1  0.4616930000000  0.4663110000000  0.4292630000000 1.0
C      1  0.4745420000000  0.5210120000000  0.4275260000000 1.0
C      1  0.3983040000000  0.5006690000000  0.4806770000000 1.0
C      1  0.4896050000000  0.4813120000000  0.4761190000000 1.0
C      1  0.4384600000000  0.5150230000000  0.5055360000000 1.0
C      1  0.5845000000000  0.4304890000000  0.4597730000000 1.0
C      1  0.5103180000000  0.5175290000000  0.5234600000000 1.0
C      1  0.5743540000000  0.4780050000000  0.4512730000000 1.0
C      1  0.4639250000000  0.5491990000000  0.5343250000000 1.0
C      1  0.4715420000000  0.4954020000000  0.5454880000000 1.0
C      1  0.4213620000000  0.4937100000000  0.5481600000000 1.0
C      1  0.4703020000000  0.4505560000000  0.5427670000000 1.0
C      1  0.4915810000000  0.5432610000000  0.5789960000000 1.0
C      1  0.4452350000000  0.5003780000000  0.5614960000000 1.0
C      1  0.4155040000000  0.4745880000000  0.4712730000000 1.0
C      1  0.5402030000000  0.5929830000000  0.5081730000000 1.0
C      1  0.5501310000000  0.4796480000000  0.4937050000000 1.0
C      1  0.5613480000000  0.5081560000000  0.4421730000000 1.0
C      1  0.5188050000000  0.5429160000000  0.5682010000000 1.0
C      1  0.4565330000000  0.5044180000000  0.5899410000000 1.0
C      1  0.4469930000000  0.5759640000000  0.5229680000000 1.0
C      1  0.4902040000000  0.5981880000000  0.4894950000000 1.0
C      1  0.4318390000000  0.4999770000000  0.4556230000000 1.0
C      1  0.5231070000000  0.4374230000000  0.5653850000000 1.0
C      1  0.4983740000000  0.5671850000000  0.4914790000000 1.0
C      1  0.4831660000000  0.4778540000000  0.5022660000000 1.0
C      1  0.4334870000000  0.5565590000000  0.4453620000000 1.0
C      1  0.4575640000000  0.4353170000000  0.4964580000000 1.0
C      1  0.4149460000000  0.5226630000000  0.4837780000000 1.0
C      1  0.5979300000000  0.5005140000000  0.5213960000000 1.0
C      1  0.4568690000000  0.5444550000000  0.4753970000000 1.0
C      1  0.4743890000000  0.5613190000000  0.5645360000000 1.0
C      1  0.4589200000000  0.5678270000000  0.4394640000000 1.0
C      1  0.5383550000000  0.5305930000000  0.4445640000000 1.0
C      1  0.4220370000000  0.4922670000000  0.5194700000000 1.0
C      1  0.5481320000000  0.5567530000000  0.4762050000000 1.0
C      1  0.3986730000000  0.4873370000000  0.5618190000000 1.0
C      1  0.5697850000000  0.4771130000000  0.5581640000000 1.0
C      1  0.5235490000000  0.4134150000000  0.4664370000000 1.0
C      1  0.5771870000000  0.4476890000000  0.5436800000000 1.0
C      1  0.5317270000000  0.4588360000000  0.4136980000000 1.0
C      1  0.4312090000000  0.4246930000000  0.5125350000000 1.0
C      1  0.5210460000000  0.5625220000000  0.5475850000000 1.0
C      1  0.5379110000000  0.4530200000000  0.5020990000000 1.0
C      1  0.4152650000000  0.5603950000000  0.4968890000000 1.0
C      1  0.4665150000000  0.6016470000000  0.5118720000000 1.0
C      1  0.4710570000000  0.4563060000000  0.5141700000000 1.0
C      1  0.5662520000000  0.5368640000000  0.4606260000000 1.0
C      1  0.4530600000000  0.5141860000000  0.4752430000000 1.0
C      1  0.4395710000000  0.5641570000000  0.4855010000000 1.0
C      1  0.5608240000000  0.4312440000000  0.5015270000000 1.0
C      1  0.5426080000000  0.4866650000000  0.5731230000000 1.0
C      1  0.5573200000000  0.5633200000000  0.5074060000000 1.0
C      1  0.4757540000000  0.4441330000000  0.4469570000000 1.0
C      1  0.5021650000000  0.5732510000000  0.4522910000000 1.0
C      1  0.4518780000000  0.5898730000000  0.4842950000000 1.0
C      1  0.6092050000000  0.4797300000000  0.5059320000000 1.0
C      1  0.5414650000000  0.5756070000000  0.5345350000000 1.0
C      1  0.5065130000000  0.4318250000000  0.5134450000000 1.0
C      1  0.5404750000000  0.5191780000000  0.5641470000000 1.0
C      1  0.4600160000000  0.4087670000000  0.5153240000000 1.0
C      1  0.5146500000000  0.4142730000000  0.5418890000000 1.0
C      1  0.4822200000000  0.5525260000000  0.4679680000000 1.0
C      1  0.4233530000000  0.5332740000000  0.4567420000000 1.0
C      1  0.5569240000000  0.3921540000000  0.4721020000000 1.0
C      1  0.4734310000000  0.5869380000000  0.5417990000000 1.0
C      1  0.4667560000000  0.4761130000000  0.5847600000000 1.0
C      1  0.5663500000000  0.5251090000000  0.5471250000000 1.0
C      1  0.5019830000000  0.4798640000000  0.5487860000000 1.0
C      1  0.5116740000000  0.5439120000000  0.5116810000000 1.0
C      1  0.4863670000000  0.4067960000000  0.5243560000000 1.0
C      1  0.5202310000000  0.4575640000000  0.5310360000000 1.0
C      1  0.5678390000000  0.4921140000000  0.4781570000000 1.0
C      1  0.5270840000000  0.5800210000000  0.4648790000000 1.0
C      1  0.5128870000000  0.4021270000000  0.4454510000000 1.0
C      1  0.5936640000000  0.4571000000000  0.4604030000000 1.0
C      1  0.4916320000000  0.4359430000000  0.5525600000000 1.0
C      1  0.4767950000000  0.5242230000000  0.5942040000000 1.0
C      1  0.4467540000000  0.4858130000000  0.4323050000000 1.0
C      1  0.5203150000000  0.5045880000000  0.5449830000000 1.0
C      1  0.4949210000000  0.5634070000000  0.5308760000000 1.0
C      1  0.5806200000000  0.4330040000000  0.5216400000000 1.0
C      1  0.6090530000000  0.4653270000000  0.4828340000000 1.0
C      1  0.4974990000000  0.5605120000000  0.4112270000000 1.0
C      1  0.5827720000000  0.5009550000000  0.5458750000000 1.0
C      1  0.4854270000000  0.5029000000000  0.5175080000000 1.0
C      1  0.5667950000000  0.4169360000000  0.4772740000000 1.0
C      1  0.5133870000000  0.4751140000000  0.4373610000000 1.0
C      1  0.5884330000000  0.5237260000000  0.5062260000000 1.0
C      1  0.4537910000000  0.4613990000000  0.5635200000000 1.0
C      1  0.4835780000000  0.5073100000000  0.4668050000000 1.0
C      1  0.4532140000000  0.4394230000000  0.4674700000000 1.0
C      1  0.4129700000000  0.4712850000000  0.5034530000000 1.0
C      1  0.5469940000000  0.4790040000000  0.4333400000000 1.0
C      1  0.4112020000000  0.4444240000000  0.5131480000000 1.0
C      1  0.5230710000000  0.4668070000000  0.5800680000000 1.0
C      1  0.4948470000000  0.4755750000000  0.5814480000000 1.0
C      1  0.5003880000000  0.4580140000000  0.4605420000000 1.0
C      1  0.5227660000000  0.5984110000000  0.4869570000000 1.0
C      1  0.5152270000000  0.4391700000000  0.4814120000000 1.0
C      1  0.4600370000000  0.5213110000000  0.5254980000000 1.0
C      1  0.4737040000000  0.5906020000000  0.4600070000000 1.0
C      1  0.5193790000000  0.5438820000000  0.4798520000000 1.0
C      1  0.5713810000000  0.5402160000000  0.5227340000000 1.0
C      1  0.4766030000000  0.5499470000000  0.4253530000000 1.0
C      1  0.4839060000000  0.4188780000000  0.4316820000000 1.0
C      1  0.5137860000000  0.5263000000000  0.4246900000000 1.0
C      1  0.5789490000000  0.5175530000000  0.4806340000000 1.0
C      1  0.5078130000000  0.5238830000000  0.4583520000000 1.0
C      1  0.4278560000000  0.4486080000000  0.4604250000000 1.0
C      1  0.4967440000000  0.4994810000000  0.4286660000000 1.0
C      1  0.5463840000000  0.4539880000000  0.5504600000000 1.0
END
