TITL C-2778433-5640-114 0.261048893860008 125000 -1072.56892486873 0 0 183 (C1) n - 1
REM
REM in /home/nfs/bkarasulu/CARBON/AIRSS/Generating-Clusters/REBO/Only-C1/SD-CG/HFTN-CG
REM
REM
REM
REM
REM
REM ./C.cell (11c1c37f851c82e70ff6c80c92926a4b)
REM
REM compiler GCC version 9.2.1 20190827 (Red Hat 9.2.1-1)
REM options -cpp -mtune=generic -march=x86-64 -g -O0 -fpre-include=/usr/include/finclude/math-vector-fortran.h
REM seed 117417222 258019545 801397175 -2092006923 1709545339 1204712323 837848208 -1131041953 1082877581 192346586 -1995633240 -316580366 -903246296 -824661346 849877635 -1132136637 -444326124 440421299 -2115677538 -613606685 1499644870 -697465663 -801274238 1119552255 -1444675175 1274930753 -485183746 -1212042831 1239673899 2137207328 1970901059 -449540501 1166147888
REM
CELL 1.54180   50.00000   50.00000   50.00000   90.00000   90.00000   90.00000
LATT -1
SFAC C  
C      1  0.4828670000000  0.5266000000000  0.5700200000000 1.0
C      1  0.5385840000000  0.3876620000000  0.5089040000000 1.0
C      1  0.4309020000000  0.5792820000000  0.4845990000000 1.0
C      1  0.5840150000000  0.5617630000000  0.5354510000000 1.0
C      1  0.3940080000000  0.5300180000000  0.4453540000000 1.0
C      1  0.5326310000000  0.5640950000000  0.4155420000000 1.0
C      1  0.4470330000000  0.5938660000000  0.4685670000000 1.0
C      1  0.5357640000000  0.3999300000000  0.5405170000000 1.0
C      1  0.4151740000000  0.5219980000000  0.5471510000000 1.0
C      1  0.5214330000000  0.4683620000000  0.4993920000000 1.0
C      1  0.5732050000000  0.5424300000000  0.4444520000000 1.0
C      1  0.5083070000000  0.4119460000000  0.4236330000000 1.0
C      1  0.5189930000000  0.5005820000000  0.5475730000000 1.0
C      1  0.4562550000000  0.6006540000000  0.5199510000000 1.0
C      1  0.5247480000000  0.4345830000000  0.5747280000000 1.0
C      1  0.4930070000000  0.4804190000000  0.5555010000000 1.0
C      1  0.5223860000000  0.5336010000000  0.4107200000000 1.0
C      1  0.5506760000000  0.4176530000000  0.5079310000000 1.0
C      1  0.5311670000000  0.4840910000000  0.4033750000000 1.0
C      1  0.4571500000000  0.4050960000000  0.5046080000000 1.0
C      1  0.4836640000000  0.3893310000000  0.5130340000000 1.0
C      1  0.5188990000000  0.4367730000000  0.4156530000000 1.0
C      1  0.5227930000000  0.4582220000000  0.4689880000000 1.0
C      1  0.4577320000000  0.4776040000000  0.3841140000000 1.0
C      1  0.4730290000000  0.4475740000000  0.5293080000000 1.0
C      1  0.4615630000000  0.5185580000000  0.5256640000000 1.0
C      1  0.4477340000000  0.5406130000000  0.5922180000000 1.0
C      1  0.5531270000000  0.4181100000000  0.5629090000000 1.0
C      1  0.5021500000000  0.4811130000000  0.4006580000000 1.0
C      1  0.4444230000000  0.4501760000000  0.5698070000000 1.0
C      1  0.5993140000000  0.5285580000000  0.4541580000000 1.0
C      1  0.5551800000000  0.5382600000000  0.4203300000000 1.0
C      1  0.4010500000000  0.5257520000000  0.5709730000000 1.0
C      1  0.4415720000000  0.4843210000000  0.5205880000000 1.0
C      1  0.4720630000000  0.5458510000000  0.4986900000000 1.0
C      1  0.5681360000000  0.4215070000000  0.4810990000000 1.0
C      1  0.4036360000000  0.4837670000000  0.4878100000000 1.0
C      1  0.4946290000000  0.5294610000000  0.4224350000000 1.0
C      1  0.5080740000000  0.5436110000000  0.5957940000000 1.0
C      1  0.4049540000000  0.4744170000000  0.4560000000000 1.0
C      1  0.4922720000000  0.4475370000000  0.4462270000000 1.0
C      1  0.5473690000000  0.5565750000000  0.5153970000000 1.0
C      1  0.4896680000000  0.5394640000000  0.4713730000000 1.0
C      1  0.5232110000000  0.5121770000000  0.4444130000000 1.0
C      1  0.4216880000000  0.4666250000000  0.5062710000000 1.0
C      1  0.5124880000000  0.5247620000000  0.5272550000000 1.0
C      1  0.5427400000000  0.5141400000000  0.4789720000000 1.0
C      1  0.4046850000000  0.5447670000000  0.5240640000000 1.0
C      1  0.4116270000000  0.4467180000000  0.4516360000000 1.0
C      1  0.4393720000000  0.4981960000000  0.5516510000000 1.0
C      1  0.4773560000000  0.4159400000000  0.5653400000000 1.0
C      1  0.4263890000000  0.4949080000000  0.4431390000000 1.0
C      1  0.4879510000000  0.5484900000000  0.5245540000000 1.0
C      1  0.4176240000000  0.5265450000000  0.4909170000000 1.0
C      1  0.4506160000000  0.5680210000000  0.4272220000000 1.0
C      1  0.4305820000000  0.5152420000000  0.5179490000000 1.0
C      1  0.4736160000000  0.5027350000000  0.4275510000000 1.0
C      1  0.4799960000000  0.4681140000000  0.5973530000000 1.0
C      1  0.4570750000000  0.4834020000000  0.4837680000000 1.0
C      1  0.5186060000000  0.4836230000000  0.5770720000000 1.0
C      1  0.4731620000000  0.6013320000000  0.4976570000000 1.0
C      1  0.5634390000000  0.5657960000000  0.5586690000000 1.0
C      1  0.5101090000000  0.5193720000000  0.4878600000000 1.0
C      1  0.4016180000000  0.5724960000000  0.4733680000000 1.0
C      1  0.5740380000000  0.5933120000000  0.4833950000000 1.0
C      1  0.5121420000000  0.5774660000000  0.5397310000000 1.0
C      1  0.5664700000000  0.4953690000000  0.5918110000000 1.0
C      1  0.5149750000000  0.5832040000000  0.5101410000000 1.0
C      1  0.4790890000000  0.4943160000000  0.3889300000000 1.0
C      1  0.5469090000000  0.4745110000000  0.5839940000000 1.0
C      1  0.5436610000000  0.4657850000000  0.4499020000000 1.0
C      1  0.5254350000000  0.5702310000000  0.4636540000000 1.0
C      1  0.6036640000000  0.5339720000000  0.5333260000000 1.0
C      1  0.5700200000000  0.4238800000000  0.5338050000000 1.0
C      1  0.4950650000000  0.4275280000000  0.5238440000000 1.0
C      1  0.4210950000000  0.5708070000000  0.5495120000000 1.0
C      1  0.4960780000000  0.4891870000000  0.4953830000000 1.0
C      1  0.4006170000000  0.5598580000000  0.5050820000000 1.0
C      1  0.6206730000000  0.4801170000000  0.4506480000000 1.0
C      1  0.4403980000000  0.5733140000000  0.5244410000000 1.0
C      1  0.4696720000000  0.5709460000000  0.5427010000000 1.0
C      1  0.4936230000000  0.4400180000000  0.5830580000000 1.0
C      1  0.4766080000000  0.4554620000000  0.5595610000000 1.0
C      1  0.5714530000000  0.5169650000000  0.5064100000000 1.0
C      1  0.4719540000000  0.5569700000000  0.4086010000000 1.0
C      1  0.4212260000000  0.4391650000000  0.5160980000000 1.0
C      1  0.5285790000000  0.5393170000000  0.5727710000000 1.0
C      1  0.4447850000000  0.4635110000000  0.4080100000000 1.0
C      1  0.5278970000000  0.5489780000000  0.4907850000000 1.0
C      1  0.5889070000000  0.4737180000000  0.5280510000000 1.0
C      1  0.4299350000000  0.4991360000000  0.4745200000000 1.0
C      1  0.4928370000000  0.4013410000000  0.5436360000000 1.0
C      1  0.5004060000000  0.5629520000000  0.4264390000000 1.0
C      1  0.5842460000000  0.4641340000000  0.5744460000000 1.0
C      1  0.5591830000000  0.5412980000000  0.5722530000000 1.0
C      1  0.5717650000000  0.5152370000000  0.5678390000000 1.0
C      1  0.5395130000000  0.5812320000000  0.5599830000000 1.0
C      1  0.4680390000000  0.5630740000000  0.5757740000000 1.0
C      1  0.3918190000000  0.5077920000000  0.5049140000000 1.0
C      1  0.4945740000000  0.5683320000000  0.5905390000000 1.0
C      1  0.5905600000000  0.5644200000000  0.4838260000000 1.0
C      1  0.5540170000000  0.5429700000000  0.4696590000000 1.0
C      1  0.6104990000000  0.5242880000000  0.5057250000000 1.0
C      1  0.5470000000000  0.4464170000000  0.5358100000000 1.0
C      1  0.5009600000000  0.4198650000000  0.4940080000000 1.0
C      1  0.5008530000000  0.4889000000000  0.6007000000000 1.0
C      1  0.4955500000000  0.5862880000000  0.4889010000000 1.0
C      1  0.4276340000000  0.4353320000000  0.3995530000000 1.0
C      1  0.4389770000000  0.5421020000000  0.4430170000000 1.0
C      1  0.4477820000000  0.4260900000000  0.5243290000000 1.0
C      1  0.4542840000000  0.4857840000000  0.5963410000000 1.0
C      1  0.4905460000000  0.5174660000000  0.6007200000000 1.0
C      1  0.5418530000000  0.5977240000000  0.4743840000000 1.0
C      1  0.4835250000000  0.4097350000000  0.4365310000000 1.0
C      1  0.4393430000000  0.5521760000000  0.4987790000000 1.0
C      1  0.4084480000000  0.4821530000000  0.5725260000000 1.0
C      1  0.5586450000000  0.4352490000000  0.4451470000000 1.0
C      1  0.5177000000000  0.5383900000000  0.4535940000000 1.0
C      1  0.5774890000000  0.5468270000000  0.5061460000000 1.0
C      1  0.4704790000000  0.6056880000000  0.5457970000000 1.0
C      1  0.5463410000000  0.4829880000000  0.5068300000000 1.0
C      1  0.4587180000000  0.5151950000000  0.5997040000000 1.0
C      1  0.5396680000000  0.5939340000000  0.5036650000000 1.0
C      1  0.5420890000000  0.4583940000000  0.4172170000000 1.0
C      1  0.5961600000000  0.4954530000000  0.5051470000000 1.0
C      1  0.4940280000000  0.5796780000000  0.4554750000000 1.0
C      1  0.5678310000000  0.5842140000000  0.5156410000000 1.0
C      1  0.6007070000000  0.4623430000000  0.4986140000000 1.0
C      1  0.6041160000000  0.4615760000000  0.4657930000000 1.0
C      1  0.5620310000000  0.4733260000000  0.4846190000000 1.0
C      1  0.4518070000000  0.4815580000000  0.4331210000000 1.0
C      1  0.5363410000000  0.5428550000000  0.5397300000000 1.0
C      1  0.4641010000000  0.5866820000000  0.4487640000000 1.0
C      1  0.4625370000000  0.5139910000000  0.4919480000000 1.0
C      1  0.5402630000000  0.5130790000000  0.5126630000000 1.0
C      1  0.5417940000000  0.4119890000000  0.4616960000000 1.0
C      1  0.4582410000000  0.5326320000000  0.4638310000000 1.0
C      1  0.4731540000000  0.5019860000000  0.5523920000000 1.0
C      1  0.4181100000000  0.5220760000000  0.4345760000000 1.0
C      1  0.4710400000000  0.5238370000000  0.4005250000000 1.0
C      1  0.4225350000000  0.5711730000000  0.4465760000000 1.0
C      1  0.4963700000000  0.4756280000000  0.4651170000000 1.0
C      1  0.5956450000000  0.4822410000000  0.5564270000000 1.0
C      1  0.4959020000000  0.4567560000000  0.4158230000000 1.0
C      1  0.5811800000000  0.4823000000000  0.4450990000000 1.0
C      1  0.3908580000000  0.4910180000000  0.5540030000000 1.0
C      1  0.5583670000000  0.4735200000000  0.5323660000000 1.0
C      1  0.5750220000000  0.4517270000000  0.4700660000000 1.0
C      1  0.5756820000000  0.5741910000000  0.4552870000000 1.0
C      1  0.4332540000000  0.4727840000000  0.5818350000000 1.0
C      1  0.5483240000000  0.5733350000000  0.4403390000000 1.0
C      1  0.4444070000000  0.4473840000000  0.4846390000000 1.0
C      1  0.4539410000000  0.4088970000000  0.4762280000000 1.0
C      1  0.5124000000000  0.3789810000000  0.5283140000000 1.0
C      1  0.5868830000000  0.4340150000000  0.5065600000000 1.0
C      1  0.4588240000000  0.4294900000000  0.4494850000000 1.0
C      1  0.5212110000000  0.4294580000000  0.5419410000000 1.0
C      1  0.6046200000000  0.5037570000000  0.4435740000000 1.0
C      1  0.5505970000000  0.4923730000000  0.5552260000000 1.0
C      1  0.6068220000000  0.5380510000000  0.4805070000000 1.0
C      1  0.4304950000000  0.5526000000000  0.5676560000000 1.0
C      1  0.5987990000000  0.5134870000000  0.5531170000000 1.0
C      1  0.5430290000000  0.5092200000000  0.4070200000000 1.0
C      1  0.5748400000000  0.4586880000000  0.4265440000000 1.0
C      1  0.4554160000000  0.5368640000000  0.5536800000000 1.0
C      1  0.4975590000000  0.6033420000000  0.5549720000000 1.0
C      1  0.4345250000000  0.4413000000000  0.4320300000000 1.0
C      1  0.5008890000000  0.5496770000000  0.5558850000000 1.0
C      1  0.4996610000000  0.4961970000000  0.4435900000000 1.0
C      1  0.4758630000000  0.3952920000000  0.4610390000000 1.0
C      1  0.4515410000000  0.4247750000000  0.5558360000000 1.0
C      1  0.4592920000000  0.4626440000000  0.4580870000000 1.0
C      1  0.5120210000000  0.5883360000000  0.5779430000000 1.0
C      1  0.5281210000000  0.3887320000000  0.4794750000000 1.0
C      1  0.5134200000000  0.4286430000000  0.4653380000000 1.0
C      1  0.3964270000000  0.5410870000000  0.4702810000000 1.0
C      1  0.3845790000000  0.5025410000000  0.5302840000000 1.0
C      1  0.5511700000000  0.4958930000000  0.4535770000000 1.0
C      1  0.5271400000000  0.4369720000000  0.5024600000000 1.0
C      1  0.5566190000000  0.4453030000000  0.5811680000000 1.0
C      1  0.4967690000000  0.3893670000000  0.4821020000000 1.0
C      1  0.4710110000000  0.4740770000000  0.5128080000000 1.0
C      1  0.4201140000000  0.4346230000000  0.4763810000000 1.0
END
