TITL C-2778432-5617-265 -0.000112287936124314 125000 -1065.90887352486 0 0 183 (C1) n - 1
REM
REM in /home/nfs/bkarasulu/CARBON/AIRSS/Generating-Clusters/REBO/Only-C1/SD-CG/HFTN-CG
REM
REM
REM
REM
REM
REM ./C.cell (11c1c37f851c82e70ff6c80c92926a4b)
REM
REM compiler GCC version 9.2.1 20190827 (Red Hat 9.2.1-1)
REM options -cpp -mtune=generic -march=x86-64 -g -O0 -fpre-include=/usr/include/finclude/math-vector-fortran.h
REM seed -844941733 -300565164 551641888 -1853322187 -1763149319 253014224 -1003772956 -402757784 1648095853 1028872347 2303674 -1195124950 -1607425807 559189954 1034383585 1980259872 -149755530 -396720633 1486768507 -1424996583 1277627659 486934693 6267664 -128608968 196552387 -606183895 -409749342 408377428 -607896242 -1881235111 -962242421 480182754 1573937566
REM
CELL 1.54180   50.00000   50.00000   50.00000   90.00000   90.00000   90.00000
LATT -1
SFAC C  
C      1  0.4381110000000  0.4379660000000  0.4621750000000 1.0
C      1  0.3996040000000  0.4930780000000  0.4641490000000 1.0
C      1  0.5102470000000  0.4887230000000  0.3923930000000 1.0
C      1  0.3973520000000  0.4415130000000  0.4957130000000 1.0
C      1  0.4360240000000  0.4776720000000  0.5454540000000 1.0
C      1  0.4941240000000  0.4546080000000  0.5469420000000 1.0
C      1  0.4496400000000  0.5373550000000  0.5044830000000 1.0
C      1  0.4980930000000  0.5827490000000  0.5554250000000 1.0
C      1  0.5883640000000  0.5395240000000  0.5365810000000 1.0
C      1  0.4561980000000  0.4841750000000  0.5187950000000 1.0
C      1  0.4280200000000  0.5183460000000  0.4924840000000 1.0
C      1  0.5657210000000  0.4936860000000  0.4266020000000 1.0
C      1  0.4924410000000  0.6042350000000  0.4941920000000 1.0
C      1  0.4404320000000  0.5158550000000  0.5820210000000 1.0
C      1  0.4510270000000  0.5803070000000  0.4653080000000 1.0
C      1  0.4437070000000  0.5156890000000  0.4361340000000 1.0
C      1  0.5349560000000  0.5710660000000  0.4319590000000 1.0
C      1  0.4301580000000  0.4390430000000  0.5211230000000 1.0
C      1  0.5074470000000  0.4048850000000  0.4288440000000 1.0
C      1  0.5318050000000  0.4162850000000  0.4728650000000 1.0
C      1  0.5255070000000  0.4791480000000  0.4280940000000 1.0
C      1  0.5063580000000  0.4630770000000  0.6010910000000 1.0
C      1  0.4798310000000  0.5678300000000  0.4816520000000 1.0
C      1  0.5150530000000  0.4994030000000  0.4650970000000 1.0
C      1  0.5741680000000  0.5135220000000  0.5834580000000 1.0
C      1  0.5328770000000  0.4025910000000  0.5017880000000 1.0
C      1  0.5233060000000  0.5539880000000  0.5438710000000 1.0
C      1  0.4974120000000  0.5421240000000  0.4581180000000 1.0
C      1  0.5651480000000  0.5490020000000  0.4791440000000 1.0
C      1  0.5323820000000  0.4055100000000  0.4435330000000 1.0
C      1  0.5181950000000  0.5683250000000  0.5034060000000 1.0
C      1  0.4691920000000  0.4069180000000  0.5262420000000 1.0
C      1  0.5232720000000  0.5177120000000  0.5276430000000 1.0
C      1  0.5606580000000  0.5211970000000  0.4463980000000 1.0
C      1  0.4428590000000  0.4649020000000  0.4437540000000 1.0
C      1  0.5216890000000  0.5970540000000  0.4498030000000 1.0
C      1  0.5533500000000  0.5859670000000  0.5672320000000 1.0
C      1  0.4206280000000  0.5095530000000  0.5632300000000 1.0
C      1  0.5422540000000  0.4803440000000  0.6027540000000 1.0
C      1  0.4603680000000  0.5293550000000  0.5335580000000 1.0
C      1  0.4698220000000  0.4580080000000  0.5046130000000 1.0
C      1  0.4574220000000  0.3958970000000  0.4781920000000 1.0
C      1  0.4911550000000  0.5164010000000  0.5405280000000 1.0
C      1  0.6275780000000  0.4736180000000  0.5063380000000 1.0
C      1  0.4104460000000  0.5438970000000  0.4597080000000 1.0
C      1  0.5199510000000  0.5156740000000  0.3976950000000 1.0
C      1  0.4857770000000  0.4752080000000  0.4003060000000 1.0
C      1  0.5929070000000  0.5702140000000  0.4985720000000 1.0
C      1  0.5452160000000  0.5681810000000  0.5326820000000 1.0
C      1  0.5919350000000  0.5195100000000  0.4942340000000 1.0
C      1  0.5693460000000  0.5597800000000  0.5523210000000 1.0
C      1  0.4193990000000  0.5033640000000  0.4193650000000 1.0
C      1  0.4489390000000  0.5487830000000  0.5797180000000 1.0
C      1  0.4062850000000  0.4418900000000  0.4703100000000 1.0
C      1  0.4302250000000  0.5165010000000  0.5323630000000 1.0
C      1  0.5380110000000  0.5325540000000  0.6100420000000 1.0
C      1  0.4094390000000  0.4638190000000  0.5145310000000 1.0
C      1  0.5650940000000  0.4429140000000  0.5029960000000 1.0
C      1  0.5757410000000  0.4976660000000  0.5107950000000 1.0
C      1  0.4490680000000  0.4651890000000  0.5717440000000 1.0
C      1  0.5913110000000  0.4961970000000  0.4494710000000 1.0
C      1  0.5467430000000  0.5166740000000  0.4098420000000 1.0
C      1  0.5525570000000  0.4768600000000  0.5218610000000 1.0
C      1  0.5218210000000  0.5159860000000  0.4411770000000 1.0
C      1  0.5022680000000  0.5378310000000  0.4042510000000 1.0
C      1  0.4607920000000  0.4916690000000  0.3956180000000 1.0
C      1  0.5196160000000  0.4430240000000  0.4995340000000 1.0
C      1  0.4290230000000  0.5759000000000  0.5314550000000 1.0
C      1  0.4267420000000  0.4928680000000  0.5104370000000 1.0
C      1  0.5392330000000  0.6004240000000  0.5217510000000 1.0
C      1  0.5251770000000  0.4933460000000  0.5589410000000 1.0
C      1  0.4882540000000  0.5033260000000  0.5704190000000 1.0
C      1  0.5336490000000  0.4510370000000  0.5289810000000 1.0
C      1  0.5391370000000  0.4929720000000  0.4961900000000 1.0
C      1  0.5072690000000  0.4806650000000  0.5333060000000 1.0
C      1  0.5762050000000  0.5878810000000  0.5158510000000 1.0
C      1  0.4888390000000  0.4378320000000  0.5755410000000 1.0
C      1  0.6044970000000  0.4843240000000  0.5083200000000 1.0
C      1  0.5937200000000  0.4852910000000  0.5534800000000 1.0
C      1  0.4049880000000  0.5600520000000  0.5186890000000 1.0
C      1  0.5610500000000  0.5301260000000  0.5641090000000 1.0
C      1  0.4886310000000  0.4606780000000  0.4820590000000 1.0
C      1  0.4687040000000  0.4848830000000  0.4532750000000 1.0
C      1  0.5557050000000  0.4163550000000  0.5206300000000 1.0
C      1  0.5437680000000  0.4478850000000  0.4768960000000 1.0
C      1  0.5906180000000  0.5115890000000  0.5450020000000 1.0
C      1  0.5005070000000  0.3666370000000  0.5243690000000 1.0
C      1  0.3995790000000  0.5327390000000  0.4900500000000 1.0
C      1  0.5564260000000  0.5463690000000  0.4232780000000 1.0
C      1  0.4766040000000  0.4169190000000  0.4342030000000 1.0
C      1  0.3879700000000  0.4890910000000  0.5166980000000 1.0
C      1  0.5296130000000  0.5249520000000  0.5604700000000 1.0
C      1  0.4495150000000  0.5449630000000  0.4233080000000 1.0
C      1  0.4128760000000  0.4684760000000  0.4577850000000 1.0
C      1  0.5523140000000  0.5686270000000  0.5010720000000 1.0
C      1  0.5775520000000  0.4743500000000  0.4630720000000 1.0
C      1  0.5263120000000  0.6069410000000  0.4978100000000 1.0
C      1  0.5020800000000  0.4159470000000  0.5527430000000 1.0
C      1  0.5072400000000  0.5381890000000  0.6132960000000 1.0
C      1  0.3898000000000  0.5027440000000  0.4907150000000 1.0
C      1  0.5348570000000  0.4542990000000  0.5846710000000 1.0
C      1  0.4983840000000  0.4998750000000  0.4288670000000 1.0
C      1  0.5064110000000  0.4896640000000  0.5048710000000 1.0
C      1  0.5352260000000  0.4733090000000  0.3958300000000 1.0
C      1  0.4117940000000  0.5410510000000  0.5405660000000 1.0
C      1  0.4345660000000  0.3938850000000  0.4953640000000 1.0
C      1  0.5830390000000  0.5458100000000  0.4425780000000 1.0
C      1  0.4280060000000  0.5856920000000  0.4987790000000 1.0
C      1  0.4688300000000  0.4155930000000  0.5598820000000 1.0
C      1  0.5740100000000  0.4819420000000  0.5778670000000 1.0
C      1  0.5506600000000  0.4786510000000  0.5531350000000 1.0
C      1  0.4387730000000  0.5526860000000  0.4526600000000 1.0
C      1  0.4379110000000  0.4083620000000  0.5185900000000 1.0
C      1  0.4957780000000  0.5466710000000  0.5283210000000 1.0
C      1  0.4750340000000  0.5876560000000  0.4473870000000 1.0
C      1  0.5088520000000  0.4716330000000  0.4634100000000 1.0
C      1  0.5012040000000  0.4756480000000  0.5719720000000 1.0
C      1  0.4761660000000  0.5495900000000  0.4106610000000 1.0
C      1  0.4453630000000  0.4595990000000  0.4138080000000 1.0
C      1  0.4838700000000  0.4399760000000  0.4570150000000 1.0
C      1  0.5091390000000  0.5182770000000  0.4895930000000 1.0
C      1  0.5365040000000  0.4438160000000  0.4042730000000 1.0
C      1  0.4781880000000  0.3761450000000  0.5376690000000 1.0
C      1  0.4587760000000  0.5997100000000  0.4923630000000 1.0
C      1  0.4952050000000  0.5443270000000  0.4984380000000 1.0
C      1  0.5014770000000  0.5886910000000  0.5232740000000 1.0
C      1  0.4762930000000  0.4962410000000  0.4940630000000 1.0
C      1  0.4778000000000  0.5152570000000  0.4656170000000 1.0
C      1  0.4046880000000  0.4886690000000  0.5449040000000 1.0
C      1  0.4509920000000  0.5610910000000  0.5419230000000 1.0
C      1  0.5972170000000  0.5513830000000  0.4706730000000 1.0
C      1  0.4385990000000  0.5085200000000  0.4647380000000 1.0
C      1  0.5403610000000  0.6006980000000  0.4736640000000 1.0
C      1  0.4832280000000  0.4015350000000  0.4953480000000 1.0
C      1  0.5080050000000  0.3832650000000  0.5039490000000 1.0
C      1  0.4764510000000  0.5337830000000  0.5762180000000 1.0
C      1  0.4491830000000  0.4812100000000  0.4796540000000 1.0
C      1  0.4753410000000  0.4406350000000  0.5279410000000 1.0
C      1  0.5164080000000  0.4213830000000  0.5250420000000 1.0
C      1  0.5472310000000  0.4153420000000  0.5497930000000 1.0
C      1  0.4604830000000  0.5412120000000  0.4731000000000 1.0
C      1  0.4663480000000  0.5745270000000  0.5650140000000 1.0
C      1  0.5487430000000  0.5707160000000  0.4615070000000 1.0
C      1  0.5600300000000  0.4601090000000  0.4234880000000 1.0
C      1  0.5356080000000  0.5325220000000  0.5004250000000 1.0
C      1  0.5256250000000  0.5521430000000  0.4742970000000 1.0
C      1  0.5239650000000  0.5594440000000  0.5951180000000 1.0
C      1  0.4550810000000  0.5673460000000  0.5027020000000 1.0
C      1  0.5991480000000  0.5176020000000  0.4655490000000 1.0
C      1  0.4722790000000  0.5069550000000  0.4203680000000 1.0
C      1  0.4954920000000  0.6013050000000  0.4603600000000 1.0
C      1  0.5175080000000  0.5453120000000  0.4309240000000 1.0
C      1  0.5539520000000  0.5169480000000  0.4771560000000 1.0
C      1  0.4830520000000  0.4874240000000  0.6067300000000 1.0
C      1  0.5735890000000  0.4416240000000  0.5355850000000 1.0
C      1  0.4965580000000  0.5494440000000  0.5622720000000 1.0
C      1  0.5465670000000  0.4331860000000  0.4398040000000 1.0
C      1  0.5978970000000  0.4616760000000  0.5405890000000 1.0
C      1  0.5946890000000  0.5429630000000  0.5096250000000 1.0
C      1  0.4541120000000  0.4134390000000  0.4559750000000 1.0
C      1  0.5641060000000  0.4512400000000  0.5668680000000 1.0
C      1  0.4189580000000  0.5498360000000  0.5659100000000 1.0
C      1  0.4809020000000  0.4629070000000  0.4317720000000 1.0
C      1  0.5259100000000  0.5790230000000  0.5749170000000 1.0
C      1  0.4485110000000  0.4403250000000  0.5492470000000 1.0
C      1  0.5455210000000  0.5057630000000  0.6102060000000 1.0
C      1  0.4730160000000  0.4576100000000  0.5937290000000 1.0
C      1  0.4550610000000  0.4927270000000  0.5900200000000 1.0
C      1  0.5475690000000  0.4706800000000  0.4535270000000 1.0
C      1  0.4046560000000  0.5143390000000  0.4446700000000 1.0
C      1  0.4402070000000  0.4527370000000  0.4916670000000 1.0
C      1  0.4714350000000  0.4392080000000  0.4090170000000 1.0
C      1  0.4998030000000  0.4229910000000  0.4808100000000 1.0
C      1  0.5176180000000  0.4496820000000  0.4387780000000 1.0
C      1  0.5277180000000  0.4371120000000  0.5596320000000 1.0
C      1  0.4824860000000  0.5629820000000  0.4368280000000 1.0
C      1  0.5049700000000  0.4335860000000  0.4119920000000 1.0
C      1  0.5843570000000  0.4594020000000  0.4844320000000 1.0
C      1  0.5646670000000  0.6015040000000  0.5420040000000 1.0
C      1  0.5570680000000  0.5148130000000  0.5336160000000 1.0
C      1  0.4040580000000  0.5654370000000  0.4856650000000 1.0
C      1  0.4887020000000  0.5185200000000  0.6014170000000 1.0
C      1  0.4317130000000  0.4841370000000  0.4008040000000 1.0
END
