TITL C-2778428-5639-1461 -0.00147716711292231 125000 -954.758929531622 0 0 165 (C1) n - 1
REM
REM in /home/nfs/bkarasulu/CARBON/AIRSS/Generating-Clusters/REBO/Only-C1/SD-CG/HFTN-CG
REM
REM
REM
REM
REM
REM ./C.cell (11c1c37f851c82e70ff6c80c92926a4b)
REM
REM compiler GCC version 9.2.1 20190827 (Red Hat 9.2.1-1)
REM options -cpp -mtune=generic -march=x86-64 -g -O0 -fpre-include=/usr/include/finclude/math-vector-fortran.h
REM seed 545748579 -1246212831 -1778618045 -471210636 -514993882 1490566447 85112983 1658909100 -810470098 437475967 -1822673734 779882144 -1952842150 -663910159 332460240 -186177063 -846595621 243494182 -944874249 1654612171 1626573895 -754562392 -1036155149 1750105611 -1605768326 -1623473646 49910265 1600975968 7933667 -1192703219 1432757726 2130556968 -290208312
REM
CELL 1.54180   50.00000   50.00000   50.00000   90.00000   90.00000   90.00000
LATT -1
SFAC C  
C      1  0.5921570000000  0.4473870000000  0.4882650000000 1.0
C      1  0.5325150000000  0.5567470000000  0.5150270000000 1.0
C      1  0.5453700000000  0.4359470000000  0.4258920000000 1.0
C      1  0.4920180000000  0.4546060000000  0.4099250000000 1.0
C      1  0.5276750000000  0.4185120000000  0.5720870000000 1.0
C      1  0.4366490000000  0.4903390000000  0.4823390000000 1.0
C      1  0.4674530000000  0.4751560000000  0.5072660000000 1.0
C      1  0.6087000000000  0.4938640000000  0.4651710000000 1.0
C      1  0.4323600000000  0.5441690000000  0.4238380000000 1.0
C      1  0.4828500000000  0.5890550000000  0.4035290000000 1.0
C      1  0.5255620000000  0.5042160000000  0.5714590000000 1.0
C      1  0.4681940000000  0.5028120000000  0.4783840000000 1.0
C      1  0.5159360000000  0.4871780000000  0.4341850000000 1.0
C      1  0.3923850000000  0.4852080000000  0.5157190000000 1.0
C      1  0.5186650000000  0.4482780000000  0.5474180000000 1.0
C      1  0.4914480000000  0.6322120000000  0.4478860000000 1.0
C      1  0.4563770000000  0.5578910000000  0.4820740000000 1.0
C      1  0.4857880000000  0.4798460000000  0.6082890000000 1.0
C      1  0.5413760000000  0.5123610000000  0.4961500000000 1.0
C      1  0.5721110000000  0.4967590000000  0.5559440000000 1.0
C      1  0.4470110000000  0.5631440000000  0.5294160000000 1.0
C      1  0.5447340000000  0.4876820000000  0.4065050000000 1.0
C      1  0.5897800000000  0.5288000000000  0.5010950000000 1.0
C      1  0.5266150000000  0.4210320000000  0.5322670000000 1.0
C      1  0.5695750000000  0.5740960000000  0.4382900000000 1.0
C      1  0.4875940000000  0.4555390000000  0.4619880000000 1.0
C      1  0.4269970000000  0.4084910000000  0.4814130000000 1.0
C      1  0.4879770000000  0.5022410000000  0.5581960000000 1.0
C      1  0.4195600000000  0.5564860000000  0.5322610000000 1.0
C      1  0.4158240000000  0.4664240000000  0.5531150000000 1.0
C      1  0.4425230000000  0.4737080000000  0.5675840000000 1.0
C      1  0.5527240000000  0.4716410000000  0.4690880000000 1.0
C      1  0.5122770000000  0.5281810000000  0.4328980000000 1.0
C      1  0.5088240000000  0.4446210000000  0.5798670000000 1.0
C      1  0.6128900000000  0.5104820000000  0.5281170000000 1.0
C      1  0.4825170000000  0.4522050000000  0.5968360000000 1.0
C      1  0.6081420000000  0.5185640000000  0.4624410000000 1.0
C      1  0.4654000000000  0.5438140000000  0.4146240000000 1.0
C      1  0.3906680000000  0.5067080000000  0.4973520000000 1.0
C      1  0.4883640000000  0.5806340000000  0.5086470000000 1.0
C      1  0.4479690000000  0.4809430000000  0.5345500000000 1.0
C      1  0.4853450000000  0.5649010000000  0.6121980000000 1.0
C      1  0.5868740000000  0.4737170000000  0.4684480000000 1.0
C      1  0.5710140000000  0.5788720000000  0.5354830000000 1.0
C      1  0.4003800000000  0.4250800000000  0.5237830000000 1.0
C      1  0.5396070000000  0.5876370000000  0.4746030000000 1.0
C      1  0.4643440000000  0.4342510000000  0.5125860000000 1.0
C      1  0.5600430000000  0.5980420000000  0.5179240000000 1.0
C      1  0.5542500000000  0.5377700000000  0.5331940000000 1.0
C      1  0.4119440000000  0.5187660000000  0.4520440000000 1.0
C      1  0.5809200000000  0.5325730000000  0.4624700000000 1.0
C      1  0.5004340000000  0.4132000000000  0.5525210000000 1.0
C      1  0.4872500000000  0.4700160000000  0.5578840000000 1.0
C      1  0.5022450000000  0.4849920000000  0.5312190000000 1.0
C      1  0.5823580000000  0.5578890000000  0.4857560000000 1.0
C      1  0.5527770000000  0.5042030000000  0.5275610000000 1.0
C      1  0.4030140000000  0.5699860000000  0.5124660000000 1.0
C      1  0.5560490000000  0.5433620000000  0.5669910000000 1.0
C      1  0.4556470000000  0.4516180000000  0.4854780000000 1.0
C      1  0.4384770000000  0.5163030000000  0.4049870000000 1.0
C      1  0.5147970000000  0.5349400000000  0.5309820000000 1.0
C      1  0.5096800000000  0.5150630000000  0.5060330000000 1.0
C      1  0.4933040000000  0.4441130000000  0.5283860000000 1.0
C      1  0.5489590000000  0.5334720000000  0.4726860000000 1.0
C      1  0.5413490000000  0.4258050000000  0.4562930000000 1.0
C      1  0.5885410000000  0.4735340000000  0.5516450000000 1.0
C      1  0.4417740000000  0.4985390000000  0.5842480000000 1.0
C      1  0.4586180000000  0.5099050000000  0.5495730000000 1.0
C      1  0.5871310000000  0.5571540000000  0.5198950000000 1.0
C      1  0.4645420000000  0.5920080000000  0.4446290000000 1.0
C      1  0.4735680000000  0.4791970000000  0.4101860000000 1.0
C      1  0.5686100000000  0.5780480000000  0.4658990000000 1.0
C      1  0.4911730000000  0.4869640000000  0.4632760000000 1.0
C      1  0.5540160000000  0.4535920000000  0.4976470000000 1.0
C      1  0.4225610000000  0.4578650000000  0.4639950000000 1.0
C      1  0.5432600000000  0.4854280000000  0.6018850000000 1.0
C      1  0.4041320000000  0.4913050000000  0.5424920000000 1.0
C      1  0.4938090000000  0.4554500000000  0.4962100000000 1.0
C      1  0.4225480000000  0.4703140000000  0.5139390000000 1.0
C      1  0.5113720000000  0.5551120000000  0.4242400000000 1.0
C      1  0.5168430000000  0.5364170000000  0.5626730000000 1.0
C      1  0.5895580000000  0.4572450000000  0.5156180000000 1.0
C      1  0.5983540000000  0.5326690000000  0.5396760000000 1.0
C      1  0.4544830000000  0.4213750000000  0.4730780000000 1.0
C      1  0.5419240000000  0.5375500000000  0.4053380000000 1.0
C      1  0.5242050000000  0.5038250000000  0.5413250000000 1.0
C      1  0.4515010000000  0.4724870000000  0.4588650000000 1.0
C      1  0.4670940000000  0.5489010000000  0.5484760000000 1.0
C      1  0.5571280000000  0.4311520000000  0.5211830000000 1.0
C      1  0.4873320000000  0.5639660000000  0.4141420000000 1.0
C      1  0.5803400000000  0.5243760000000  0.5601450000000 1.0
C      1  0.4599210000000  0.4510970000000  0.5801360000000 1.0
C      1  0.5641720000000  0.4577490000000  0.4400560000000 1.0
C      1  0.4688220000000  0.4912210000000  0.4401230000000 1.0
C      1  0.4172000000000  0.4389860000000  0.5424430000000 1.0
C      1  0.5638420000000  0.4869140000000  0.4274040000000 1.0
C      1  0.4638850000000  0.5005070000000  0.6019600000000 1.0
C      1  0.5463870000000  0.4627530000000  0.5515240000000 1.0
C      1  0.5508710000000  0.5712130000000  0.5544400000000 1.0
C      1  0.4543250000000  0.5347700000000  0.5729790000000 1.0
C      1  0.4158990000000  0.4523950000000  0.4898310000000 1.0
C      1  0.5791530000000  0.4416650000000  0.5441120000000 1.0
C      1  0.4608760000000  0.5719650000000  0.5055740000000 1.0
C      1  0.5428450000000  0.5630930000000  0.4253460000000 1.0
C      1  0.4097170000000  0.4256570000000  0.4966870000000 1.0
C      1  0.5395210000000  0.5866270000000  0.5040900000000 1.0
C      1  0.4753280000000  0.5488620000000  0.4560890000000 1.0
C      1  0.4320960000000  0.5060860000000  0.4355820000000 1.0
C      1  0.5503580000000  0.4743020000000  0.5808420000000 1.0
C      1  0.5741390000000  0.5074280000000  0.4940410000000 1.0
C      1  0.5077380000000  0.5652730000000  0.4943260000000 1.0
C      1  0.5223060000000  0.5103180000000  0.6045320000000 1.0
C      1  0.4256300000000  0.5201750000000  0.5695920000000 1.0
C      1  0.4453890000000  0.4544580000000  0.4239120000000 1.0
C      1  0.5234970000000  0.5768100000000  0.5516550000000 1.0
C      1  0.4101700000000  0.5250710000000  0.5417620000000 1.0
C      1  0.4797240000000  0.4035010000000  0.4812140000000 1.0
C      1  0.4718130000000  0.4465710000000  0.4338570000000 1.0
C      1  0.4979430000000  0.5876300000000  0.5346220000000 1.0
C      1  0.4202170000000  0.5496060000000  0.4558840000000 1.0
C      1  0.5095910000000  0.5895110000000  0.4612100000000 1.0
C      1  0.4451670000000  0.4269900000000  0.5395620000000 1.0
C      1  0.4078620000000  0.5028350000000  0.4749810000000 1.0
C      1  0.5236190000000  0.4650840000000  0.4097500000000 1.0
C      1  0.4626750000000  0.5270490000000  0.5227560000000 1.0
C      1  0.5354750000000  0.5377860000000  0.5908140000000 1.0
C      1  0.5121330000000  0.4362650000000  0.4663600000000 1.0
C      1  0.4918770000000  0.5644320000000  0.5555880000000 1.0
C      1  0.5641830000000  0.4335870000000  0.4729350000000 1.0
C      1  0.5521720000000  0.4304280000000  0.5612960000000 1.0
C      1  0.5046050000000  0.5522960000000  0.5894240000000 1.0
C      1  0.5593870000000  0.4709750000000  0.5244720000000 1.0
C      1  0.5086600000000  0.4787260000000  0.5830050000000 1.0
C      1  0.5117430000000  0.4827330000000  0.4982960000000 1.0
C      1  0.4148430000000  0.5505660000000  0.4878150000000 1.0
C      1  0.5524750000000  0.4025240000000  0.5087700000000 1.0
C      1  0.5344100000000  0.5204040000000  0.4466590000000 1.0
C      1  0.5166470000000  0.4324290000000  0.4107850000000 1.0
C      1  0.5194790000000  0.3988880000000  0.5091650000000 1.0
C      1  0.4720370000000  0.5125500000000  0.4026650000000 1.0
C      1  0.4869180000000  0.3918670000000  0.5106670000000 1.0
C      1  0.4483160000000  0.5649370000000  0.4440070000000 1.0
C      1  0.4372570000000  0.5322970000000  0.5058770000000 1.0
C      1  0.5345620000000  0.5586940000000  0.4579410000000 1.0
C      1  0.5319810000000  0.5125390000000  0.4018680000000 1.0
C      1  0.5124960000000  0.4175260000000  0.4390810000000 1.0
C      1  0.5040860000000  0.4224350000000  0.4923900000000 1.0
C      1  0.4803130000000  0.4180800000000  0.4504480000000 1.0
C      1  0.6080820000000  0.4824220000000  0.5291740000000 1.0
C      1  0.5023520000000  0.5572400000000  0.4631320000000 1.0
C      1  0.5249220000000  0.4838580000000  0.4668680000000 1.0
C      1  0.4476340000000  0.5279140000000  0.4751040000000 1.0
C      1  0.5911260000000  0.4430250000000  0.4542750000000 1.0
C      1  0.4744310000000  0.4093450000000  0.5343520000000 1.0
C      1  0.4889110000000  0.6053040000000  0.4511090000000 1.0
C      1  0.3979030000000  0.5311390000000  0.5104390000000 1.0
C      1  0.4730340000000  0.5399110000000  0.5958290000000 1.0
C      1  0.5630820000000  0.5106660000000  0.4433480000000 1.0
C      1  0.5010730000000  0.5079920000000  0.4116990000000 1.0
C      1  0.4796990000000  0.5070880000000  0.5068020000000 1.0
C      1  0.4615780000000  0.5221700000000  0.4400050000000 1.0
C      1  0.4399910000000  0.4829450000000  0.4136900000000 1.0
C      1  0.4919410000000  0.5143650000000  0.5897130000000 1.0
C      1  0.4684920000000  0.4452920000000  0.5505510000000 1.0
C      1  0.4279660000000  0.5032630000000  0.5110550000000 1.0
END
