TITL C-2778426-5645-1370 0.00829433967946615 125000 -1141.93620511533 0 0 196 (C1) n - 1
REM
REM in /home/nfs/bkarasulu/CARBON/AIRSS/Generating-Clusters/REBO/Only-C1/SD-CG/HFTN-CG
REM
REM
REM
REM
REM
REM ./C.cell (11c1c37f851c82e70ff6c80c92926a4b)
REM
REM compiler GCC version 9.2.1 20190827 (Red Hat 9.2.1-1)
REM options -cpp -mtune=generic -march=x86-64 -g -O0 -fpre-include=/usr/include/finclude/math-vector-fortran.h
REM seed -1339009935 2137103861 -647741631 24107509 -1600065792 1138064961 -1297508605 1800590343 -1822522390 1343693896 -1954414881 1859107653 1487917971 38662212 -291486090 -1912269804 1873341971 1136544383 101016705 1623568274 1126999936 -1862923870 1541879251 1384181358 513726704 1451465717 267580178 -1153087848 825240761 -1388346281 227793464 -1595805686 532692656
REM
CELL 1.54180   50.00000   50.00000   50.00000   90.00000   90.00000   90.00000
LATT -1
SFAC C  
C      1  0.5177530000000  0.5768580000000  0.5694890000000 1.0
C      1  0.4556550000000  0.4388670000000  0.4570040000000 1.0
C      1  0.4858600000000  0.5820980000000  0.5187670000000 1.0
C      1  0.4666000000000  0.5889660000000  0.4409150000000 1.0
C      1  0.4313940000000  0.5833520000000  0.4852950000000 1.0
C      1  0.5243320000000  0.5017110000000  0.5608440000000 1.0
C      1  0.4415700000000  0.4321120000000  0.5875740000000 1.0
C      1  0.4907710000000  0.4396060000000  0.5186490000000 1.0
C      1  0.4760930000000  0.5006440000000  0.4404270000000 1.0
C      1  0.4680250000000  0.5765110000000  0.4992650000000 1.0
C      1  0.5158030000000  0.5441300000000  0.5673250000000 1.0
C      1  0.5644840000000  0.4313880000000  0.5248470000000 1.0
C      1  0.5463590000000  0.4507240000000  0.5626100000000 1.0
C      1  0.5750690000000  0.5496120000000  0.4512110000000 1.0
C      1  0.5950300000000  0.4431990000000  0.5653180000000 1.0
C      1  0.4373600000000  0.5658560000000  0.5773180000000 1.0
C      1  0.5674510000000  0.4024120000000  0.4461810000000 1.0
C      1  0.5311490000000  0.5043700000000  0.4330500000000 1.0
C      1  0.4970080000000  0.5511530000000  0.5919510000000 1.0
C      1  0.5852130000000  0.5601820000000  0.5244680000000 1.0
C      1  0.4641390000000  0.5292320000000  0.3996890000000 1.0
C      1  0.4249860000000  0.4386500000000  0.5303470000000 1.0
C      1  0.5804590000000  0.4918610000000  0.5845280000000 1.0
C      1  0.4485060000000  0.4583970000000  0.5559490000000 1.0
C      1  0.4621470000000  0.4111590000000  0.4743790000000 1.0
C      1  0.4517960000000  0.4981930000000  0.5537040000000 1.0
C      1  0.4021710000000  0.5426350000000  0.5433590000000 1.0
C      1  0.4217270000000  0.4540000000000  0.4078160000000 1.0
C      1  0.4206640000000  0.4961610000000  0.4719100000000 1.0
C      1  0.4409080000000  0.5140650000000  0.3946340000000 1.0
C      1  0.5689640000000  0.5171740000000  0.4729520000000 1.0
C      1  0.5086390000000  0.6018970000000  0.4689050000000 1.0
C      1  0.6022190000000  0.5153970000000  0.5445660000000 1.0
C      1  0.5333890000000  0.5374230000000  0.5459980000000 1.0
C      1  0.4267420000000  0.4328000000000  0.4303290000000 1.0
C      1  0.5030830000000  0.5577080000000  0.5261880000000 1.0
C      1  0.4782110000000  0.6044240000000  0.4618840000000 1.0
C      1  0.5812030000000  0.5872860000000  0.5050280000000 1.0
C      1  0.5595500000000  0.5585520000000  0.5407630000000 1.0
C      1  0.4858630000000  0.4125930000000  0.4348730000000 1.0
C      1  0.4911680000000  0.4008790000000  0.4666080000000 1.0
C      1  0.4453390000000  0.5917710000000  0.5332110000000 1.0
C      1  0.5059720000000  0.5247450000000  0.4890710000000 1.0
C      1  0.4525820000000  0.5526750000000  0.5348820000000 1.0
C      1  0.5995170000000  0.4300170000000  0.4911250000000 1.0
C      1  0.4138560000000  0.4786660000000  0.4190610000000 1.0
C      1  0.4961880000000  0.4841440000000  0.6050710000000 1.0
C      1  0.5012630000000  0.5550550000000  0.4936650000000 1.0
C      1  0.5516790000000  0.4816880000000  0.5200730000000 1.0
C      1  0.5807600000000  0.4702080000000  0.4609690000000 1.0
C      1  0.4101970000000  0.5364170000000  0.4441960000000 1.0
C      1  0.4133150000000  0.4475020000000  0.4558010000000 1.0
C      1  0.5334560000000  0.6090790000000  0.4888650000000 1.0
C      1  0.4883210000000  0.4511860000000  0.6004870000000 1.0
C      1  0.5158400000000  0.4742030000000  0.4373470000000 1.0
C      1  0.5515900000000  0.4971810000000  0.4924800000000 1.0
C      1  0.4682200000000  0.5577990000000  0.5818520000000 1.0
C      1  0.4646750000000  0.4660320000000  0.4692680000000 1.0
C      1  0.6028120000000  0.4230130000000  0.5181570000000 1.0
C      1  0.5176400000000  0.4120150000000  0.4482350000000 1.0
C      1  0.5150900000000  0.5835810000000  0.4422080000000 1.0
C      1  0.5161630000000  0.4537010000000  0.5590780000000 1.0
C      1  0.4430380000000  0.4546830000000  0.3885760000000 1.0
C      1  0.4693310000000  0.4425250000000  0.5758560000000 1.0
C      1  0.5203400000000  0.5337000000000  0.6055820000000 1.0
C      1  0.4989530000000  0.4689850000000  0.5342300000000 1.0
C      1  0.4185670000000  0.4699830000000  0.5669820000000 1.0
C      1  0.5730330000000  0.4612340000000  0.5164170000000 1.0
C      1  0.5181090000000  0.4543650000000  0.5906260000000 1.0
C      1  0.5556700000000  0.4240450000000  0.5796450000000 1.0
C      1  0.5484330000000  0.4223510000000  0.4530680000000 1.0
C      1  0.5306020000000  0.5065490000000  0.5907890000000 1.0
C      1  0.5573270000000  0.4930150000000  0.4521530000000 1.0
C      1  0.5073850000000  0.4277450000000  0.4910380000000 1.0
C      1  0.5833860000000  0.4176260000000  0.5460810000000 1.0
C      1  0.4128910000000  0.5295550000000  0.5707670000000 1.0
C      1  0.6060840000000  0.5140180000000  0.4888620000000 1.0
C      1  0.5493330000000  0.4617560000000  0.4194330000000 1.0
C      1  0.4822260000000  0.4585390000000  0.4952230000000 1.0
C      1  0.5595310000000  0.5123120000000  0.5761750000000 1.0
C      1  0.5920430000000  0.5513140000000  0.4920770000000 1.0
C      1  0.4667870000000  0.4458810000000  0.4013630000000 1.0
C      1  0.4604450000000  0.4280620000000  0.4254760000000 1.0
C      1  0.5201930000000  0.4897690000000  0.5176290000000 1.0
C      1  0.4613770000000  0.5440940000000  0.4261070000000 1.0
C      1  0.5362520000000  0.4458690000000  0.5119570000000 1.0
C      1  0.5638300000000  0.5769400000000  0.4386740000000 1.0
C      1  0.5490350000000  0.5652520000000  0.5714900000000 1.0
C      1  0.5367420000000  0.4191680000000  0.4823450000000 1.0
C      1  0.3894030000000  0.5225680000000  0.4311190000000 1.0
C      1  0.4142090000000  0.5263480000000  0.4737320000000 1.0
C      1  0.5308920000000  0.4801850000000  0.6063270000000 1.0
C      1  0.5670550000000  0.5326480000000  0.5019840000000 1.0
C      1  0.4781410000000  0.5704360000000  0.4219290000000 1.0
C      1  0.4904530000000  0.5318290000000  0.5390490000000 1.0
C      1  0.5369290000000  0.5336420000000  0.4463270000000 1.0
C      1  0.4415000000000  0.4660730000000  0.3640690000000 1.0
C      1  0.5515570000000  0.5020890000000  0.5455200000000 1.0
C      1  0.5739840000000  0.5137710000000  0.5284770000000 1.0
C      1  0.4811230000000  0.5038700000000  0.5240750000000 1.0
C      1  0.5038170000000  0.5552540000000  0.4483210000000 1.0
C      1  0.4291020000000  0.5603250000000  0.5515980000000 1.0
C      1  0.4765970000000  0.5285700000000  0.5665780000000 1.0
C      1  0.4492830000000  0.4900040000000  0.5854150000000 1.0
C      1  0.4812040000000  0.5380690000000  0.4531080000000 1.0
C      1  0.5999750000000  0.4514950000000  0.5334290000000 1.0
C      1  0.5274440000000  0.3999110000000  0.5469990000000 1.0
C      1  0.5630810000000  0.6077480000000  0.5188600000000 1.0
C      1  0.4962990000000  0.5907700000000  0.5562610000000 1.0
C      1  0.5844280000000  0.4969050000000  0.5032800000000 1.0
C      1  0.4957820000000  0.4956940000000  0.5545170000000 1.0
C      1  0.4145460000000  0.4987920000000  0.5676840000000 1.0
C      1  0.6147720000000  0.4695800000000  0.5568740000000 1.0
C      1  0.5459420000000  0.4435480000000  0.6015950000000 1.0
C      1  0.5301980000000  0.4797670000000  0.4640200000000 1.0
C      1  0.5490920000000  0.5346280000000  0.4025830000000 1.0
C      1  0.5955530000000  0.5010190000000  0.4591510000000 1.0
C      1  0.4051430000000  0.4825890000000  0.5191150000000 1.0
C      1  0.4123240000000  0.4625640000000  0.5377660000000 1.0
C      1  0.4977250000000  0.4200620000000  0.5925220000000 1.0
C      1  0.5182050000000  0.5213900000000  0.5200360000000 1.0
C      1  0.3874320000000  0.5575820000000  0.5005000000000 1.0
C      1  0.4468330000000  0.5038520000000  0.4409850000000 1.0
C      1  0.4940700000000  0.3992870000000  0.5331870000000 1.0
C      1  0.5292610000000  0.5128550000000  0.4720910000000 1.0
C      1  0.4899510000000  0.5076180000000  0.4670800000000 1.0
C      1  0.4104910000000  0.4746660000000  0.4929130000000 1.0
C      1  0.5593320000000  0.4511440000000  0.4438770000000 1.0
C      1  0.4656490000000  0.4764780000000  0.5366350000000 1.0
C      1  0.4520330000000  0.4135960000000  0.5017030000000 1.0
C      1  0.4376440000000  0.4097810000000  0.4521430000000 1.0
C      1  0.5558830000000  0.4023100000000  0.5591790000000 1.0
C      1  0.5862160000000  0.4547270000000  0.4870360000000 1.0
C      1  0.5823670000000  0.5227320000000  0.4365200000000 1.0
C      1  0.5333530000000  0.5703300000000  0.5235680000000 1.0
C      1  0.5387070000000  0.5447660000000  0.5044470000000 1.0
C      1  0.5269900000000  0.4622750000000  0.4896300000000 1.0
C      1  0.4929120000000  0.4004940000000  0.5007400000000 1.0
C      1  0.5491820000000  0.5414710000000  0.5891150000000 1.0
C      1  0.4525330000000  0.4943350000000  0.4729810000000 1.0
C      1  0.4250090000000  0.5840020000000  0.5158540000000 1.0
C      1  0.4284250000000  0.4304980000000  0.5030700000000 1.0
C      1  0.5476530000000  0.5507660000000  0.4721010000000 1.0
C      1  0.4890570000000  0.5158360000000  0.3975640000000 1.0
C      1  0.5311530000000  0.6013810000000  0.5194310000000 1.0
C      1  0.5008280000000  0.4852250000000  0.4903030000000 1.0
C      1  0.4025330000000  0.5683540000000  0.5227700000000 1.0
C      1  0.5013580000000  0.4065230000000  0.5657340000000 1.0
C      1  0.4901400000000  0.4343240000000  0.5519750000000 1.0
C      1  0.4800740000000  0.4983020000000  0.5818570000000 1.0
C      1  0.6049720000000  0.4954060000000  0.5649700000000 1.0
C      1  0.4046550000000  0.4766760000000  0.4490790000000 1.0
C      1  0.4322670000000  0.4817060000000  0.6028900000000 1.0
C      1  0.5047690000000  0.5631090000000  0.4091540000000 1.0
C      1  0.6062420000000  0.5338940000000  0.5169130000000 1.0
C      1  0.4600790000000  0.5999900000000  0.4830390000000 1.0
C      1  0.4490410000000  0.5272840000000  0.5231430000000 1.0
C      1  0.4366290000000  0.5513800000000  0.4747300000000 1.0
C      1  0.5265430000000  0.5020590000000  0.3994240000000 1.0
C      1  0.5067050000000  0.5075770000000  0.6225750000000 1.0
C      1  0.5633880000000  0.4722860000000  0.6068300000000 1.0
C      1  0.4860220000000  0.4621350000000  0.4430150000000 1.0
C      1  0.5256310000000  0.4226220000000  0.5260760000000 1.0
C      1  0.5837160000000  0.5744360000000  0.4731170000000 1.0
C      1  0.5131820000000  0.4221700000000  0.4173780000000 1.0
C      1  0.5438070000000  0.5875080000000  0.4569480000000 1.0
C      1  0.4678710000000  0.5768920000000  0.5540020000000 1.0
C      1  0.4259210000000  0.5110720000000  0.5378500000000 1.0
C      1  0.4641020000000  0.5141480000000  0.4967370000000 1.0
C      1  0.5027850000000  0.6046210000000  0.5304660000000 1.0
C      1  0.5557700000000  0.4866850000000  0.4075410000000 1.0
C      1  0.5728570000000  0.4599450000000  0.5772720000000 1.0
C      1  0.4888210000000  0.4942830000000  0.4157870000000 1.0
C      1  0.3985470000000  0.5158690000000  0.5222000000000 1.0
C      1  0.5290360000000  0.5863840000000  0.4121800000000 1.0
C      1  0.3823650000000  0.4964490000000  0.4359310000000 1.0
C      1  0.5348540000000  0.5545720000000  0.4231890000000 1.0
C      1  0.3936770000000  0.5311200000000  0.4955260000000 1.0
C      1  0.4896910000000  0.4640130000000  0.4091770000000 1.0
C      1  0.5625160000000  0.6002910000000  0.4796280000000 1.0
C      1  0.4688070000000  0.5453930000000  0.4840210000000 1.0
C      1  0.5155720000000  0.5338710000000  0.3954310000000 1.0
C      1  0.4160370000000  0.4475280000000  0.4839020000000 1.0
C      1  0.4487010000000  0.4266570000000  0.5455790000000 1.0
C      1  0.5102530000000  0.4837410000000  0.3813270000000 1.0
C      1  0.4313940000000  0.5005030000000  0.4174040000000 1.0
C      1  0.4203880000000  0.4456220000000  0.5867690000000 1.0
C      1  0.5196260000000  0.4512530000000  0.4124200000000 1.0
C      1  0.4394730000000  0.5774390000000  0.4524780000000 1.0
C      1  0.5221830000000  0.5720520000000  0.4795140000000 1.0
C      1  0.4323600000000  0.5515530000000  0.4350490000000 1.0
C      1  0.4643480000000  0.4108280000000  0.5272080000000 1.0
C      1  0.5552640000000  0.4123020000000  0.5014180000000 1.0
C      1  0.5665120000000  0.5145990000000  0.4136890000000 1.0
C      1  0.5018510000000  0.4516610000000  0.4686150000000 1.0
C      1  0.4430150000000  0.5265190000000  0.5704560000000 1.0
END
