TITL C-2778433-5640-895 -0.0253180499114918 125000 -353.893152354201 0 0 63 (C1) n - 1
REM
REM in /home/nfs/bkarasulu/CARBON/AIRSS/Generating-Clusters/REBO/Only-C1/SD-CG/HFTN-CG
REM
REM
REM
REM
REM
REM ./C.cell (11c1c37f851c82e70ff6c80c92926a4b)
REM
REM compiler GCC version 9.2.1 20190827 (Red Hat 9.2.1-1)
REM options -cpp -mtune=generic -march=x86-64 -g -O0 -fpre-include=/usr/include/finclude/math-vector-fortran.h
REM seed 1742692460 2056873822 1582169953 -967446133 2118122166 1993255830 -1945094404 904465081 1342914816 -540582225 -1996658025 1260591799 1681657013 1464457507 275076161 -1202350219 -794435897 746498862 2141451921 640697302 -271670611 -262648118 -1712113409 1143046483 1633567002 1532920215 -1264980693 -679656431 1705229893 1379662212 -1285294385 -1553680527 -1717864357
REM
CELL 1.54180   50.00000   50.00000   50.00000   90.00000   90.00000   90.00000
LATT -1
SFAC C  
C      1  0.5727160000000  0.4671420000000  0.5452350000000 1.0
C      1  0.5103470000000  0.4961920000000  0.5137240000000 1.0
C      1  0.5616310000000  0.5098420000000  0.4612720000000 1.0
C      1  0.5317550000000  0.4904810000000  0.5731650000000 1.0
C      1  0.4895620000000  0.5183030000000  0.5278500000000 1.0
C      1  0.5836100000000  0.4734630000000  0.5231160000000 1.0
C      1  0.5361140000000  0.4705620000000  0.4718640000000 1.0
C      1  0.4679860000000  0.4804870000000  0.4843450000000 1.0
C      1  0.5449810000000  0.5298810000000  0.5354730000000 1.0
C      1  0.4616950000000  0.4611650000000  0.4400460000000 1.0
C      1  0.4877170000000  0.4294790000000  0.5264800000000 1.0
C      1  0.4733020000000  0.5070180000000  0.5018990000000 1.0
C      1  0.5066850000000  0.5567480000000  0.5500420000000 1.0
C      1  0.5116920000000  0.4394290000000  0.5133130000000 1.0
C      1  0.5246950000000  0.4582210000000  0.5332160000000 1.0
C      1  0.4834620000000  0.4411530000000  0.5533300000000 1.0
C      1  0.5436970000000  0.4772540000000  0.5476640000000 1.0
C      1  0.5163620000000  0.4950150000000  0.4590040000000 1.0
C      1  0.5405930000000  0.4996980000000  0.5237070000000 1.0
C      1  0.4850360000000  0.5247360000000  0.4777040000000 1.0
C      1  0.4852130000000  0.4633430000000  0.4218490000000 1.0
C      1  0.5676690000000  0.4947450000000  0.5064610000000 1.0
C      1  0.4868760000000  0.5485950000000  0.5328030000000 1.0
C      1  0.4595330000000  0.4502330000000  0.4852180000000 1.0
C      1  0.5711380000000  0.5387370000000  0.5393580000000 1.0
C      1  0.4861530000000  0.5402770000000  0.4409400000000 1.0
C      1  0.5116680000000  0.4435170000000  0.4311660000000 1.0
C      1  0.5010970000000  0.4830120000000  0.4860870000000 1.0
C      1  0.4563980000000  0.4891190000000  0.4551620000000 1.0
C      1  0.4596830000000  0.5607130000000  0.5265330000000 1.0
C      1  0.4886240000000  0.5073890000000  0.5573720000000 1.0
C      1  0.5038890000000  0.5517410000000  0.4551080000000 1.0
C      1  0.5312750000000  0.5346260000000  0.5066410000000 1.0
C      1  0.4522000000000  0.5856820000000  0.5418070000000 1.0
C      1  0.5115030000000  0.4506820000000  0.4844220000000 1.0
C      1  0.4458780000000  0.6067720000000  0.5547100000000 1.0
C      1  0.4685000000000  0.4409860000000  0.4597440000000 1.0
C      1  0.5255620000000  0.5365400000000  0.5577240000000 1.0
C      1  0.4971620000000  0.4364920000000  0.4601340000000 1.0
C      1  0.4625500000000  0.4339140000000  0.5096010000000 1.0
C      1  0.4505110000000  0.5101000000000  0.5270080000000 1.0
C      1  0.5842570000000  0.5208930000000  0.5060670000000 1.0
C      1  0.4251970000000  0.5411770000000  0.4953700000000 1.0
C      1  0.4784530000000  0.4703390000000  0.5593920000000 1.0
C      1  0.5310400000000  0.5371580000000  0.4296130000000 1.0
C      1  0.5008210000000  0.4910680000000  0.4322800000000 1.0
C      1  0.4949040000000  0.4715440000000  0.5300690000000 1.0
C      1  0.5140640000000  0.5127270000000  0.5695940000000 1.0
C      1  0.4506810000000  0.5593550000000  0.4948200000000 1.0
C      1  0.4644850000000  0.4616960000000  0.5230880000000 1.0
C      1  0.5355420000000  0.4443770000000  0.4530130000000 1.0
C      1  0.4450000000000  0.4785760000000  0.5337210000000 1.0
C      1  0.4193380000000  0.5229080000000  0.4748980000000 1.0
C      1  0.4294300000000  0.5036870000000  0.4588040000000 1.0
C      1  0.4579180000000  0.4973590000000  0.5580600000000 1.0
C      1  0.5979270000000  0.5424410000000  0.5057410000000 1.0
C      1  0.5606300000000  0.4874610000000  0.4782470000000 1.0
C      1  0.4372360000000  0.5365050000000  0.5239050000000 1.0
C      1  0.5334360000000  0.5216940000000  0.4555490000000 1.0
C      1  0.5169100000000  0.5339750000000  0.4803000000000 1.0
C      1  0.4797380000000  0.5091390000000  0.4479190000000 1.0
C      1  0.5164350000000  0.4701490000000  0.4103760000000 1.0
C      1  0.4698360000000  0.5522850000000  0.4768780000000 1.0
END
