TITL C-2778428-5639-639 -0.00125989095593948 125000 -963.794398096709 0 0 162 (C1) n - 1
REM
REM in /home/nfs/bkarasulu/CARBON/AIRSS/Generating-Clusters/REBO/Only-C1/SD-CG/HFTN-CG
REM
REM
REM
REM
REM
REM ./C.cell (11c1c37f851c82e70ff6c80c92926a4b)
REM
REM compiler GCC version 9.2.1 20190827 (Red Hat 9.2.1-1)
REM options -cpp -mtune=generic -march=x86-64 -g -O0 -fpre-include=/usr/include/finclude/math-vector-fortran.h
REM seed 393399706 354930820 -1386422815 -2147011602 1863798312 143686345 1499948831 -1509928673 -1323409483 1655297052 1187811798 -2128648533 1350028965 -774763257 828150023 -1372735173 567135397 -1048637055 1474242927 378827026 -1736540513 1176594979 -781862474 481283347 1078244950 1479982298 -1589917310 1729953842 1338685927 2036917307 -535144980 -1974540587 1194973658
REM
CELL 1.54180   50.00000   50.00000   50.00000   90.00000   90.00000   90.00000
LATT -1
SFAC C  
C      1  0.5605050000000  0.4702420000000  0.4869150000000 1.0
C      1  0.4240520000000  0.4716930000000  0.4631860000000 1.0
C      1  0.4672720000000  0.6090580000000  0.4451780000000 1.0
C      1  0.5518630000000  0.4750910000000  0.4068700000000 1.0
C      1  0.5780280000000  0.4401790000000  0.5169110000000 1.0
C      1  0.4464420000000  0.5927640000000  0.4355150000000 1.0
C      1  0.5229520000000  0.3972720000000  0.4945330000000 1.0
C      1  0.4245180000000  0.5013960000000  0.5822630000000 1.0
C      1  0.5790270000000  0.4350370000000  0.4877720000000 1.0
C      1  0.4908780000000  0.4946180000000  0.6133310000000 1.0
C      1  0.5408370000000  0.4143010000000  0.4490580000000 1.0
C      1  0.5696020000000  0.5459710000000  0.5564480000000 1.0
C      1  0.4962080000000  0.5318430000000  0.4087470000000 1.0
C      1  0.4895890000000  0.5135580000000  0.5723990000000 1.0
C      1  0.5259400000000  0.4554430000000  0.6057010000000 1.0
C      1  0.4176370000000  0.5107920000000  0.5391510000000 1.0
C      1  0.4175070000000  0.5152860000000  0.4374450000000 1.0
C      1  0.4488290000000  0.4670980000000  0.5209130000000 1.0
C      1  0.5710440000000  0.5225520000000  0.5241820000000 1.0
C      1  0.5182750000000  0.5602830000000  0.4709470000000 1.0
C      1  0.5336640000000  0.5443540000000  0.4891590000000 1.0
C      1  0.4578670000000  0.4369450000000  0.4177280000000 1.0
C      1  0.4235240000000  0.4948630000000  0.4197480000000 1.0
C      1  0.5304010000000  0.4933980000000  0.5531900000000 1.0
C      1  0.4015400000000  0.5297110000000  0.4615130000000 1.0
C      1  0.4953340000000  0.4437260000000  0.4499720000000 1.0
C      1  0.4157410000000  0.4755920000000  0.5205490000000 1.0
C      1  0.4907480000000  0.5949690000000  0.4512550000000 1.0
C      1  0.5783600000000  0.5040990000000  0.5682380000000 1.0
C      1  0.5208460000000  0.4559990000000  0.5436920000000 1.0
C      1  0.4403680000000  0.4384040000000  0.4397790000000 1.0
C      1  0.5727580000000  0.5534690000000  0.5852830000000 1.0
C      1  0.4477750000000  0.4398380000000  0.4678640000000 1.0
C      1  0.5381810000000  0.4435250000000  0.5171910000000 1.0
C      1  0.5831000000000  0.4538050000000  0.4584010000000 1.0
C      1  0.4082810000000  0.5606310000000  0.5009620000000 1.0
C      1  0.4842070000000  0.5326560000000  0.5378620000000 1.0
C      1  0.5841970000000  0.5521100000000  0.5301460000000 1.0
C      1  0.5247140000000  0.4429750000000  0.4589810000000 1.0
C      1  0.4594400000000  0.5331460000000  0.5894060000000 1.0
C      1  0.5019830000000  0.4766930000000  0.5631200000000 1.0
C      1  0.5651550000000  0.5755610000000  0.5279390000000 1.0
C      1  0.5125640000000  0.4847650000000  0.5258140000000 1.0
C      1  0.4970660000000  0.5084600000000  0.4876490000000 1.0
C      1  0.5244990000000  0.5639210000000  0.5917940000000 1.0
C      1  0.5566110000000  0.4201920000000  0.5343380000000 1.0
C      1  0.4678620000000  0.4911920000000  0.4405160000000 1.0
C      1  0.4891710000000  0.4403830000000  0.5059040000000 1.0
C      1  0.4328130000000  0.5291080000000  0.5779140000000 1.0
C      1  0.5362440000000  0.4681640000000  0.4731310000000 1.0
C      1  0.5428120000000  0.5974480000000  0.4838670000000 1.0
C      1  0.5828880000000  0.5247190000000  0.5874920000000 1.0
C      1  0.4677710000000  0.4863620000000  0.3929090000000 1.0
C      1  0.4708570000000  0.6144550000000  0.5914720000000 1.0
C      1  0.4636690000000  0.5345160000000  0.4876670000000 1.0
C      1  0.4564520000000  0.4683670000000  0.5775920000000 1.0
C      1  0.4284450000000  0.5603850000000  0.5224950000000 1.0
C      1  0.5009950000000  0.4708190000000  0.5961400000000 1.0
C      1  0.4831650000000  0.5459680000000  0.5685230000000 1.0
C      1  0.4891990000000  0.4766720000000  0.4893260000000 1.0
C      1  0.5616130000000  0.4592600000000  0.5716600000000 1.0
C      1  0.4565260000000  0.5487610000000  0.5388570000000 1.0
C      1  0.5610530000000  0.5544390000000  0.4943170000000 1.0
C      1  0.6128770000000  0.4846910000000  0.4981740000000 1.0
C      1  0.4997640000000  0.5047770000000  0.4207540000000 1.0
C      1  0.5437790000000  0.4122260000000  0.5051370000000 1.0
C      1  0.3876890000000  0.4753020000000  0.5009580000000 1.0
C      1  0.5627190000000  0.5615960000000  0.4453420000000 1.0
C      1  0.4845910000000  0.5950110000000  0.5822750000000 1.0
C      1  0.4222580000000  0.5089750000000  0.4790800000000 1.0
C      1  0.5711790000000  0.4753160000000  0.4348770000000 1.0
C      1  0.5484650000000  0.4467150000000  0.5932340000000 1.0
C      1  0.5675560000000  0.4240890000000  0.4607600000000 1.0
C      1  0.5200150000000  0.6048810000000  0.4993310000000 1.0
C      1  0.4623000000000  0.4555230000000  0.4944040000000 1.0
C      1  0.5404030000000  0.5689140000000  0.5416830000000 1.0
C      1  0.4662710000000  0.5080570000000  0.6056570000000 1.0
C      1  0.4089640000000  0.4482590000000  0.4799930000000 1.0
C      1  0.4507410000000  0.4838010000000  0.4667940000000 1.0
C      1  0.4091080000000  0.5072750000000  0.5095400000000 1.0
C      1  0.5012150000000  0.3932430000000  0.5131320000000 1.0
C      1  0.4878930000000  0.5702080000000  0.5047860000000 1.0
C      1  0.4190160000000  0.4834110000000  0.5577950000000 1.0
C      1  0.4514960000000  0.4916190000000  0.4153080000000 1.0
C      1  0.5546350000000  0.5235730000000  0.4199470000000 1.0
C      1  0.4409240000000  0.5262780000000  0.4559900000000 1.0
C      1  0.5144030000000  0.5124050000000  0.6207890000000 1.0
C      1  0.4499120000000  0.5071640000000  0.5444120000000 1.0
C      1  0.4583790000000  0.5646570000000  0.4247570000000 1.0
C      1  0.4381180000000  0.5657590000000  0.4524820000000 1.0
C      1  0.4828710000000  0.5603330000000  0.4071680000000 1.0
C      1  0.5411450000000  0.5396370000000  0.5491060000000 1.0
C      1  0.4926570000000  0.4164730000000  0.4640320000000 1.0
C      1  0.5705510000000  0.5066690000000  0.4747720000000 1.0
C      1  0.4662620000000  0.4987450000000  0.5667720000000 1.0
C      1  0.5447250000000  0.5012620000000  0.4000580000000 1.0
C      1  0.4077510000000  0.4712550000000  0.4203980000000 1.0
C      1  0.5906080000000  0.5018500000000  0.5401230000000 1.0
C      1  0.4144910000000  0.5585910000000  0.4698960000000 1.0
C      1  0.3956600000000  0.5335450000000  0.4944870000000 1.0
C      1  0.6094620000000  0.5079590000000  0.5140170000000 1.0
C      1  0.4973310000000  0.5017340000000  0.4538800000000 1.0
C      1  0.4588490000000  0.4966930000000  0.5153130000000 1.0
C      1  0.4272250000000  0.5396420000000  0.5495050000000 1.0
C      1  0.5199740000000  0.5398080000000  0.6050130000000 1.0
C      1  0.4787160000000  0.5699110000000  0.3809190000000 1.0
C      1  0.5396450000000  0.5808190000000  0.4570740000000 1.0
C      1  0.5762450000000  0.4504620000000  0.5495200000000 1.0
C      1  0.5252590000000  0.4923640000000  0.4645950000000 1.0
C      1  0.4473440000000  0.4184890000000  0.4925010000000 1.0
C      1  0.5745350000000  0.5084460000000  0.4414400000000 1.0
C      1  0.5144890000000  0.5801630000000  0.5434630000000 1.0
C      1  0.5437150000000  0.5132580000000  0.4662960000000 1.0
C      1  0.5519440000000  0.5713960000000  0.5933270000000 1.0
C      1  0.4359380000000  0.4570000000000  0.5573010000000 1.0
C      1  0.5131690000000  0.5666990000000  0.4184280000000 1.0
C      1  0.4868400000000  0.5027700000000  0.5297160000000 1.0
C      1  0.5840050000000  0.4723600000000  0.5257590000000 1.0
C      1  0.4658520000000  0.5490240000000  0.4605960000000 1.0
C      1  0.4769800000000  0.4714700000000  0.5401420000000 1.0
C      1  0.5939960000000  0.4710600000000  0.4834980000000 1.0
C      1  0.5780150000000  0.5399820000000  0.4539530000000 1.0
C      1  0.5847930000000  0.5431210000000  0.4819700000000 1.0
C      1  0.5429210000000  0.4276580000000  0.4177960000000 1.0
C      1  0.4953460000000  0.4845760000000  0.4007120000000 1.0
C      1  0.5253320000000  0.5199110000000  0.5012820000000 1.0
C      1  0.5134800000000  0.4596470000000  0.5048660000000 1.0
C      1  0.4451340000000  0.4337220000000  0.5425880000000 1.0
C      1  0.5171580000000  0.4032500000000  0.4672760000000 1.0
C      1  0.4713280000000  0.4216270000000  0.5479460000000 1.0
C      1  0.4788330000000  0.4362520000000  0.3911970000000 1.0
C      1  0.5046330000000  0.5886350000000  0.5174640000000 1.0
C      1  0.4762620000000  0.4187600000000  0.4863170000000 1.0
C      1  0.4917650000000  0.5658770000000  0.4619770000000 1.0
C      1  0.5239100000000  0.5230980000000  0.3947080000000 1.0
C      1  0.6037370000000  0.5313630000000  0.4992310000000 1.0
C      1  0.4795110000000  0.4517600000000  0.5848240000000 1.0
C      1  0.5386930000000  0.4144130000000  0.5593530000000 1.0
C      1  0.5167020000000  0.4309930000000  0.5618750000000 1.0
C      1  0.5489110000000  0.4517800000000  0.4389640000000 1.0
C      1  0.4899810000000  0.4400640000000  0.4223910000000 1.0
C      1  0.4885460000000  0.4301310000000  0.5694100000000 1.0
C      1  0.5057160000000  0.4561070000000  0.3986730000000 1.0
C      1  0.5355840000000  0.4523150000000  0.4014850000000 1.0
C      1  0.5327680000000  0.5467630000000  0.4144940000000 1.0
C      1  0.4341010000000  0.4284530000000  0.5162050000000 1.0
C      1  0.5142170000000  0.5132830000000  0.5870430000000 1.0
C      1  0.3922850000000  0.4749070000000  0.4706480000000 1.0
C      1  0.5622300000000  0.5844490000000  0.4996610000000 1.0
C      1  0.5722770000000  0.4966200000000  0.5050280000000 1.0
C      1  0.5011930000000  0.5715070000000  0.5711580000000 1.0
C      1  0.4142570000000  0.4476270000000  0.4327760000000 1.0
C      1  0.4450340000000  0.4888810000000  0.5990180000000 1.0
C      1  0.4797280000000  0.4665020000000  0.4604040000000 1.0
C      1  0.4529230000000  0.5070040000000  0.4887710000000 1.0
C      1  0.4143440000000  0.4464100000000  0.5077860000000 1.0
C      1  0.5380680000000  0.5154010000000  0.5288140000000 1.0
C      1  0.5552350000000  0.4872470000000  0.5696610000000 1.0
C      1  0.5161870000000  0.5862640000000  0.4378450000000 1.0
C      1  0.4866020000000  0.4148910000000  0.5245380000000 1.0
C      1  0.4900580000000  0.5362970000000  0.5062850000000 1.0
C      1  0.4578340000000  0.5595470000000  0.5082830000000 1.0
END
