TITL C-2778434-4341-1084 0.00247773041314336 125000 -815.470374670686 0 0 142 (C1) n - 1
REM
REM in /home/nfs/bkarasulu/CARBON/AIRSS/Generating-Clusters/REBO/Only-C1/SD-CG/HFTN-CG
REM
REM
REM
REM
REM
REM ./C.cell (11c1c37f851c82e70ff6c80c92926a4b)
REM
REM compiler GCC version 9.2.1 20190827 (Red Hat 9.2.1-1)
REM options -cpp -mtune=generic -march=x86-64 -g -O0 -fpre-include=/usr/include/finclude/math-vector-fortran.h
REM seed -886247026 -1729897287 -784632007 -393994248 949996076 1674073297 735137495 -235474153 1784817517 1079220941 1569634407 -269036476 1157990962 -1207892242 1678036416 -812478471 1316313693 -527800572 -1610314522 -1946224873 -355317747 -609327421 1587824322 -1052290903 -231878465 -1645098788 1491106351 1019607564 -96678936 296321839 -2014019103 605333594 1212333093
REM
CELL 1.54180   50.00000   50.00000   50.00000   90.00000   90.00000   90.00000
LATT -1
SFAC C  
C      1  0.6086630000000  0.4768340000000  0.5051720000000 1.0
C      1  0.5922920000000  0.5151920000000  0.4752620000000 1.0
C      1  0.4134050000000  0.4525200000000  0.4832770000000 1.0
C      1  0.4758110000000  0.4622140000000  0.4097940000000 1.0
C      1  0.4913810000000  0.5137850000000  0.5406920000000 1.0
C      1  0.4719950000000  0.5339320000000  0.4280940000000 1.0
C      1  0.4398920000000  0.5736560000000  0.4474220000000 1.0
C      1  0.5163620000000  0.6053690000000  0.5255220000000 1.0
C      1  0.5177280000000  0.4182250000000  0.4703790000000 1.0
C      1  0.5288770000000  0.5753730000000  0.4787780000000 1.0
C      1  0.5883470000000  0.4901930000000  0.5463530000000 1.0
C      1  0.4958290000000  0.6159750000000  0.5446340000000 1.0
C      1  0.4658740000000  0.5083960000000  0.5955920000000 1.0
C      1  0.5798610000000  0.5513120000000  0.5137250000000 1.0
C      1  0.5094990000000  0.5394960000000  0.5426010000000 1.0
C      1  0.5384860000000  0.4924590000000  0.5202930000000 1.0
C      1  0.5334280000000  0.4135820000000  0.5330210000000 1.0
C      1  0.5059850000000  0.4761060000000  0.4624780000000 1.0
C      1  0.4545620000000  0.4371530000000  0.4426320000000 1.0
C      1  0.5290150000000  0.4723980000000  0.4846780000000 1.0
C      1  0.5313020000000  0.5581610000000  0.5584270000000 1.0
C      1  0.5055220000000  0.4975300000000  0.5181670000000 1.0
C      1  0.5715660000000  0.4755680000000  0.5726090000000 1.0
C      1  0.5425820000000  0.5119010000000  0.4141940000000 1.0
C      1  0.5598860000000  0.4682490000000  0.5094160000000 1.0
C      1  0.4734520000000  0.5281830000000  0.4597540000000 1.0
C      1  0.4250870000000  0.4989260000000  0.5057310000000 1.0
C      1  0.5774250000000  0.4582560000000  0.4404360000000 1.0
C      1  0.4787840000000  0.4348890000000  0.5098910000000 1.0
C      1  0.4283850000000  0.5789640000000  0.5010830000000 1.0
C      1  0.5522320000000  0.4492360000000  0.4838360000000 1.0
C      1  0.5319620000000  0.5040530000000  0.4752680000000 1.0
C      1  0.5486090000000  0.3954940000000  0.5139620000000 1.0
C      1  0.4630790000000  0.5506930000000  0.5553690000000 1.0
C      1  0.4185200000000  0.4676710000000  0.5094020000000 1.0
C      1  0.4327680000000  0.5425550000000  0.5314880000000 1.0
C      1  0.4037910000000  0.4613900000000  0.5354280000000 1.0
C      1  0.4698880000000  0.5077490000000  0.4937510000000 1.0
C      1  0.4495810000000  0.4704420000000  0.5192520000000 1.0
C      1  0.4839370000000  0.4689460000000  0.5393120000000 1.0
C      1  0.5879270000000  0.4635480000000  0.4936070000000 1.0
C      1  0.5005130000000  0.4040040000000  0.5277320000000 1.0
C      1  0.4650090000000  0.4072310000000  0.4721140000000 1.0
C      1  0.4157690000000  0.5588320000000  0.4478870000000 1.0
C      1  0.5238840000000  0.4320950000000  0.5697770000000 1.0
C      1  0.5590590000000  0.5524060000000  0.5751590000000 1.0
C      1  0.4544460000000  0.4601680000000  0.4681790000000 1.0
C      1  0.4301700000000  0.4301490000000  0.5030760000000 1.0
C      1  0.4376930000000  0.4882820000000  0.4774740000000 1.0
C      1  0.5009320000000  0.4286690000000  0.4358060000000 1.0
C      1  0.4409410000000  0.5723760000000  0.5289690000000 1.0
C      1  0.5308160000000  0.4276880000000  0.4407710000000 1.0
C      1  0.5308920000000  0.5692810000000  0.4284100000000 1.0
C      1  0.4251000000000  0.5176160000000  0.4207070000000 1.0
C      1  0.4187850000000  0.4718300000000  0.4554100000000 1.0
C      1  0.4364890000000  0.5529610000000  0.4814300000000 1.0
C      1  0.4769640000000  0.5016770000000  0.4049960000000 1.0
C      1  0.5399810000000  0.4888260000000  0.5524680000000 1.0
C      1  0.5975090000000  0.5230430000000  0.5063290000000 1.0
C      1  0.4695230000000  0.3976760000000  0.5207510000000 1.0
C      1  0.4755990000000  0.4384170000000  0.4245010000000 1.0
C      1  0.5017680000000  0.4793810000000  0.4120110000000 1.0
C      1  0.5542470000000  0.4924790000000  0.4604550000000 1.0
C      1  0.5810020000000  0.4457880000000  0.4673760000000 1.0
C      1  0.5560280000000  0.5051030000000  0.5778280000000 1.0
C      1  0.4781700000000  0.4378950000000  0.5406570000000 1.0
C      1  0.4815160000000  0.5585530000000  0.4728430000000 1.0
C      1  0.6024310000000  0.4991020000000  0.5227260000000 1.0
C      1  0.5430980000000  0.5683060000000  0.5076440000000 1.0
C      1  0.5884560000000  0.5078560000000  0.4467450000000 1.0
C      1  0.4580800000000  0.4287380000000  0.4925970000000 1.0
C      1  0.4692190000000  0.5636330000000  0.4417900000000 1.0
C      1  0.5509280000000  0.5351400000000  0.4576530000000 1.0
C      1  0.5062360000000  0.5682520000000  0.5873520000000 1.0
C      1  0.5709240000000  0.5284630000000  0.5652970000000 1.0
C      1  0.4481230000000  0.4343410000000  0.5555310000000 1.0
C      1  0.5006390000000  0.5767210000000  0.4422650000000 1.0
C      1  0.4620190000000  0.5237890000000  0.5341890000000 1.0
C      1  0.4236270000000  0.4513930000000  0.5582640000000 1.0
C      1  0.5504320000000  0.4512270000000  0.5788240000000 1.0
C      1  0.4347630000000  0.5033550000000  0.5356190000000 1.0
C      1  0.5655640000000  0.5608970000000  0.4841070000000 1.0
C      1  0.4667120000000  0.3870380000000  0.4938570000000 1.0
C      1  0.5468130000000  0.4522590000000  0.4305400000000 1.0
C      1  0.5185650000000  0.4712410000000  0.4347130000000 1.0
C      1  0.5019140000000  0.4225750000000  0.5552640000000 1.0
C      1  0.4170790000000  0.4834720000000  0.5547200000000 1.0
C      1  0.5307610000000  0.5476930000000  0.5913840000000 1.0
C      1  0.4838590000000  0.4588150000000  0.4782560000000 1.0
C      1  0.5635070000000  0.4686350000000  0.5401930000000 1.0
C      1  0.5478680000000  0.4856470000000  0.4331250000000 1.0
C      1  0.4409730000000  0.5890440000000  0.5508010000000 1.0
C      1  0.5228000000000  0.4536600000000  0.5100420000000 1.0
C      1  0.4488430000000  0.5844240000000  0.4764540000000 1.0
C      1  0.4867650000000  0.4289500000000  0.4648390000000 1.0
C      1  0.4504700000000  0.5191700000000  0.4123400000000 1.0
C      1  0.4084640000000  0.5373800000000  0.4739950000000 1.0
C      1  0.5655350000000  0.5213660000000  0.4353980000000 1.0
C      1  0.5186560000000  0.4601250000000  0.5862770000000 1.0
C      1  0.5128650000000  0.6058590000000  0.4988390000000 1.0
C      1  0.5654270000000  0.5782450000000  0.5290670000000 1.0
C      1  0.4784320000000  0.5893570000000  0.4871840000000 1.0
C      1  0.4515170000000  0.4794520000000  0.4128990000000 1.0
C      1  0.5192720000000  0.5318080000000  0.4597470000000 1.0
C      1  0.5374120000000  0.4423080000000  0.5309730000000 1.0
C      1  0.5360820000000  0.5857710000000  0.5428260000000 1.0
C      1  0.5609910000000  0.4192910000000  0.4749480000000 1.0
C      1  0.4693200000000  0.4439300000000  0.5791050000000 1.0
C      1  0.5073240000000  0.5897800000000  0.5610520000000 1.0
C      1  0.4887840000000  0.4643440000000  0.5722660000000 1.0
C      1  0.4802840000000  0.4776420000000  0.5061260000000 1.0
C      1  0.4450470000000  0.5213420000000  0.4744330000000 1.0
C      1  0.5059390000000  0.4318240000000  0.4995530000000 1.0
C      1  0.4657640000000  0.5672090000000  0.5084290000000 1.0
C      1  0.5089480000000  0.5160140000000  0.4945340000000 1.0
C      1  0.5196240000000  0.4894200000000  0.5758560000000 1.0
C      1  0.5914670000000  0.4813220000000  0.4368230000000 1.0
C      1  0.5027960000000  0.5428840000000  0.4369850000000 1.0
C      1  0.4472600000000  0.4156800000000  0.5286650000000 1.0
C      1  0.4482560000000  0.5063350000000  0.5731190000000 1.0
C      1  0.5100680000000  0.5102390000000  0.4034860000000 1.0
C      1  0.5047000000000  0.5926590000000  0.4687610000000 1.0
C      1  0.5283750000000  0.5166060000000  0.5943640000000 1.0
C      1  0.5142780000000  0.5478040000000  0.4893390000000 1.0
C      1  0.4926080000000  0.5035390000000  0.4685900000000 1.0
C      1  0.5635940000000  0.5273430000000  0.4862190000000 1.0
C      1  0.4097150000000  0.5286660000000  0.4410730000000 1.0
C      1  0.5285390000000  0.5416590000000  0.5181340000000 1.0
C      1  0.4909310000000  0.5606730000000  0.5585170000000 1.0
C      1  0.4292900000000  0.4741930000000  0.4299180000000 1.0
C      1  0.4371580000000  0.5316460000000  0.5637650000000 1.0
C      1  0.4947110000000  0.5124610000000  0.5961540000000 1.0
C      1  0.4566170000000  0.4835740000000  0.5502390000000 1.0
C      1  0.5733620000000  0.5277540000000  0.5372080000000 1.0
C      1  0.4317630000000  0.4349380000000  0.4631330000000 1.0
C      1  0.5186400000000  0.4003620000000  0.4987830000000 1.0
C      1  0.4168170000000  0.5290110000000  0.5058960000000 1.0
C      1  0.5239470000000  0.5400160000000  0.4123540000000 1.0
C      1  0.5513260000000  0.5203170000000  0.5142240000000 1.0
C      1  0.5492490000000  0.5674910000000  0.4548220000000 1.0
C      1  0.4704710000000  0.5397390000000  0.4988980000000 1.0
C      1  0.4905190000000  0.4977890000000  0.5659990000000 1.0
END
