TITL C-2778432-5617-43 -0.00138328865467962 125000 -795.943258411773 0 0 138 (C1) n - 1
REM
REM in /home/nfs/bkarasulu/CARBON/AIRSS/Generating-Clusters/REBO/Only-C1/SD-CG/HFTN-CG
REM
REM
REM
REM
REM
REM ./C.cell (11c1c37f851c82e70ff6c80c92926a4b)
REM
REM compiler GCC version 9.2.1 20190827 (Red Hat 9.2.1-1)
REM options -cpp -mtune=generic -march=x86-64 -g -O0 -fpre-include=/usr/include/finclude/math-vector-fortran.h
REM seed -478676420 3305904 2034062806 -416208798 -289557999 -798054228 1953247222 65684007 -937285089 1426923641 -951726136 1042203224 1364015978 1054718696 922339740 -1000278821 1769784625 -2048215574 1483552629 1943476602 347798607 746319126 -857055746 694890155 -1265275117 -270411748 921874559 -1797619679 -1722083053 1151253307 1901741657 -838936700 -1897095672
REM
CELL 1.54180   50.00000   50.00000   50.00000   90.00000   90.00000   90.00000
LATT -1
SFAC C  
C      1  0.5077910000000  0.5609180000000  0.4427880000000 1.0
C      1  0.4214730000000  0.5069410000000  0.5168940000000 1.0
C      1  0.4631600000000  0.5591000000000  0.4806540000000 1.0
C      1  0.5155180000000  0.4529530000000  0.5521360000000 1.0
C      1  0.5409740000000  0.5508360000000  0.5660950000000 1.0
C      1  0.5094420000000  0.4796220000000  0.5981450000000 1.0
C      1  0.5120830000000  0.4477660000000  0.4951100000000 1.0
C      1  0.4881080000000  0.5671860000000  0.5107650000000 1.0
C      1  0.5472740000000  0.4787250000000  0.4718090000000 1.0
C      1  0.4213290000000  0.4664990000000  0.4572460000000 1.0
C      1  0.5586040000000  0.5745630000000  0.5576830000000 1.0
C      1  0.5186950000000  0.5275950000000  0.5056360000000 1.0
C      1  0.5633920000000  0.4541000000000  0.4257450000000 1.0
C      1  0.4290140000000  0.5504160000000  0.5622400000000 1.0
C      1  0.4662710000000  0.4446890000000  0.5755430000000 1.0
C      1  0.5373430000000  0.5254260000000  0.4178630000000 1.0
C      1  0.4421470000000  0.4800940000000  0.4406340000000 1.0
C      1  0.5840540000000  0.4347290000000  0.5061480000000 1.0
C      1  0.5316660000000  0.4231440000000  0.4509840000000 1.0
C      1  0.4454910000000  0.4993370000000  0.5727060000000 1.0
C      1  0.4453700000000  0.4217730000000  0.4839160000000 1.0
C      1  0.5276230000000  0.4598780000000  0.5784170000000 1.0
C      1  0.5649780000000  0.5890560000000  0.5360400000000 1.0
C      1  0.4967430000000  0.5259610000000  0.5722310000000 1.0
C      1  0.5310790000000  0.5055480000000  0.5256280000000 1.0
C      1  0.5146220000000  0.4489950000000  0.4247880000000 1.0
C      1  0.4480460000000  0.5459380000000  0.5834170000000 1.0
C      1  0.5215580000000  0.5040980000000  0.4011300000000 1.0
C      1  0.4695340000000  0.4243820000000  0.4326090000000 1.0
C      1  0.4714710000000  0.5478350000000  0.5281940000000 1.0
C      1  0.4744030000000  0.4198080000000  0.5289790000000 1.0
C      1  0.5571920000000  0.5243470000000  0.5671850000000 1.0
C      1  0.5780420000000  0.5244070000000  0.4520610000000 1.0
C      1  0.5303750000000  0.4272470000000  0.5082060000000 1.0
C      1  0.4775450000000  0.5532430000000  0.5784580000000 1.0
C      1  0.4882990000000  0.5386870000000  0.4706960000000 1.0
C      1  0.4556270000000  0.4988280000000  0.4155060000000 1.0
C      1  0.5102230000000  0.5983360000000  0.5222960000000 1.0
C      1  0.5647940000000  0.4689690000000  0.5163490000000 1.0
C      1  0.4330150000000  0.5194770000000  0.4305060000000 1.0
C      1  0.5601550000000  0.4643030000000  0.5746060000000 1.0
C      1  0.4553150000000  0.5713340000000  0.4433910000000 1.0
C      1  0.4891230000000  0.5241270000000  0.5210990000000 1.0
C      1  0.5949170000000  0.4900770000000  0.5005260000000 1.0
C      1  0.5572510000000  0.5052730000000  0.4350820000000 1.0
C      1  0.3924920000000  0.4797250000000  0.5180980000000 1.0
C      1  0.5024890000000  0.4208330000000  0.4336090000000 1.0
C      1  0.5208200000000  0.4753340000000  0.3954570000000 1.0
C      1  0.5102850000000  0.5633780000000  0.5758580000000 1.0
C      1  0.5146990000000  0.5584630000000  0.5066000000000 1.0
C      1  0.5127590000000  0.5446130000000  0.5482010000000 1.0
C      1  0.4574580000000  0.5849420000000  0.5321180000000 1.0
C      1  0.5794170000000  0.5522450000000  0.4806830000000 1.0
C      1  0.5573910000000  0.5115880000000  0.5362780000000 1.0
C      1  0.4855540000000  0.5118450000000  0.4903410000000 1.0
C      1  0.5254200000000  0.5008240000000  0.4467300000000 1.0
C      1  0.4131920000000  0.5021440000000  0.5495300000000 1.0
C      1  0.4815400000000  0.4664590000000  0.5940100000000 1.0
C      1  0.4913750000000  0.4616020000000  0.4052470000000 1.0
C      1  0.4789060000000  0.5695370000000  0.5520170000000 1.0
C      1  0.4836060000000  0.5001800000000  0.4611970000000 1.0
C      1  0.4913960000000  0.4149320000000  0.4647360000000 1.0
C      1  0.4540880000000  0.5074130000000  0.4542620000000 1.0
C      1  0.4333880000000  0.4762540000000  0.5393830000000 1.0
C      1  0.4593870000000  0.5094520000000  0.5433670000000 1.0
C      1  0.4823350000000  0.4842350000000  0.4245610000000 1.0
C      1  0.5312460000000  0.4690050000000  0.4467930000000 1.0
C      1  0.4449410000000  0.5209600000000  0.5940580000000 1.0
C      1  0.4776710000000  0.5554550000000  0.4276550000000 1.0
C      1  0.5610290000000  0.4622510000000  0.4890500000000 1.0
C      1  0.4418040000000  0.4558330000000  0.5652500000000 1.0
C      1  0.4636940000000  0.5310740000000  0.4084840000000 1.0
C      1  0.4610280000000  0.4630780000000  0.4606000000000 1.0
C      1  0.4713080000000  0.4834890000000  0.5703940000000 1.0
C      1  0.5335180000000  0.5480400000000  0.4379530000000 1.0
C      1  0.5598610000000  0.4354720000000  0.4472430000000 1.0
C      1  0.5105450000000  0.4831510000000  0.5378270000000 1.0
C      1  0.4094980000000  0.4534590000000  0.5083230000000 1.0
C      1  0.4747530000000  0.3960450000000  0.5190490000000 1.0
C      1  0.5565420000000  0.5484240000000  0.4557340000000 1.0
C      1  0.5292090000000  0.5241920000000  0.6081260000000 1.0
C      1  0.4911080000000  0.6184110000000  0.5029920000000 1.0
C      1  0.5607540000000  0.5880160000000  0.5082370000000 1.0
C      1  0.5031250000000  0.5069820000000  0.4269690000000 1.0
C      1  0.5437110000000  0.4831590000000  0.5968880000000 1.0
C      1  0.4316390000000  0.5603150000000  0.4554630000000 1.0
C      1  0.5949210000000  0.4962000000000  0.4445000000000 1.0
C      1  0.5730470000000  0.4947650000000  0.5684150000000 1.0
C      1  0.5081110000000  0.5931040000000  0.4880150000000 1.0
C      1  0.5518830000000  0.5123610000000  0.5966720000000 1.0
C      1  0.4189420000000  0.5413180000000  0.4379950000000 1.0
C      1  0.5647610000000  0.5228770000000  0.4896490000000 1.0
C      1  0.4687830000000  0.4393480000000  0.4079260000000 1.0
C      1  0.4914600000000  0.5079910000000  0.5466160000000 1.0
C      1  0.4866270000000  0.4374830000000  0.5519770000000 1.0
C      1  0.4680850000000  0.4697710000000  0.4913240000000 1.0
C      1  0.4103710000000  0.5063110000000  0.4787540000000 1.0
C      1  0.4209880000000  0.5479880000000  0.5116870000000 1.0
C      1  0.5815090000000  0.5074980000000  0.5223840000000 1.0
C      1  0.4801970000000  0.4697370000000  0.5442550000000 1.0
C      1  0.5989660000000  0.5091670000000  0.4742930000000 1.0
C      1  0.4933520000000  0.5724270000000  0.4714750000000 1.0
C      1  0.4343840000000  0.4360490000000  0.5072800000000 1.0
C      1  0.5199040000000  0.5176560000000  0.4746680000000 1.0
C      1  0.4714920000000  0.4064210000000  0.4805880000000 1.0
C      1  0.4915940000000  0.4634900000000  0.5038390000000 1.0
C      1  0.3897300000000  0.5127070000000  0.5203130000000 1.0
C      1  0.4429070000000  0.4748430000000  0.5085290000000 1.0
C      1  0.5617810000000  0.4294610000000  0.5214930000000 1.0
C      1  0.5687320000000  0.4737460000000  0.5431260000000 1.0
C      1  0.5294840000000  0.4001420000000  0.4938370000000 1.0
C      1  0.5089210000000  0.5788220000000  0.5447180000000 1.0
C      1  0.5758010000000  0.4391000000000  0.4729110000000 1.0
C      1  0.4588060000000  0.5288300000000  0.4956350000000 1.0
C      1  0.4859480000000  0.5278010000000  0.4412720000000 1.0
C      1  0.4599230000000  0.4500690000000  0.5251450000000 1.0
C      1  0.4732730000000  0.5932470000000  0.5082420000000 1.0
C      1  0.6091720000000  0.4418310000000  0.4758950000000 1.0
C      1  0.5355810000000  0.5792170000000  0.4994900000000 1.0
C      1  0.4297320000000  0.5567440000000  0.4861060000000 1.0
C      1  0.4474440000000  0.5172170000000  0.5189250000000 1.0
C      1  0.5469500000000  0.5057020000000  0.4798690000000 1.0
C      1  0.5817790000000  0.5805060000000  0.4910490000000 1.0
C      1  0.5999020000000  0.4625630000000  0.4983730000000 1.0
C      1  0.4074870000000  0.5350120000000  0.5406420000000 1.0
C      1  0.4553010000000  0.4336010000000  0.4562770000000 1.0
C      1  0.4405020000000  0.5566350000000  0.5341790000000 1.0
C      1  0.5413650000000  0.4564610000000  0.4087030000000 1.0
C      1  0.5331510000000  0.3979070000000  0.4691000000000 1.0
C      1  0.5760610000000  0.4782360000000  0.4304100000000 1.0
C      1  0.4294970000000  0.5202680000000  0.4702760000000 1.0
C      1  0.4168810000000  0.4770760000000  0.4867240000000 1.0
C      1  0.5066710000000  0.5122080000000  0.5972550000000 1.0
C      1  0.5358750000000  0.4360280000000  0.5386910000000 1.0
C      1  0.5087290000000  0.4442080000000  0.4651350000000 1.0
C      1  0.4918890000000  0.4689080000000  0.4535600000000 1.0
C      1  0.5956280000000  0.5298690000000  0.5007670000000 1.0
C      1  0.4196040000000  0.4796990000000  0.5735220000000 1.0
END
