TITL C-2778436-5916-1324 0.000494710862584086 125000 -1085.71206292819 0 0 186 (C1) n - 1
REM
REM in /home/nfs/bkarasulu/CARBON/AIRSS/Generating-Clusters/REBO/Only-C1/SD-CG/HFTN-CG
REM
REM
REM
REM
REM
REM ./C.cell (11c1c37f851c82e70ff6c80c92926a4b)
REM
REM compiler GCC version 9.2.1 20190827 (Red Hat 9.2.1-1)
REM options -cpp -mtune=generic -march=x86-64 -g -O0 -fpre-include=/usr/include/finclude/math-vector-fortran.h
REM seed -1605877682 1285554619 601866203 1297502011 -1564088874 790705881 1153434575 -438768371 1441769417 713763738 -1426808437 -1884038131 -49576248 1221377339 -1698974541 -1762471457 -412481770 704723363 -1829875457 2089839705 -1910203369 -1250649171 1849771856 -660232907 1893863024 -1572732492 290008540 -1707932318 742018305 1735108590 -538010111 1995947326 -806275659
REM
CELL 1.54180   50.00000   50.00000   50.00000   90.00000   90.00000   90.00000
LATT -1
SFAC C  
C      1  0.4972280000000  0.4634080000000  0.4689030000000 1.0
C      1  0.4309160000000  0.4279560000000  0.5701100000000 1.0
C      1  0.4681840000000  0.3911230000000  0.4710090000000 1.0
C      1  0.4792390000000  0.4555010000000  0.4093650000000 1.0
C      1  0.5826580000000  0.5583860000000  0.4696470000000 1.0
C      1  0.5069190000000  0.5626320000000  0.5388890000000 1.0
C      1  0.4981390000000  0.4302650000000  0.4208410000000 1.0
C      1  0.4437100000000  0.4503620000000  0.4887550000000 1.0
C      1  0.5927690000000  0.4988100000000  0.4537840000000 1.0
C      1  0.5441020000000  0.4495670000000  0.4123030000000 1.0
C      1  0.5110500000000  0.5822420000000  0.5733870000000 1.0
C      1  0.5448050000000  0.4476670000000  0.5728100000000 1.0
C      1  0.4031500000000  0.5518180000000  0.4618140000000 1.0
C      1  0.5197080000000  0.4560790000000  0.5010930000000 1.0
C      1  0.4731520000000  0.4470780000000  0.5149610000000 1.0
C      1  0.5811200000000  0.5258670000000  0.5584560000000 1.0
C      1  0.4443430000000  0.5257780000000  0.5840620000000 1.0
C      1  0.4323160000000  0.5141410000000  0.4571190000000 1.0
C      1  0.5269160000000  0.5169420000000  0.5510770000000 1.0
C      1  0.5141420000000  0.6024420000000  0.4576500000000 1.0
C      1  0.5760380000000  0.5275240000000  0.4613040000000 1.0
C      1  0.5989170000000  0.5565840000000  0.5202450000000 1.0
C      1  0.4713260000000  0.6051900000000  0.4863730000000 1.0
C      1  0.4322520000000  0.4804430000000  0.4511270000000 1.0
C      1  0.5285850000000  0.5056530000000  0.4973000000000 1.0
C      1  0.4342920000000  0.5807340000000  0.5361610000000 1.0
C      1  0.3950360000000  0.4912570000000  0.4956060000000 1.0
C      1  0.5220320000000  0.4882160000000  0.6155170000000 1.0
C      1  0.4491250000000  0.5598670000000  0.5131030000000 1.0
C      1  0.4251580000000  0.5060850000000  0.5417970000000 1.0
C      1  0.4157030000000  0.5603900000000  0.5172580000000 1.0
C      1  0.4382470000000  0.5257500000000  0.4957160000000 1.0
C      1  0.5156830000000  0.4800920000000  0.4184660000000 1.0
C      1  0.5612020000000  0.5475430000000  0.5104600000000 1.0
C      1  0.4239540000000  0.4583020000000  0.5639210000000 1.0
C      1  0.4418920000000  0.6012870000000  0.4980030000000 1.0
C      1  0.4977260000000  0.4341230000000  0.5744800000000 1.0
C      1  0.4850900000000  0.5863320000000  0.5642660000000 1.0
C      1  0.4094850000000  0.4107650000000  0.5724980000000 1.0
C      1  0.4717810000000  0.4978950000000  0.6130740000000 1.0
C      1  0.4391740000000  0.5677640000000  0.5624990000000 1.0
C      1  0.5967720000000  0.5608100000000  0.4931370000000 1.0
C      1  0.4300760000000  0.4581840000000  0.5107150000000 1.0
C      1  0.5848580000000  0.4894520000000  0.5181790000000 1.0
C      1  0.4801140000000  0.5678280000000  0.5211990000000 1.0
C      1  0.5854760000000  0.4736050000000  0.5584420000000 1.0
C      1  0.4890910000000  0.5163870000000  0.4743440000000 1.0
C      1  0.4685230000000  0.4792520000000  0.5568200000000 1.0
C      1  0.5844080000000  0.4662510000000  0.4599400000000 1.0
C      1  0.5285480000000  0.4537370000000  0.4615410000000 1.0
C      1  0.3992350000000  0.4594990000000  0.4854140000000 1.0
C      1  0.4247770000000  0.5428900000000  0.5650490000000 1.0
C      1  0.5001940000000  0.6172280000000  0.4781500000000 1.0
C      1  0.4848630000000  0.4972940000000  0.5099300000000 1.0
C      1  0.4914230000000  0.4975850000000  0.5418400000000 1.0
C      1  0.4717830000000  0.5249540000000  0.5014930000000 1.0
C      1  0.4216830000000  0.5724330000000  0.4642090000000 1.0
C      1  0.5592110000000  0.4743830000000  0.5673720000000 1.0
C      1  0.4127380000000  0.4689810000000  0.5271560000000 1.0
C      1  0.4578190000000  0.4663490000000  0.4334910000000 1.0
C      1  0.4086440000000  0.4324220000000  0.4823790000000 1.0
C      1  0.4695440000000  0.4042170000000  0.5393830000000 1.0
C      1  0.5471000000000  0.3978180000000  0.4699890000000 1.0
C      1  0.4966970000000  0.4142300000000  0.5920140000000 1.0
C      1  0.5045260000000  0.5360270000000  0.5548280000000 1.0
C      1  0.5436170000000  0.5984410000000  0.5219820000000 1.0
C      1  0.4954520000000  0.5545420000000  0.4054410000000 1.0
C      1  0.4917010000000  0.4732300000000  0.3875360000000 1.0
C      1  0.5689740000000  0.4312790000000  0.5300520000000 1.0
C      1  0.4634590000000  0.5580960000000  0.4165280000000 1.0
C      1  0.5202790000000  0.4662660000000  0.5691320000000 1.0
C      1  0.4855250000000  0.6022980000000  0.5404380000000 1.0
C      1  0.4104630000000  0.5243070000000  0.4795010000000 1.0
C      1  0.6165750000000  0.5025770000000  0.4361070000000 1.0
C      1  0.4767660000000  0.5863390000000  0.4385440000000 1.0
C      1  0.4723380000000  0.5259080000000  0.6010240000000 1.0
C      1  0.5559130000000  0.5761580000000  0.4626430000000 1.0
C      1  0.3945490000000  0.5016090000000  0.4590070000000 1.0
C      1  0.4555640000000  0.4394880000000  0.4522120000000 1.0
C      1  0.6661010000000  0.4969200000000  0.5055520000000 1.0
C      1  0.4970510000000  0.6015420000000  0.5084260000000 1.0
C      1  0.4763010000000  0.5357580000000  0.5621770000000 1.0
C      1  0.5529500000000  0.4236530000000  0.5579440000000 1.0
C      1  0.5240590000000  0.5760120000000  0.4720860000000 1.0
C      1  0.4743070000000  0.5446500000000  0.4667090000000 1.0
C      1  0.5244970000000  0.5246360000000  0.4446310000000 1.0
C      1  0.5069060000000  0.5934850000000  0.4299310000000 1.0
C      1  0.4550220000000  0.5096700000000  0.5566900000000 1.0
C      1  0.4969550000000  0.4592650000000  0.4377280000000 1.0
C      1  0.4602970000000  0.5820490000000  0.4681680000000 1.0
C      1  0.5986900000000  0.4523860000000  0.5144990000000 1.0
C      1  0.4239150000000  0.4277470000000  0.4577610000000 1.0
C      1  0.5295180000000  0.5884100000000  0.5487230000000 1.0
C      1  0.5431030000000  0.4990790000000  0.5683700000000 1.0
C      1  0.5518750000000  0.5780580000000  0.4314250000000 1.0
C      1  0.5601070000000  0.4804280000000  0.4316800000000 1.0
C      1  0.4638750000000  0.4753930000000  0.5232280000000 1.0
C      1  0.3976400000000  0.5297020000000  0.4423600000000 1.0
C      1  0.5040200000000  0.4909140000000  0.5704370000000 1.0
C      1  0.4772880000000  0.3992160000000  0.5006460000000 1.0
C      1  0.4927920000000  0.4785470000000  0.6065220000000 1.0
C      1  0.5345940000000  0.4830340000000  0.4533320000000 1.0
C      1  0.5288720000000  0.5041280000000  0.3983340000000 1.0
C      1  0.4577140000000  0.4385350000000  0.5876210000000 1.0
C      1  0.5146580000000  0.4317140000000  0.5498740000000 1.0
C      1  0.5481200000000  0.4475490000000  0.4880630000000 1.0
C      1  0.5852120000000  0.4280850000000  0.4999590000000 1.0
C      1  0.5244750000000  0.5678180000000  0.4181980000000 1.0
C      1  0.5362100000000  0.3931950000000  0.5020260000000 1.0
C      1  0.4941690000000  0.3940710000000  0.4536430000000 1.0
C      1  0.5721210000000  0.5200480000000  0.5259740000000 1.0
C      1  0.5452290000000  0.5518880000000  0.5769060000000 1.0
C      1  0.4003420000000  0.5075370000000  0.5185980000000 1.0
C      1  0.5196180000000  0.4694890000000  0.5383500000000 1.0
C      1  0.5239300000000  0.4650410000000  0.3892220000000 1.0
C      1  0.4385440000000  0.4843600000000  0.4117500000000 1.0
C      1  0.5182040000000  0.5576670000000  0.5855570000000 1.0
C      1  0.5028920000000  0.5241350000000  0.3920130000000 1.0
C      1  0.5658210000000  0.4474630000000  0.4385170000000 1.0
C      1  0.5836480000000  0.5543690000000  0.5427620000000 1.0
C      1  0.5064230000000  0.4972940000000  0.4437890000000 1.0
C      1  0.5001250000000  0.4449000000000  0.5243100000000 1.0
C      1  0.4759540000000  0.4423520000000  0.4800510000000 1.0
C      1  0.5212680000000  0.4985370000000  0.5262490000000 1.0
C      1  0.5126530000000  0.5098990000000  0.5918680000000 1.0
C      1  0.5547930000000  0.5095640000000  0.4474420000000 1.0
C      1  0.4461830000000  0.4559670000000  0.6115830000000 1.0
C      1  0.5314520000000  0.4047620000000  0.5483920000000 1.0
C      1  0.4558250000000  0.5043150000000  0.3980800000000 1.0
C      1  0.4933590000000  0.3886550000000  0.5259480000000 1.0
C      1  0.5515840000000  0.4811820000000  0.4011760000000 1.0
C      1  0.5595500000000  0.5106290000000  0.4958040000000 1.0
C      1  0.5275430000000  0.4204140000000  0.4852550000000 1.0
C      1  0.5544690000000  0.5651520000000  0.5491950000000 1.0
C      1  0.4803450000000  0.4606900000000  0.5803910000000 1.0
C      1  0.4096250000000  0.5356700000000  0.5354620000000 1.0
C      1  0.5065660000000  0.4836530000000  0.4922160000000 1.0
C      1  0.5972510000000  0.5004260000000  0.5499980000000 1.0
C      1  0.4883150000000  0.4043560000000  0.4246370000000 1.0
C      1  0.6174220000000  0.4957620000000  0.5242170000000 1.0
C      1  0.5624820000000  0.5301200000000  0.5833470000000 1.0
C      1  0.4997020000000  0.5369850000000  0.5945230000000 1.0
C      1  0.4518780000000  0.5543780000000  0.4833060000000 1.0
C      1  0.5670700000000  0.5792150000000  0.5125500000000 1.0
C      1  0.4316680000000  0.4974710000000  0.5894340000000 1.0
C      1  0.4459530000000  0.4845200000000  0.6101920000000 1.0
C      1  0.5280660000000  0.4344930000000  0.4364260000000 1.0
C      1  0.4971430000000  0.5477340000000  0.4993940000000 1.0
C      1  0.5536850000000  0.5958800000000  0.4895730000000 1.0
C      1  0.4246970000000  0.5255560000000  0.4259540000000 1.0
C      1  0.4982710000000  0.5430900000000  0.4354630000000 1.0
C      1  0.4547210000000  0.4195320000000  0.5140360000000 1.0
C      1  0.4966800000000  0.5664750000000  0.4573720000000 1.0
C      1  0.5147930000000  0.5757810000000  0.5020330000000 1.0
C      1  0.5393470000000  0.4442640000000  0.5268430000000 1.0
C      1  0.4233560000000  0.5811990000000  0.4912180000000 1.0
C      1  0.4226830000000  0.4829740000000  0.4802360000000 1.0
C      1  0.5245090000000  0.4050640000000  0.4484480000000 1.0
C      1  0.5740950000000  0.4913900000000  0.4799070000000 1.0
C      1  0.5291900000000  0.5346600000000  0.4118280000000 1.0
C      1  0.6416370000000  0.4963380000000  0.5149320000000 1.0
C      1  0.4668640000000  0.5634660000000  0.5671790000000 1.0
C      1  0.4975530000000  0.4164260000000  0.4793820000000 1.0
C      1  0.4717990000000  0.5246120000000  0.4392690000000 1.0
C      1  0.4475410000000  0.4083380000000  0.4637760000000 1.0
C      1  0.4112190000000  0.4944280000000  0.4296830000000 1.0
C      1  0.4238390000000  0.4851350000000  0.5655680000000 1.0
C      1  0.4590420000000  0.5024540000000  0.4709750000000 1.0
C      1  0.5827700000000  0.4351940000000  0.4724490000000 1.0
C      1  0.4445680000000  0.5754110000000  0.4390570000000 1.0
C      1  0.4466210000000  0.4929520000000  0.5001440000000 1.0
C      1  0.4517360000000  0.5291200000000  0.4149380000000 1.0
C      1  0.5506400000000  0.5386140000000  0.4813790000000 1.0
C      1  0.5187170000000  0.5311870000000  0.4780860000000 1.0
C      1  0.5220940000000  0.3890660000000  0.5265890000000 1.0
C      1  0.5341670000000  0.5592430000000  0.5224370000000 1.0
C      1  0.4240380000000  0.4192470000000  0.5042910000000 1.0
C      1  0.4608890000000  0.4140420000000  0.5642110000000 1.0
C      1  0.4818180000000  0.5005640000000  0.3878530000000 1.0
C      1  0.5929170000000  0.4513560000000  0.5436920000000 1.0
C      1  0.5664080000000  0.4177660000000  0.4544730000000 1.0
C      1  0.5450840000000  0.5079850000000  0.5998540000000 1.0
C      1  0.4761180000000  0.4924640000000  0.4454020000000 1.0
C      1  0.5709810000000  0.5880650000000  0.4160320000000 1.0
C      1  0.4602700000000  0.5963050000000  0.5236020000000 1.0
C      1  0.5717950000000  0.4653940000000  0.4978390000000 1.0
END
