TITL C-2778427-5640-887 -0.00223653542684435 125000 -1011.37929136668 0 0 170 (C1) n - 1
REM
REM in /home/nfs/bkarasulu/CARBON/AIRSS/Generating-Clusters/REBO/Only-C1/SD-CG/HFTN-CG
REM
REM
REM
REM
REM
REM ./C.cell (11c1c37f851c82e70ff6c80c92926a4b)
REM
REM compiler GCC version 9.2.1 20190827 (Red Hat 9.2.1-1)
REM options -cpp -mtune=generic -march=x86-64 -g -O0 -fpre-include=/usr/include/finclude/math-vector-fortran.h
REM seed 1971544803 1322686800 -1880247643 -1817737989 -471925879 -488296625 1998825113 968150473 519402948 730248152 837024958 -943699409 -74685602 -1617237114 1182079873 1999418064 -1047988958 324364152 -1909810327 -699492658 1083596632 -2119464936 528509972 1805778101 1212773923 1793484980 -1210964108 1369749131 -177079212 510509056 -222083941 1831945645 273099031
REM
CELL 1.54180   50.00000   50.00000   50.00000   90.00000   90.00000   90.00000
LATT -1
SFAC C  
C      1  0.4924560000000  0.4331680000000  0.5116570000000 1.0
C      1  0.5969150000000  0.5139790000000  0.5743670000000 1.0
C      1  0.5292690000000  0.4992230000000  0.4253270000000 1.0
C      1  0.4704540000000  0.4201220000000  0.5345090000000 1.0
C      1  0.5436830000000  0.5413970000000  0.6096150000000 1.0
C      1  0.4574750000000  0.5436830000000  0.4065430000000 1.0
C      1  0.5483080000000  0.5003180000000  0.4020680000000 1.0
C      1  0.4762780000000  0.4834780000000  0.4776080000000 1.0
C      1  0.4253740000000  0.4580060000000  0.4420980000000 1.0
C      1  0.4279420000000  0.4457310000000  0.5622450000000 1.0
C      1  0.5419380000000  0.5589770000000  0.4374230000000 1.0
C      1  0.5083960000000  0.4243620000000  0.5582320000000 1.0
C      1  0.5686600000000  0.5884460000000  0.4788310000000 1.0
C      1  0.4037730000000  0.5398870000000  0.4572640000000 1.0
C      1  0.5666900000000  0.5737220000000  0.5314030000000 1.0
C      1  0.4286790000000  0.4876690000000  0.5415230000000 1.0
C      1  0.5587430000000  0.4923770000000  0.4653900000000 1.0
C      1  0.4873340000000  0.5181060000000  0.4310350000000 1.0
C      1  0.4408760000000  0.5673540000000  0.4418270000000 1.0
C      1  0.4383540000000  0.4457020000000  0.5124330000000 1.0
C      1  0.4570760000000  0.4983240000000  0.5402790000000 1.0
C      1  0.4969270000000  0.5242130000000  0.4942460000000 1.0
C      1  0.4223060000000  0.4944480000000  0.5900750000000 1.0
C      1  0.5780530000000  0.4443340000000  0.4512650000000 1.0
C      1  0.5408810000000  0.4760610000000  0.5310240000000 1.0
C      1  0.4596110000000  0.5128060000000  0.4028500000000 1.0
C      1  0.4863680000000  0.5570360000000  0.4740880000000 1.0
C      1  0.5674800000000  0.4163670000000  0.4958740000000 1.0
C      1  0.5026300000000  0.4928060000000  0.4443210000000 1.0
C      1  0.4874130000000  0.5783720000000  0.4249240000000 1.0
C      1  0.4402390000000  0.4700320000000  0.4675950000000 1.0
C      1  0.5391400000000  0.4768840000000  0.4465650000000 1.0
C      1  0.5216320000000  0.4157540000000  0.5098830000000 1.0
C      1  0.5737120000000  0.5653570000000  0.5012980000000 1.0
C      1  0.5106480000000  0.4378240000000  0.6222820000000 1.0
C      1  0.5375130000000  0.4144600000000  0.4550830000000 1.0
C      1  0.4325310000000  0.5785060000000  0.5222110000000 1.0
C      1  0.4636090000000  0.3944250000000  0.4579140000000 1.0
C      1  0.5223100000000  0.4717090000000  0.5570910000000 1.0
C      1  0.5048470000000  0.4390610000000  0.5951880000000 1.0
C      1  0.5756310000000  0.5052530000000  0.4103370000000 1.0
C      1  0.4690270000000  0.5746360000000  0.4508160000000 1.0
C      1  0.4224220000000  0.4117000000000  0.4992880000000 1.0
C      1  0.4396040000000  0.4453730000000  0.4210840000000 1.0
C      1  0.4243960000000  0.5269470000000  0.5109200000000 1.0
C      1  0.5163080000000  0.5501010000000  0.4888140000000 1.0
C      1  0.4750470000000  0.5337060000000  0.5444380000000 1.0
C      1  0.4801530000000  0.4350020000000  0.5844000000000 1.0
C      1  0.4821100000000  0.3914960000000  0.5099520000000 1.0
C      1  0.4473540000000  0.4972410000000  0.4232890000000 1.0
C      1  0.4993020000000  0.4535920000000  0.5499010000000 1.0
C      1  0.5759420000000  0.4945840000000  0.5741720000000 1.0
C      1  0.6020900000000  0.5190550000000  0.5281630000000 1.0
C      1  0.4398040000000  0.4907740000000  0.4918470000000 1.0
C      1  0.4907400000000  0.5128900000000  0.5244920000000 1.0
C      1  0.4211290000000  0.4886200000000  0.4380400000000 1.0
C      1  0.5901120000000  0.4447800000000  0.5123600000000 1.0
C      1  0.5583450000000  0.4182400000000  0.5465180000000 1.0
C      1  0.5524360000000  0.4532930000000  0.4982680000000 1.0
C      1  0.4506700000000  0.5253430000000  0.5240500000000 1.0
C      1  0.4888870000000  0.4566690000000  0.4040070000000 1.0
C      1  0.5083800000000  0.5805880000000  0.5515480000000 1.0
C      1  0.4836980000000  0.4059220000000  0.4445940000000 1.0
C      1  0.5542460000000  0.4343460000000  0.4409840000000 1.0
C      1  0.6082590000000  0.4915370000000  0.5199770000000 1.0
C      1  0.5374180000000  0.5192860000000  0.4587530000000 1.0
C      1  0.5977110000000  0.5176140000000  0.4508630000000 1.0
C      1  0.5968850000000  0.5326690000000  0.5524820000000 1.0
C      1  0.5162070000000  0.5235800000000  0.5395910000000 1.0
C      1  0.4577270000000  0.5393120000000  0.4674050000000 1.0
C      1  0.4856390000000  0.5692360000000  0.5060980000000 1.0
C      1  0.5340450000000  0.5699090000000  0.5363180000000 1.0
C      1  0.5069170000000  0.4414370000000  0.4235060000000 1.0
C      1  0.4690810000000  0.5403240000000  0.5054720000000 1.0
C      1  0.5035260000000  0.5397270000000  0.3998590000000 1.0
C      1  0.5441810000000  0.5953560000000  0.5167450000000 1.0
C      1  0.4793550000000  0.5775850000000  0.5946570000000 1.0
C      1  0.5369590000000  0.5288580000000  0.5866260000000 1.0
C      1  0.4596800000000  0.5323550000000  0.4375820000000 1.0
C      1  0.5405140000000  0.4112080000000  0.4869120000000 1.0
C      1  0.3966830000000  0.4649860000000  0.4939750000000 1.0
C      1  0.4678810000000  0.5912700000000  0.4804600000000 1.0
C      1  0.5785960000000  0.4666650000000  0.5591470000000 1.0
C      1  0.5150780000000  0.6046130000000  0.5318210000000 1.0
C      1  0.5694440000000  0.5516070000000  0.4386250000000 1.0
C      1  0.5575740000000  0.5364470000000  0.5100770000000 1.0
C      1  0.4199390000000  0.5585650000000  0.5013230000000 1.0
C      1  0.5795190000000  0.4424280000000  0.4806410000000 1.0
C      1  0.4306510000000  0.5710850000000  0.5525350000000 1.0
C      1  0.5292040000000  0.4458100000000  0.5750570000000 1.0
C      1  0.4346350000000  0.5205390000000  0.4790660000000 1.0
C      1  0.4182710000000  0.4835640000000  0.5105310000000 1.0
C      1  0.5638760000000  0.5308500000000  0.4721600000000 1.0
C      1  0.4825620000000  0.5631920000000  0.5394320000000 1.0
C      1  0.5321740000000  0.4737750000000  0.3953990000000 1.0
C      1  0.4589240000000  0.4315570000000  0.5624640000000 1.0
C      1  0.5299650000000  0.5677380000000  0.4631190000000 1.0
C      1  0.4634480000000  0.5918280000000  0.5183310000000 1.0
C      1  0.5511170000000  0.5077120000000  0.5739840000000 1.0
C      1  0.4682790000000  0.4931280000000  0.5084830000000 1.0
C      1  0.3945780000000  0.4804930000000  0.5347600000000 1.0
C      1  0.5155950000000  0.5302790000000  0.4457110000000 1.0
C      1  0.5903800000000  0.4804460000000  0.4151780000000 1.0
C      1  0.5423750000000  0.5921450000000  0.4718150000000 1.0
C      1  0.5757220000000  0.4177330000000  0.5249540000000 1.0
C      1  0.6008620000000  0.4677680000000  0.5333630000000 1.0
C      1  0.4616240000000  0.4336420000000  0.4965100000000 1.0
C      1  0.4121590000000  0.5004380000000  0.5643600000000 1.0
C      1  0.5161290000000  0.4366560000000  0.6478830000000 1.0
C      1  0.4823190000000  0.5590950000000  0.4038010000000 1.0
C      1  0.4837210000000  0.5884570000000  0.5701910000000 1.0
C      1  0.4069300000000  0.5291520000000  0.5578140000000 1.0
C      1  0.5158980000000  0.4715380000000  0.4667060000000 1.0
C      1  0.5503790000000  0.5074060000000  0.4939190000000 1.0
C      1  0.4889500000000  0.4391900000000  0.4516300000000 1.0
C      1  0.5340100000000  0.5005660000000  0.5508130000000 1.0
C      1  0.4514690000000  0.4548840000000  0.5393710000000 1.0
C      1  0.3991360000000  0.5136890000000  0.5285320000000 1.0
C      1  0.4499990000000  0.4010210000000  0.5163140000000 1.0
C      1  0.4233060000000  0.5498760000000  0.5693140000000 1.0
C      1  0.4590950000000  0.4891760000000  0.4504070000000 1.0
C      1  0.5801870000000  0.5589930000000  0.4683040000000 1.0
C      1  0.5291000000000  0.5444570000000  0.5200100000000 1.0
C      1  0.4591310000000  0.5850640000000  0.5507590000000 1.0
C      1  0.5136060000000  0.4113330000000  0.4378970000000 1.0
C      1  0.5039040000000  0.4218070000000  0.4750600000000 1.0
C      1  0.5364640000000  0.4541100000000  0.4223980000000 1.0
C      1  0.4544920000000  0.4962300000000  0.5916590000000 1.0
C      1  0.3881140000000  0.5172570000000  0.4978160000000 1.0
C      1  0.4092080000000  0.4393040000000  0.4968420000000 1.0
C      1  0.4404380000000  0.5443380000000  0.5933150000000 1.0
C      1  0.4977160000000  0.5991520000000  0.4725020000000 1.0
C      1  0.5890540000000  0.4878720000000  0.4621340000000 1.0
C      1  0.5906610000000  0.5313310000000  0.5049190000000 1.0
C      1  0.4125540000000  0.4519870000000  0.5344020000000 1.0
C      1  0.5306430000000  0.4088880000000  0.5396380000000 1.0
C      1  0.4359730000000  0.5185340000000  0.6061090000000 1.0
C      1  0.4868230000000  0.5318810000000  0.5823100000000 1.0
C      1  0.5236640000000  0.5437730000000  0.4189440000000 1.0
C      1  0.4698440000000  0.5088920000000  0.5681230000000 1.0
C      1  0.5819030000000  0.5273110000000  0.4292740000000 1.0
C      1  0.6023680000000  0.5204430000000  0.4805080000000 1.0
C      1  0.5176830000000  0.6057040000000  0.4975200000000 1.0
C      1  0.5586700000000  0.4399490000000  0.5662950000000 1.0
C      1  0.4879870000000  0.6110870000000  0.5135500000000 1.0
C      1  0.5904480000000  0.4671850000000  0.4405570000000 1.0
C      1  0.5848970000000  0.5595970000000  0.5527250000000 1.0
C      1  0.5886940000000  0.5743420000000  0.5761820000000 1.0
C      1  0.4693980000000  0.5511860000000  0.5944870000000 1.0
C      1  0.5018190000000  0.4650260000000  0.5033230000000 1.0
C      1  0.4933160000000  0.3999130000000  0.4866020000000 1.0
C      1  0.5320110000000  0.4809290000000  0.5020580000000 1.0
C      1  0.4792410000000  0.4654730000000  0.5361250000000 1.0
C      1  0.5635980000000  0.4560000000000  0.5303700000000 1.0
C      1  0.4500710000000  0.5637230000000  0.4890230000000 1.0
C      1  0.4269670000000  0.5421640000000  0.4421170000000 1.0
C      1  0.4139170000000  0.5015680000000  0.4624030000000 1.0
C      1  0.5128790000000  0.5334160000000  0.5712440000000 1.0
C      1  0.4917650000000  0.5079970000000  0.3986170000000 1.0
C      1  0.5222420000000  0.4465660000000  0.4843960000000 1.0
C      1  0.4513920000000  0.4055610000000  0.4825600000000 1.0
C      1  0.4618270000000  0.4499330000000  0.4061070000000 1.0
C      1  0.6072830000000  0.4911520000000  0.4907610000000 1.0
C      1  0.3977640000000  0.5413560000000  0.4849820000000 1.0
C      1  0.4977680000000  0.3999710000000  0.5375980000000 1.0
C      1  0.3929860000000  0.4934900000000  0.4812650000000 1.0
C      1  0.5022180000000  0.5010930000000  0.4770440000000 1.0
C      1  0.4800710000000  0.4531880000000  0.4794160000000 1.0
C      1  0.5031790000000  0.5946580000000  0.4454940000000 1.0
C      1  0.5031410000000  0.4791790000000  0.3936960000000 1.0
END
