TITL C-2778425-5191-229 0.00361806495964765 125000 -366.61159210307 0 0 63 (C1) n - 1
REM
REM in /home/nfs/bkarasulu/CARBON/AIRSS/Generating-Clusters/REBO/Only-C1/SD-CG/HFTN-CG
REM
REM
REM
REM
REM
REM ./C.cell (11c1c37f851c82e70ff6c80c92926a4b)
REM
REM compiler GCC version 9.2.1 20190827 (Red Hat 9.2.1-1)
REM options -cpp -mtune=generic -march=x86-64 -g -O0 -fpre-include=/usr/include/finclude/math-vector-fortran.h
REM seed -215384295 -247222547 -141001485 -1325767880 1115007766 2078954181 628166507 -43323076 1176755413 -418817613 24908715 -1937337414 156375866 604896180 -1339044450 684031445 137674763 762303285 -607002975 -153300633 1903129932 -1477955339 -522122286 -1756131119 -315220806 -561217163 1917216843 -381334205 1904991441 501261407 520934483 1561236709 1429318763
REM
CELL 1.54180   50.00000   50.00000   50.00000   90.00000   90.00000   90.00000
LATT -1
SFAC C  
C      1  0.4299000000000  0.5279140000000  0.4934380000000 1.0
C      1  0.4873560000000  0.4995680000000  0.5517500000000 1.0
C      1  0.5382550000000  0.4602530000000  0.5341560000000 1.0
C      1  0.4896750000000  0.5176230000000  0.4725140000000 1.0
C      1  0.4782970000000  0.4396930000000  0.5156180000000 1.0
C      1  0.4695430000000  0.5213870000000  0.5601080000000 1.0
C      1  0.4655660000000  0.4934100000000  0.5084860000000 1.0
C      1  0.5051870000000  0.4545650000000  0.4462520000000 1.0
C      1  0.4746880000000  0.4705550000000  0.5548630000000 1.0
C      1  0.5722590000000  0.4436480000000  0.5013510000000 1.0
C      1  0.4922350000000  0.4355100000000  0.4629110000000 1.0
C      1  0.4835160000000  0.5581510000000  0.5383270000000 1.0
C      1  0.5330900000000  0.4773810000000  0.5102600000000 1.0
C      1  0.5091840000000  0.5127020000000  0.5374480000000 1.0
C      1  0.5050750000000  0.4722440000000  0.4957880000000 1.0
C      1  0.4488050000000  0.5261420000000  0.5401960000000 1.0
C      1  0.4969450000000  0.4626450000000  0.4216440000000 1.0
C      1  0.5166610000000  0.5001330000000  0.4805910000000 1.0
C      1  0.4618820000000  0.5665620000000  0.4940830000000 1.0
C      1  0.5689020000000  0.4659860000000  0.5218870000000 1.0
C      1  0.5366070000000  0.5068320000000  0.5417580000000 1.0
C      1  0.4292930000000  0.4769440000000  0.4912800000000 1.0
C      1  0.5516770000000  0.4884150000000  0.4653500000000 1.0
C      1  0.5302630000000  0.5477930000000  0.4690830000000 1.0
C      1  0.5519120000000  0.4350440000000  0.4892070000000 1.0
C      1  0.4898520000000  0.4481170000000  0.5401360000000 1.0
C      1  0.4876330000000  0.5677510000000  0.4836980000000 1.0
C      1  0.5763280000000  0.5351450000000  0.4785310000000 1.0
C      1  0.5569290000000  0.5354530000000  0.4588120000000 1.0
C      1  0.4824680000000  0.4994940000000  0.4489650000000 1.0
C      1  0.5514570000000  0.5100750000000  0.4466500000000 1.0
C      1  0.5303550000000  0.5082710000000  0.4273590000000 1.0
C      1  0.4702820000000  0.5174000000000  0.4978100000000 1.0
C      1  0.4360910000000  0.5548270000000  0.4826420000000 1.0
C      1  0.4500390000000  0.4814230000000  0.4341490000000 1.0
C      1  0.4939360000000  0.4339620000000  0.4930780000000 1.0
C      1  0.4998800000000  0.5370540000000  0.5230370000000 1.0
C      1  0.5242600000000  0.4464960000000  0.4840990000000 1.0
C      1  0.5643640000000  0.4882320000000  0.5444820000000 1.0
C      1  0.4983770000000  0.5460000000000  0.4642170000000 1.0
C      1  0.4352940000000  0.4777720000000  0.4632410000000 1.0
C      1  0.4504850000000  0.4566000000000  0.5085280000000 1.0
C      1  0.5088500000000  0.5526760000000  0.5586880000000 1.0
C      1  0.4761200000000  0.4701730000000  0.4901100000000 1.0
C      1  0.5173150000000  0.4462560000000  0.5452170000000 1.0
C      1  0.5151230000000  0.5545420000000  0.4989100000000 1.0
C      1  0.4245810000000  0.5024230000000  0.5048530000000 1.0
C      1  0.4519180000000  0.4769610000000  0.5349940000000 1.0
C      1  0.5369560000000  0.5222570000000  0.4908150000000 1.0
C      1  0.5389850000000  0.5420780000000  0.5187710000000 1.0
C      1  0.4670820000000  0.4640360000000  0.5810740000000 1.0
C      1  0.4849930000000  0.5411990000000  0.5743540000000 1.0
C      1  0.4755930000000  0.4862550000000  0.4159640000000 1.0
C      1  0.4678750000000  0.4744610000000  0.4620490000000 1.0
C      1  0.5665650000000  0.5175970000000  0.5336120000000 1.0
C      1  0.5334850000000  0.5465370000000  0.5452890000000 1.0
C      1  0.5046240000000  0.5017590000000  0.4246800000000 1.0
C      1  0.5254920000000  0.4722850000000  0.4619600000000 1.0
C      1  0.4345520000000  0.5023320000000  0.5320730000000 1.0
C      1  0.5580280000000  0.4885260000000  0.4949020000000 1.0
C      1  0.5680710000000  0.5176690000000  0.5037740000000 1.0
C      1  0.4619620000000  0.5736200000000  0.5365040000000 1.0
C      1  0.4570300000000  0.5411830000000  0.5136260000000 1.0
END
