TITL C-2778430-5657-1177 0.00092841789434838 125000 -400.321422928993 0 0 71 (C1) n - 1
REM
REM in /home/nfs/bkarasulu/CARBON/AIRSS/Generating-Clusters/REBO/Only-C1/SD-CG/HFTN-CG
REM
REM
REM
REM
REM
REM ./C.cell (11c1c37f851c82e70ff6c80c92926a4b)
REM
REM compiler GCC version 9.2.1 20190827 (Red Hat 9.2.1-1)
REM options -cpp -mtune=generic -march=x86-64 -g -O0 -fpre-include=/usr/include/finclude/math-vector-fortran.h
REM seed -402681859 -114684466 1470132863 -661815084 180962691 1554427093 504466871 543638159 1671499721 -1236172245 1911537911 -1527601643 -1505600450 1790654459 1708365825 510997409 1846324759 1428688102 -10726613 -1034257851 -498259682 796763483 -1548258152 -583624244 1127373380 -1098394680 -1406019255 -313267509 -938967171 717191032 -366339148 -1396484040 -587750289
REM
CELL 1.54180   50.00000   50.00000   50.00000   90.00000   90.00000   90.00000
LATT -1
SFAC C  
C      1  0.5320370000000  0.4404290000000  0.5242680000000 1.0
C      1  0.4348440000000  0.5079840000000  0.5682450000000 1.0
C      1  0.5486380000000  0.5216520000000  0.4609500000000 1.0
C      1  0.5229990000000  0.5735210000000  0.4393770000000 1.0
C      1  0.4299430000000  0.4458440000000  0.4916360000000 1.0
C      1  0.5641500000000  0.5336890000000  0.5278120000000 1.0
C      1  0.5030930000000  0.5470620000000  0.4362990000000 1.0
C      1  0.4515110000000  0.5093440000000  0.4879320000000 1.0
C      1  0.5512750000000  0.4535160000000  0.4990830000000 1.0
C      1  0.4117140000000  0.4834340000000  0.4680960000000 1.0
C      1  0.4681950000000  0.5611990000000  0.5101760000000 1.0
C      1  0.5752130000000  0.5318730000000  0.4792660000000 1.0
C      1  0.5617140000000  0.5251850000000  0.5588190000000 1.0
C      1  0.5797460000000  0.5058950000000  0.4613400000000 1.0
C      1  0.4871190000000  0.4893920000000  0.5196610000000 1.0
C      1  0.5125730000000  0.4688000000000  0.4396320000000 1.0
C      1  0.4856350000000  0.4595590000000  0.4469270000000 1.0
C      1  0.4998890000000  0.4314980000000  0.5326720000000 1.0
C      1  0.5211950000000  0.4265860000000  0.4725260000000 1.0
C      1  0.4540030000000  0.4673960000000  0.5519850000000 1.0
C      1  0.5809020000000  0.5345680000000  0.5763840000000 1.0
C      1  0.4745000000000  0.5332060000000  0.5276540000000 1.0
C      1  0.5441850000000  0.4440860000000  0.4701640000000 1.0
C      1  0.4512890000000  0.5142270000000  0.4606990000000 1.0
C      1  0.4817430000000  0.4896330000000  0.5904950000000 1.0
C      1  0.4643120000000  0.5161210000000  0.4302210000000 1.0
C      1  0.4475410000000  0.5342020000000  0.5081510000000 1.0
C      1  0.4090750000000  0.5068760000000  0.4817590000000 1.0
C      1  0.4639340000000  0.4832430000000  0.5011160000000 1.0
C      1  0.4270360000000  0.4733360000000  0.5380820000000 1.0
C      1  0.5268360000000  0.5399620000000  0.4601410000000 1.0
C      1  0.4771520000000  0.5728690000000  0.4807210000000 1.0
C      1  0.4769000000000  0.5581570000000  0.4523930000000 1.0
C      1  0.5517230000000  0.4926180000000  0.5577620000000 1.0
C      1  0.4172920000000  0.5269980000000  0.4981610000000 1.0
C      1  0.5752820000000  0.5415850000000  0.5049970000000 1.0
C      1  0.4526160000000  0.4616630000000  0.4528750000000 1.0
C      1  0.5082480000000  0.4745910000000  0.4868880000000 1.0
C      1  0.5329700000000  0.4879350000000  0.5819510000000 1.0
C      1  0.5514800000000  0.4640460000000  0.5392600000000 1.0
C      1  0.4721340000000  0.4796950000000  0.4710700000000 1.0
C      1  0.4463430000000  0.4601930000000  0.5137380000000 1.0
C      1  0.4641720000000  0.4947290000000  0.5656970000000 1.0
C      1  0.5793410000000  0.4653090000000  0.5248570000000 1.0
C      1  0.5541680000000  0.4887810000000  0.4535570000000 1.0
C      1  0.5085160000000  0.4874220000000  0.5927000000000 1.0
C      1  0.4988390000000  0.5459820000000  0.4758980000000 1.0
C      1  0.5136490000000  0.5070680000000  0.5514390000000 1.0
C      1  0.4531870000000  0.5418800000000  0.4449670000000 1.0
C      1  0.5297940000000  0.5246890000000  0.5664990000000 1.0
C      1  0.5011120000000  0.5387880000000  0.5082320000000 1.0
C      1  0.5084740000000  0.4991550000000  0.4379210000000 1.0
C      1  0.4990200000000  0.5203530000000  0.3945440000000 1.0
C      1  0.5002910000000  0.4955220000000  0.4666030000000 1.0
C      1  0.5455330000000  0.5070730000000  0.5272300000000 1.0
C      1  0.5291130000000  0.4766510000000  0.5076370000000 1.0
C      1  0.5003940000000  0.5727300000000  0.5052980000000 1.0
C      1  0.4161700000000  0.4960800000000  0.5511990000000 1.0
C      1  0.4680800000000  0.4436020000000  0.5341070000000 1.0
C      1  0.4274540000000  0.4594800000000  0.4663910000000 1.0
C      1  0.5104810000000  0.4242870000000  0.5034480000000 1.0
C      1  0.4941280000000  0.4630950000000  0.5369390000000 1.0
C      1  0.5335630000000  0.5728720000000  0.4673540000000 1.0
C      1  0.4943030000000  0.5207240000000  0.4222540000000 1.0
C      1  0.4810920000000  0.5096890000000  0.5451310000000 1.0
C      1  0.5396380000000  0.4651190000000  0.4509760000000 1.0
C      1  0.5204110000000  0.4780340000000  0.5382850000000 1.0
C      1  0.4991630000000  0.4478110000000  0.4824780000000 1.0
C      1  0.5613180000000  0.4852620000000  0.5069460000000 1.0
C      1  0.5129790000000  0.5116780000000  0.5180970000000 1.0
C      1  0.5266350000000  0.5824680000000  0.4919310000000 1.0
END
