TITL C-2778436-5916-1042 -0.139380470491255 125000 -223.491901495995 0 0 39 (C1) n - 1
REM
REM in /home/nfs/bkarasulu/CARBON/AIRSS/Generating-Clusters/REBO/Only-C1/SD-CG/HFTN-CG
REM
REM
REM
REM
REM
REM ./C.cell (11c1c37f851c82e70ff6c80c92926a4b)
REM
REM compiler GCC version 9.2.1 20190827 (Red Hat 9.2.1-1)
REM options -cpp -mtune=generic -march=x86-64 -g -O0 -fpre-include=/usr/include/finclude/math-vector-fortran.h
REM seed -2030074186 534272508 942022189 -367097245 2086384107 671102130 -808843016 -2142485345 -1961180148 -84440250 2115541038 -1815283759 1277579863 918880520 1083105124 -981763436 403091789 -544119496 1624278904 1889743370 1350572135 1961471566 1979819379 -2093482571 -1567004824 664799464 302237172 -1236016029 -913195157 631867021 619576723 413368983 -379460734
REM
CELL 1.54180   50.00000   50.00000   50.00000   90.00000   90.00000   90.00000
LATT -1
SFAC C  
C      1  0.5609180000000  0.4945740000000  0.5108160000000 1.0
C      1  0.4880810000000  0.5557710000000  0.4606960000000 1.0
C      1  0.5374960000000  0.5162000000000  0.5228760000000 1.0
C      1  0.5319410000000  0.4522200000000  0.5146480000000 1.0
C      1  0.5545360000000  0.4642080000000  0.4983120000000 1.0
C      1  0.4349590000000  0.5163850000000  0.4998160000000 1.0
C      1  0.5287580000000  0.4654840000000  0.5440310000000 1.0
C      1  0.5756640000000  0.4460410000000  0.4872770000000 1.0
C      1  0.4284220000000  0.4826520000000  0.4642770000000 1.0
C      1  0.4624050000000  0.4876440000000  0.5376540000000 1.0
C      1  0.5031670000000  0.4474220000000  0.5504400000000 1.0
C      1  0.4874450000000  0.5022040000000  0.5480270000000 1.0
C      1  0.4778010000000  0.4724740000000  0.4635890000000 1.0
C      1  0.4333950000000  0.4940490000000  0.5543290000000 1.0
C      1  0.4894460000000  0.4886270000000  0.4427640000000 1.0
C      1  0.5121820000000  0.4939110000000  0.4875220000000 1.0
C      1  0.4975830000000  0.4694980000000  0.4845010000000 1.0
C      1  0.4821050000000  0.5359830000000  0.4803590000000 1.0
C      1  0.4829150000000  0.5220100000000  0.5653690000000 1.0
C      1  0.5159400000000  0.4969960000000  0.5411810000000 1.0
C      1  0.4510220000000  0.4674850000000  0.4725650000000 1.0
C      1  0.4870500000000  0.4458160000000  0.5264150000000 1.0
C      1  0.5438420000000  0.5834600000000  0.4929580000000 1.0
C      1  0.5052200000000  0.4491970000000  0.5037770000000 1.0
C      1  0.5347740000000  0.5105160000000  0.4591960000000 1.0
C      1  0.5150640000000  0.5602600000000  0.4550050000000 1.0
C      1  0.5286200000000  0.5374700000000  0.5038110000000 1.0
C      1  0.5137030000000  0.5020150000000  0.4436600000000 1.0
C      1  0.4191160000000  0.5033070000000  0.4801030000000 1.0
C      1  0.4369800000000  0.5070760000000  0.5259100000000 1.0
C      1  0.5436160000000  0.4904610000000  0.4822160000000 1.0
C      1  0.5348260000000  0.5667500000000  0.5131910000000 1.0
C      1  0.5421640000000  0.5714720000000  0.4671850000000 1.0
C      1  0.4495430000000  0.4578100000000  0.4993060000000 1.0
C      1  0.5349440000000  0.5383430000000  0.4703660000000 1.0
C      1  0.5047050000000  0.5210060000000  0.4899260000000 1.0
C      1  0.5497320000000  0.4910780000000  0.5423460000000 1.0
C      1  0.4565120000000  0.5312730000000  0.4899990000000 1.0
C      1  0.4634080000000  0.4608520000000  0.5235810000000 1.0
END
