TITL C-2778423-5760-848 0.0026722289943315 125000 -817.279110047154 0 0 138 (C1) n - 1
REM
REM in /home/nfs/bkarasulu/CARBON/AIRSS/Generating-Clusters/REBO/Only-C1/SD-CG/HFTN-CG
REM
REM
REM
REM
REM
REM ./C.cell (11c1c37f851c82e70ff6c80c92926a4b)
REM
REM compiler GCC version 9.2.1 20190827 (Red Hat 9.2.1-1)
REM options -cpp -mtune=generic -march=x86-64 -g -O0 -fpre-include=/usr/include/finclude/math-vector-fortran.h
REM seed -1148953229 -1055509394 -781097603 -1805144960 -1232682549 1568022863 -1181816277 1486393020 410953814 -1522080750 1894431747 475391128 -2147298164 1984532486 -2132190742 -1982827252 -414235511 96398001 880429174 961896816 329662210 1062694711 -573569690 -2077867648 850471486 1390299031 -445775292 -564432547 -1963172989 1841655214 -1155528217 -1799592242 2142229932
REM
CELL 1.54180   50.00000   50.00000   50.00000   90.00000   90.00000   90.00000
LATT -1
SFAC C  
C      1  0.5322380000000  0.5016990000000  0.5554150000000 1.0
C      1  0.5304260000000  0.4855980000000  0.5322900000000 1.0
C      1  0.4898830000000  0.5853360000000  0.4550050000000 1.0
C      1  0.5644620000000  0.4370540000000  0.4859590000000 1.0
C      1  0.4336650000000  0.4169710000000  0.5358470000000 1.0
C      1  0.4417630000000  0.5420180000000  0.5523020000000 1.0
C      1  0.5130580000000  0.5099800000000  0.5012900000000 1.0
C      1  0.4085840000000  0.5081750000000  0.5133360000000 1.0
C      1  0.5298980000000  0.5601370000000  0.4931970000000 1.0
C      1  0.5037350000000  0.4699700000000  0.5669880000000 1.0
C      1  0.5408590000000  0.4072810000000  0.5354010000000 1.0
C      1  0.4972630000000  0.5516490000000  0.4883190000000 1.0
C      1  0.4189170000000  0.4770380000000  0.4733420000000 1.0
C      1  0.5469650000000  0.5528430000000  0.4687450000000 1.0
C      1  0.4400780000000  0.4991800000000  0.5896020000000 1.0
C      1  0.4175930000000  0.5267530000000  0.4926300000000 1.0
C      1  0.5609200000000  0.4408460000000  0.5499650000000 1.0
C      1  0.5231750000000  0.4742730000000  0.4865490000000 1.0
C      1  0.4589880000000  0.5280100000000  0.5155480000000 1.0
C      1  0.4764310000000  0.4848110000000  0.5329300000000 1.0
C      1  0.5453890000000  0.4755080000000  0.4330010000000 1.0
C      1  0.5274900000000  0.4504690000000  0.4479810000000 1.0
C      1  0.4186300000000  0.5093100000000  0.4672090000000 1.0
C      1  0.5077040000000  0.5872670000000  0.5591280000000 1.0
C      1  0.4942730000000  0.4816380000000  0.4708100000000 1.0
C      1  0.5281590000000  0.5459900000000  0.5843250000000 1.0
C      1  0.4825240000000  0.4313920000000  0.4628110000000 1.0
C      1  0.5297180000000  0.4624660000000  0.5809380000000 1.0
C      1  0.5545020000000  0.5228790000000  0.4763410000000 1.0
C      1  0.4939370000000  0.4812760000000  0.3778860000000 1.0
C      1  0.5564540000000  0.5302220000000  0.4372420000000 1.0
C      1  0.4963150000000  0.5557410000000  0.5223420000000 1.0
C      1  0.5757510000000  0.5357420000000  0.5801810000000 1.0
C      1  0.5610820000000  0.5366540000000  0.5051250000000 1.0
C      1  0.5221230000000  0.5356130000000  0.5151300000000 1.0
C      1  0.5167330000000  0.5484420000000  0.4085110000000 1.0
C      1  0.4951840000000  0.4909660000000  0.5097220000000 1.0
C      1  0.4892290000000  0.5483780000000  0.5912760000000 1.0
C      1  0.4207820000000  0.4432470000000  0.5440050000000 1.0
C      1  0.4361740000000  0.4428230000000  0.4364540000000 1.0
C      1  0.4233930000000  0.5526610000000  0.5334560000000 1.0
C      1  0.4755820000000  0.4653720000000  0.4134420000000 1.0
C      1  0.5851710000000  0.5515570000000  0.4883700000000 1.0
C      1  0.5562220000000  0.4544280000000  0.4652020000000 1.0
C      1  0.4957330000000  0.4310470000000  0.5329560000000 1.0
C      1  0.5444160000000  0.4867740000000  0.5790090000000 1.0
C      1  0.4998320000000  0.3995840000000  0.5030050000000 1.0
C      1  0.5478880000000  0.5833980000000  0.5066210000000 1.0
C      1  0.4386820000000  0.4276750000000  0.4618900000000 1.0
C      1  0.4000820000000  0.4824730000000  0.5014470000000 1.0
C      1  0.4742230000000  0.4230760000000  0.5651110000000 1.0
C      1  0.5466910000000  0.5064820000000  0.4185990000000 1.0
C      1  0.5210180000000  0.5156660000000  0.4054970000000 1.0
C      1  0.6002010000000  0.5315230000000  0.4739160000000 1.0
C      1  0.4426830000000  0.6338570000000  0.5086390000000 1.0
C      1  0.4861010000000  0.5076410000000  0.4561930000000 1.0
C      1  0.4431430000000  0.4741650000000  0.5049380000000 1.0
C      1  0.4419630000000  0.5596440000000  0.4698920000000 1.0
C      1  0.4660700000000  0.5480670000000  0.4912050000000 1.0
C      1  0.5941500000000  0.5008930000000  0.5115480000000 1.0
C      1  0.4470560000000  0.4469190000000  0.4119130000000 1.0
C      1  0.5070910000000  0.4304070000000  0.5711860000000 1.0
C      1  0.4702060000000  0.5919150000000  0.4820980000000 1.0
C      1  0.5095420000000  0.5728930000000  0.5832330000000 1.0
C      1  0.5311000000000  0.5054470000000  0.4755630000000 1.0
C      1  0.4845930000000  0.4336500000000  0.4137190000000 1.0
C      1  0.5498060000000  0.5306270000000  0.5342600000000 1.0
C      1  0.6134640000000  0.5133950000000  0.4902200000000 1.0
C      1  0.4488400000000  0.6108530000000  0.4992170000000 1.0
C      1  0.4806850000000  0.4608140000000  0.5020940000000 1.0
C      1  0.5377260000000  0.4372850000000  0.5668460000000 1.0
C      1  0.5376790000000  0.5719550000000  0.4201180000000 1.0
C      1  0.4507210000000  0.5003330000000  0.4969200000000 1.0
C      1  0.5058070000000  0.4879140000000  0.4004390000000 1.0
C      1  0.5885090000000  0.4700450000000  0.5225340000000 1.0
C      1  0.5212860000000  0.4126000000000  0.4901160000000 1.0
C      1  0.5206320000000  0.4894130000000  0.4498710000000 1.0
C      1  0.4700410000000  0.4533510000000  0.5335890000000 1.0
C      1  0.4310340000000  0.5191490000000  0.5681160000000 1.0
C      1  0.5440280000000  0.4854620000000  0.5075930000000 1.0
C      1  0.4699930000000  0.4601100000000  0.4721080000000 1.0
C      1  0.4508170000000  0.4825760000000  0.4293840000000 1.0
C      1  0.4413550000000  0.5790450000000  0.4953810000000 1.0
C      1  0.5746470000000  0.5737070000000  0.5105750000000 1.0
C      1  0.5840950000000  0.4469900000000  0.5069290000000 1.0
C      1  0.4059110000000  0.4510540000000  0.4914380000000 1.0
C      1  0.4518780000000  0.5268750000000  0.4492070000000 1.0
C      1  0.4232190000000  0.5035040000000  0.5406910000000 1.0
C      1  0.5238850000000  0.5315900000000  0.5552070000000 1.0
C      1  0.4983980000000  0.5368030000000  0.4600270000000 1.0
C      1  0.3978930000000  0.4563680000000  0.5234530000000 1.0
C      1  0.4951310000000  0.5435520000000  0.5602830000000 1.0
C      1  0.5190640000000  0.5952600000000  0.5085540000000 1.0
C      1  0.4685730000000  0.5705860000000  0.4350270000000 1.0
C      1  0.5692950000000  0.4890130000000  0.5632450000000 1.0
C      1  0.5068670000000  0.5197400000000  0.5896560000000 1.0
C      1  0.4502300000000  0.4467070000000  0.5567400000000 1.0
C      1  0.5115200000000  0.4356060000000  0.4710810000000 1.0
C      1  0.4817280000000  0.4518340000000  0.5803230000000 1.0
C      1  0.5090250000000  0.4617770000000  0.5343630000000 1.0
C      1  0.4430580000000  0.5708510000000  0.4453300000000 1.0
C      1  0.4885750000000  0.5224830000000  0.4108110000000 1.0
C      1  0.4765360000000  0.5411700000000  0.4356900000000 1.0
C      1  0.4630530000000  0.4140900000000  0.5358290000000 1.0
C      1  0.4812960000000  0.4203120000000  0.4346800000000 1.0
C      1  0.5572130000000  0.5469340000000  0.5926340000000 1.0
C      1  0.5893000000000  0.5252960000000  0.5309830000000 1.0
C      1  0.5584760000000  0.5632450000000  0.4382770000000 1.0
C      1  0.5258710000000  0.5422440000000  0.4467570000000 1.0
C      1  0.5726940000000  0.4937910000000  0.4372810000000 1.0
C      1  0.4717260000000  0.5435580000000  0.5408680000000 1.0
C      1  0.5113890000000  0.4500060000000  0.5020480000000 1.0
C      1  0.4551570000000  0.5224840000000  0.4764830000000 1.0
C      1  0.5684320000000  0.4901020000000  0.4944430000000 1.0
C      1  0.4377040000000  0.4454820000000  0.4905130000000 1.0
C      1  0.5729570000000  0.5175840000000  0.5555180000000 1.0
C      1  0.5165910000000  0.4114360000000  0.5373020000000 1.0
C      1  0.5754570000000  0.4664940000000  0.5478580000000 1.0
C      1  0.5030820000000  0.5950480000000  0.4849490000000 1.0
C      1  0.4250920000000  0.5525320000000  0.5049390000000 1.0
C      1  0.4326280000000  0.5079430000000  0.4388260000000 1.0
C      1  0.4743710000000  0.4080730000000  0.5083220000000 1.0
C      1  0.5056350000000  0.5833410000000  0.5313870000000 1.0
C      1  0.5794950000000  0.5180280000000  0.4568230000000 1.0
C      1  0.4615380000000  0.4226660000000  0.4860200000000 1.0
C      1  0.5080230000000  0.5687810000000  0.4348870000000 1.0
C      1  0.4558790000000  0.5068760000000  0.5394900000000 1.0
C      1  0.5680890000000  0.4802940000000  0.4670800000000 1.0
C      1  0.5668820000000  0.4229400000000  0.5232880000000 1.0
C      1  0.4436620000000  0.4670440000000  0.4574830000000 1.0
C      1  0.5476740000000  0.4148540000000  0.4967600000000 1.0
C      1  0.5067320000000  0.4683280000000  0.4270300000000 1.0
C      1  0.4762310000000  0.5018480000000  0.4297330000000 1.0
C      1  0.5898800000000  0.5526570000000  0.5278030000000 1.0
C      1  0.4260360000000  0.4739410000000  0.5306100000000 1.0
C      1  0.4542590000000  0.4698590000000  0.5797210000000 1.0
C      1  0.4659700000000  0.4997240000000  0.5684540000000 1.0
C      1  0.4956890000000  0.4989080000000  0.5737630000000 1.0
END
