TITL C-2778430-5657-1188 0.0016121894189836 125000 -488.335924297953 0 0 86 (C1) n - 1
REM
REM in /home/nfs/bkarasulu/CARBON/AIRSS/Generating-Clusters/REBO/Only-C1/SD-CG/HFTN-CG
REM
REM
REM
REM
REM
REM ./C.cell (11c1c37f851c82e70ff6c80c92926a4b)
REM
REM compiler GCC version 9.2.1 20190827 (Red Hat 9.2.1-1)
REM options -cpp -mtune=generic -march=x86-64 -g -O0 -fpre-include=/usr/include/finclude/math-vector-fortran.h
REM seed -1344855334 -2074918204 -54147774 992520377 -1760084321 360044962 1437519720 -1719260788 43422921 1957794179 914134294 244162181 -35273943 -889904983 -1182195255 -1111955787 1361922733 887900570 -1775304644 -1062073673 2085591358 -1986569452 1106399225 -481116475 -1854719636 -1611244467 -134666058 2056087826 -472914723 165207065 1230643913 -154117842 -1393122858
REM
CELL 1.54180   50.00000   50.00000   50.00000   90.00000   90.00000   90.00000
LATT -1
SFAC C  
C      1  0.4194390000000  0.5276770000000  0.4891450000000 1.0
C      1  0.4552950000000  0.4836730000000  0.5137700000000 1.0
C      1  0.4997670000000  0.5218520000000  0.5112110000000 1.0
C      1  0.5448870000000  0.5656460000000  0.4572260000000 1.0
C      1  0.5461880000000  0.5017210000000  0.5082780000000 1.0
C      1  0.4294970000000  0.5113080000000  0.4643180000000 1.0
C      1  0.4708700000000  0.5241270000000  0.5573790000000 1.0
C      1  0.5827670000000  0.4898770000000  0.4988510000000 1.0
C      1  0.5374400000000  0.4730320000000  0.5112520000000 1.0
C      1  0.5438880000000  0.4504510000000  0.4502350000000 1.0
C      1  0.5541820000000  0.5085850000000  0.5406480000000 1.0
C      1  0.4879630000000  0.4454280000000  0.5070530000000 1.0
C      1  0.4588890000000  0.5326460000000  0.4820660000000 1.0
C      1  0.5122360000000  0.4508390000000  0.4423250000000 1.0
C      1  0.5228740000000  0.5218570000000  0.5331950000000 1.0
C      1  0.5271930000000  0.5196570000000  0.4935520000000 1.0
C      1  0.4493360000000  0.4905340000000  0.5552990000000 1.0
C      1  0.5809160000000  0.4923770000000  0.4673230000000 1.0
C      1  0.5602120000000  0.5104920000000  0.4519260000000 1.0
C      1  0.4396590000000  0.4298000000000  0.5115370000000 1.0
C      1  0.4907120000000  0.5381050000000  0.4299800000000 1.0
C      1  0.4405110000000  0.4794260000000  0.4598660000000 1.0
C      1  0.4830010000000  0.5547460000000  0.4591190000000 1.0
C      1  0.4263540000000  0.5297040000000  0.4357770000000 1.0
C      1  0.4934370000000  0.4397460000000  0.4610440000000 1.0
C      1  0.5329060000000  0.4349410000000  0.5456630000000 1.0
C      1  0.4580320000000  0.5665700000000  0.4791660000000 1.0
C      1  0.5058300000000  0.4712610000000  0.5152150000000 1.0
C      1  0.4507990000000  0.5282610000000  0.5142140000000 1.0
C      1  0.4557040000000  0.5256610000000  0.4492570000000 1.0
C      1  0.5442750000000  0.4641010000000  0.5428270000000 1.0
C      1  0.4352210000000  0.5086350000000  0.5376110000000 1.0
C      1  0.4761230000000  0.5703790000000  0.5392640000000 1.0
C      1  0.5085980000000  0.5096260000000  0.4229470000000 1.0
C      1  0.4238080000000  0.4670770000000  0.4840270000000 1.0
C      1  0.5390830000000  0.4583410000000  0.4825830000000 1.0
C      1  0.5715090000000  0.4807460000000  0.5302250000000 1.0
C      1  0.4502270000000  0.5603870000000  0.5186760000000 1.0
C      1  0.4698840000000  0.4827910000000  0.5753530000000 1.0
C      1  0.4916810000000  0.5220150000000  0.4656080000000 1.0
C      1  0.5685440000000  0.4454130000000  0.4731060000000 1.0
C      1  0.4752870000000  0.5088040000000  0.4316580000000 1.0
C      1  0.4951370000000  0.4660550000000  0.5754800000000 1.0
C      1  0.4969570000000  0.5233030000000  0.5764880000000 1.0
C      1  0.4576320000000  0.4348450000000  0.5308020000000 1.0
C      1  0.5239260000000  0.5673200000000  0.5266570000000 1.0
C      1  0.5404120000000  0.5482830000000  0.4928570000000 1.0
C      1  0.5174930000000  0.5378840000000  0.4496370000000 1.0
C      1  0.5463310000000  0.5468700000000  0.5323000000000 1.0
C      1  0.4666630000000  0.4792270000000  0.4378170000000 1.0
C      1  0.4674810000000  0.4581280000000  0.4629030000000 1.0
C      1  0.5055810000000  0.5649150000000  0.5485000000000 1.0
C      1  0.4740490000000  0.5078740000000  0.5285870000000 1.0
C      1  0.4285680000000  0.5555670000000  0.4930880000000 1.0
C      1  0.4996840000000  0.4774330000000  0.4297010000000 1.0
C      1  0.5590390000000  0.4285130000000  0.5000390000000 1.0
C      1  0.5694090000000  0.5207480000000  0.4926310000000 1.0
C      1  0.5096260000000  0.4701800000000  0.4829530000000 1.0
C      1  0.5132340000000  0.4894790000000  0.4570860000000 1.0
C      1  0.5742970000000  0.4585720000000  0.5042420000000 1.0
C      1  0.5166280000000  0.5455970000000  0.5679110000000 1.0
C      1  0.4152040000000  0.5104770000000  0.5118530000000 1.0
C      1  0.4915560000000  0.4828830000000  0.5395580000000 1.0
C      1  0.4759240000000  0.5057360000000  0.5924840000000 1.0
C      1  0.5022980000000  0.4294910000000  0.4862050000000 1.0
C      1  0.5460810000000  0.5335530000000  0.5627610000000 1.0
C      1  0.5116020000000  0.5039990000000  0.5560440000000 1.0
C      1  0.5597350000000  0.5401000000000  0.4660890000000 1.0
C      1  0.5071400000000  0.4338000000000  0.5553070000000 1.0
C      1  0.5690130000000  0.5475130000000  0.5113330000000 1.0
C      1  0.4587190000000  0.5491090000000  0.5558430000000 1.0
C      1  0.5129140000000  0.5657820000000  0.4971930000000 1.0
C      1  0.4845820000000  0.4494490000000  0.5407490000000 1.0
C      1  0.4279000000000  0.4835980000000  0.5073600000000 1.0
C      1  0.5145980000000  0.5670690000000  0.4651850000000 1.0
C      1  0.4851590000000  0.4920560000000  0.4744170000000 1.0
C      1  0.5399380000000  0.4984530000000  0.4276880000000 1.0
C      1  0.4255820000000  0.4394470000000  0.4901170000000 1.0
C      1  0.5212890000000  0.4742290000000  0.5643370000000 1.0
C      1  0.4712360000000  0.4688300000000  0.4936610000000 1.0
C      1  0.5302630000000  0.5132150000000  0.4633560000000 1.0
C      1  0.5436030000000  0.4707410000000  0.4254250000000 1.0
C      1  0.4861520000000  0.5459150000000  0.4979770000000 1.0
C      1  0.5265700000000  0.4193860000000  0.4951930000000 1.0
C      1  0.4758970000000  0.5776570000000  0.5060080000000 1.0
C      1  0.5398700000000  0.4183990000000  0.5244010000000 1.0
END
