TITL C-2778429-3646-752 0.0479858486482335 125000 -167.280123380876 0 0 29 (C1) n - 1
REM
REM in /home/nfs/bkarasulu/CARBON/AIRSS/Generating-Clusters/REBO/Only-C1/SD-CG/HFTN-CG
REM
REM
REM
REM
REM
REM ./C.cell (11c1c37f851c82e70ff6c80c92926a4b)
REM
REM compiler GCC version 9.2.1 20190827 (Red Hat 9.2.1-1)
REM options -cpp -mtune=generic -march=x86-64 -g -O0 -fpre-include=/usr/include/finclude/math-vector-fortran.h
REM seed -197665574 143516945 -988625841 1780701915 1318981227 -1286567021 -2099208406 -215217783 -121568331 1554152358 752056012 -640101535 228622769 587778040 653089344 899244869 -1738510320 1294475342 -877550634 -1046177509 -2017860391 -691583533 -843597852 387988397 -1622004972 645106407 -1985765258 -513771771 675428533 1779994039 795063079 433394394 -1371884121
REM
CELL 1.54180   50.00000   50.00000   50.00000   90.00000   90.00000   90.00000
LATT -1
SFAC C  
C      1  0.4688260000000  0.5412090000000  0.5466430000000 1.0
C      1  0.4546330000000  0.4487070000000  0.5985340000000 1.0
C      1  0.5073380000000  0.5557200000000  0.5639140000000 1.0
C      1  0.4943220000000  0.5389390000000  0.5805810000000 1.0
C      1  0.5124410000000  0.5209640000000  0.4846060000000 1.0
C      1  0.4809660000000  0.5157380000000  0.5842880000000 1.0
C      1  0.4723720000000  0.4712560000000  0.5257340000000 1.0
C      1  0.4817970000000  0.4465270000000  0.4799610000000 1.0
C      1  0.5090610000000  0.4547340000000  0.4315090000000 1.0
C      1  0.5569920000000  0.5405330000000  0.4435910000000 1.0
C      1  0.4729970000000  0.4931210000000  0.5429930000000 1.0
C      1  0.5311490000000  0.5465820000000  0.4869340000000 1.0
C      1  0.5485080000000  0.5178020000000  0.4310810000000 1.0
C      1  0.4628010000000  0.4698790000000  0.5854240000000 1.0
C      1  0.5159340000000  0.5604350000000  0.5386560000000 1.0
C      1  0.4714800000000  0.4923760000000  0.5714940000000 1.0
C      1  0.4754970000000  0.4560180000000  0.5040580000000 1.0
C      1  0.5496800000000  0.5522580000000  0.4670740000000 1.0
C      1  0.5251300000000  0.4752400000000  0.4225250000000 1.0
C      1  0.4782080000000  0.5191060000000  0.5320880000000 1.0
C      1  0.4949810000000  0.4260690000000  0.4273090000000 1.0
C      1  0.4909860000000  0.4421530000000  0.4548430000000 1.0
C      1  0.5154410000000  0.5482570000000  0.5134490000000 1.0
C      1  0.4955390000000  0.5240950000000  0.5105180000000 1.0
C      1  0.5293280000000  0.4982470000000  0.4386110000000 1.0
C      1  0.5157800000000  0.5037280000000  0.4628240000000 1.0
C      1  0.4902700000000  0.4048820000000  0.4122910000000 1.0
C      1  0.4600690000000  0.5618390000000  0.5602280000000 1.0
C      1  0.5374730000000  0.4735860000000  0.3982390000000 1.0
END
