TITL C-2778433-5640-1090 -0.00175722615367972 125000 -679.98121817266 0 0 115 (C1) n - 1
REM
REM in /home/nfs/bkarasulu/CARBON/AIRSS/Generating-Clusters/REBO/Only-C1/SD-CG/HFTN-CG
REM
REM
REM
REM
REM
REM ./C.cell (11c1c37f851c82e70ff6c80c92926a4b)
REM
REM compiler GCC version 9.2.1 20190827 (Red Hat 9.2.1-1)
REM options -cpp -mtune=generic -march=x86-64 -g -O0 -fpre-include=/usr/include/finclude/math-vector-fortran.h
REM seed -1082568905 -357440877 -1192827105 -1796510540 -737612860 451622552 -736742554 467717569 338113537 -1618792526 -1990373831 2117484684 1853972797 708897417 1836593694 -1306761927 2058357188 341469865 -454292003 1223983350 -2007671863 -387130898 -1793209663 2074239164 -1782916267 -1645363143 1832389770 2033467968 -764227215 -1016726429 1674019803 -131383383 -290358788
REM
CELL 1.54180   50.00000   50.00000   50.00000   90.00000   90.00000   90.00000
LATT -1
SFAC C  
C      1  0.4858970000000  0.5223990000000  0.4867540000000 1.0
C      1  0.5091920000000  0.5117340000000  0.4658190000000 1.0
C      1  0.4182640000000  0.5397740000000  0.4487270000000 1.0
C      1  0.4818270000000  0.4118720000000  0.5524060000000 1.0
C      1  0.5826260000000  0.5280520000000  0.4751190000000 1.0
C      1  0.6146680000000  0.5703720000000  0.4829840000000 1.0
C      1  0.4222370000000  0.5776190000000  0.4876260000000 1.0
C      1  0.5063220000000  0.5739040000000  0.4929880000000 1.0
C      1  0.3807120000000  0.5469250000000  0.5113460000000 1.0
C      1  0.4584040000000  0.5130930000000  0.4475170000000 1.0
C      1  0.4859180000000  0.5566110000000  0.5400120000000 1.0
C      1  0.4867800000000  0.4608970000000  0.5352990000000 1.0
C      1  0.5768260000000  0.5214300000000  0.5722270000000 1.0
C      1  0.5307250000000  0.4856120000000  0.5421170000000 1.0
C      1  0.4762800000000  0.4688330000000  0.4398370000000 1.0
C      1  0.4266810000000  0.5100750000000  0.4574110000000 1.0
C      1  0.5409440000000  0.4285760000000  0.4448940000000 1.0
C      1  0.4536600000000  0.4136630000000  0.4864120000000 1.0
C      1  0.5839940000000  0.5062150000000  0.4939920000000 1.0
C      1  0.4363110000000  0.5402400000000  0.4862780000000 1.0
C      1  0.5320750000000  0.5564750000000  0.4976110000000 1.0
C      1  0.4389400000000  0.5074820000000  0.4885490000000 1.0
C      1  0.5838370000000  0.5280430000000  0.5452960000000 1.0
C      1  0.4848510000000  0.5716660000000  0.5118310000000 1.0
C      1  0.5017240000000  0.5769280000000  0.4632770000000 1.0
C      1  0.5419230000000  0.5134570000000  0.4251710000000 1.0
C      1  0.3671350000000  0.5342050000000  0.5631790000000 1.0
C      1  0.4402480000000  0.4645500000000  0.4848000000000 1.0
C      1  0.4814640000000  0.4921790000000  0.4611360000000 1.0
C      1  0.5328520000000  0.5300180000000  0.4757770000000 1.0
C      1  0.4632800000000  0.4859700000000  0.4870720000000 1.0
C      1  0.5181920000000  0.5235770000000  0.6035390000000 1.0
C      1  0.5382770000000  0.4388820000000  0.5356760000000 1.0
C      1  0.5375820000000  0.4843360000000  0.4262390000000 1.0
C      1  0.4851790000000  0.5125810000000  0.5440650000000 1.0
C      1  0.5419080000000  0.4657530000000  0.5635970000000 1.0
C      1  0.4400040000000  0.5262030000000  0.5381990000000 1.0
C      1  0.4992420000000  0.4959460000000  0.5008500000000 1.0
C      1  0.5208100000000  0.5315130000000  0.6294550000000 1.0
C      1  0.4593120000000  0.4856420000000  0.5717700000000 1.0
C      1  0.5108280000000  0.4058450000000  0.5123340000000 1.0
C      1  0.5193240000000  0.4775960000000  0.4851760000000 1.0
C      1  0.4541040000000  0.4355510000000  0.4610310000000 1.0
C      1  0.6000650000000  0.5496040000000  0.4737310000000 1.0
C      1  0.5131220000000  0.4474610000000  0.5216950000000 1.0
C      1  0.4408370000000  0.4682700000000  0.5309220000000 1.0
C      1  0.4869520000000  0.5493790000000  0.4244150000000 1.0
C      1  0.5159130000000  0.4750730000000  0.5832760000000 1.0
C      1  0.4826920000000  0.4340550000000  0.5152660000000 1.0
C      1  0.4518230000000  0.4618330000000  0.5563040000000 1.0
C      1  0.5614380000000  0.5240110000000  0.4511790000000 1.0
C      1  0.4686360000000  0.5038000000000  0.4100190000000 1.0
C      1  0.4973190000000  0.5788930000000  0.4293000000000 1.0
C      1  0.5694010000000  0.4396930000000  0.4597000000000 1.0
C      1  0.4458220000000  0.4992760000000  0.5202880000000 1.0
C      1  0.4326070000000  0.5464500000000  0.4256120000000 1.0
C      1  0.4832130000000  0.4816090000000  0.5904150000000 1.0
C      1  0.5748180000000  0.4531090000000  0.4844660000000 1.0
C      1  0.4849710000000  0.4075040000000  0.4938110000000 1.0
C      1  0.5299250000000  0.5682170000000  0.4492900000000 1.0
C      1  0.4903220000000  0.4598040000000  0.5667380000000 1.0
C      1  0.5428960000000  0.5186710000000  0.5040990000000 1.0
C      1  0.5030950000000  0.4939670000000  0.5507950000000 1.0
C      1  0.4321340000000  0.4818680000000  0.4403490000000 1.0
C      1  0.5313250000000  0.4173890000000  0.5520700000000 1.0
C      1  0.4117870000000  0.5339710000000  0.5320800000000 1.0
C      1  0.4776200000000  0.4453600000000  0.4838170000000 1.0
C      1  0.6153860000000  0.5813800000000  0.5079620000000 1.0
C      1  0.4983060000000  0.4566530000000  0.4273160000000 1.0
C      1  0.4327000000000  0.4587250000000  0.4569400000000 1.0
C      1  0.4566070000000  0.5518020000000  0.5305740000000 1.0
C      1  0.4748360000000  0.5590720000000  0.4549830000000 1.0
C      1  0.5092180000000  0.4500190000000  0.4901670000000 1.0
C      1  0.4648140000000  0.5323810000000  0.4710000000000 1.0
C      1  0.4605620000000  0.5321240000000  0.4209790000000 1.0
C      1  0.5475450000000  0.5134290000000  0.5377030000000 1.0
C      1  0.5776460000000  0.4815780000000  0.4805000000000 1.0
C      1  0.5200320000000  0.5361700000000  0.5199600000000 1.0
C      1  0.5375540000000  0.4879210000000  0.5088380000000 1.0
C      1  0.4690770000000  0.4357450000000  0.5606500000000 1.0
C      1  0.5998350000000  0.5730440000000  0.5287000000000 1.0
C      1  0.3825010000000  0.5373660000000  0.5417060000000 1.0
C      1  0.5616600000000  0.5009380000000  0.5851200000000 1.0
C      1  0.4555450000000  0.4817020000000  0.4230590000000 1.0
C      1  0.4373680000000  0.4227750000000  0.5068680000000 1.0
C      1  0.5074960000000  0.4307460000000  0.4416270000000 1.0
C      1  0.5521220000000  0.4587470000000  0.4392510000000 1.0
C      1  0.5334480000000  0.5014760000000  0.5932140000000 1.0
C      1  0.5330330000000  0.5424230000000  0.5481780000000 1.0
C      1  0.5338780000000  0.4204020000000  0.5006110000000 1.0
C      1  0.5775320000000  0.5041070000000  0.5245480000000 1.0
C      1  0.5326070000000  0.4788570000000  0.4591420000000 1.0
C      1  0.4515840000000  0.5722340000000  0.5045700000000 1.0
C      1  0.4758330000000  0.4831650000000  0.5186420000000 1.0
C      1  0.5018970000000  0.5378210000000  0.5851670000000 1.0
C      1  0.4847400000000  0.4203090000000  0.4620930000000 1.0
C      1  0.4971680000000  0.5019990000000  0.4084340000000 1.0
C      1  0.5650380000000  0.4731110000000  0.5174970000000 1.0
C      1  0.4355370000000  0.4510750000000  0.5093170000000 1.0
C      1  0.4105070000000  0.5432400000000  0.5023640000000 1.0
C      1  0.5075030000000  0.4050020000000  0.5410510000000 1.0
C      1  0.5120300000000  0.5292580000000  0.4197950000000 1.0
C      1  0.4091190000000  0.5611810000000  0.4660420000000 1.0
C      1  0.4601860000000  0.5098740000000  0.5559660000000 1.0
C      1  0.5521970000000  0.5584430000000  0.5251690000000 1.0
C      1  0.5230540000000  0.4285280000000  0.4719740000000 1.0
C      1  0.4493100000000  0.5686040000000  0.4709410000000 1.0
C      1  0.5046170000000  0.5477910000000  0.5590590000000 1.0
C      1  0.4936640000000  0.5241790000000  0.5179410000000 1.0
C      1  0.5368350000000  0.5438030000000  0.4382340000000 1.0
C      1  0.5613300000000  0.4921920000000  0.4589660000000 1.0
C      1  0.5794360000000  0.5544370000000  0.5336160000000 1.0
C      1  0.5659260000000  0.4742530000000  0.5747140000000 1.0
C      1  0.5116890000000  0.4776100000000  0.4132130000000 1.0
C      1  0.5593980000000  0.4407450000000  0.5106070000000 1.0
END
