TITL C-2778430-5657-1063 -0.000939822980289616 125000 -568.675535076198 0 0 100 (C1) n - 1
REM
REM in /home/nfs/bkarasulu/CARBON/AIRSS/Generating-Clusters/REBO/Only-C1/SD-CG/HFTN-CG
REM
REM
REM
REM
REM
REM ./C.cell (11c1c37f851c82e70ff6c80c92926a4b)
REM
REM compiler GCC version 9.2.1 20190827 (Red Hat 9.2.1-1)
REM options -cpp -mtune=generic -march=x86-64 -g -O0 -fpre-include=/usr/include/finclude/math-vector-fortran.h
REM seed 681258692 1900652863 -611904932 1726584206 488188278 -1070329035 -635432543 1984538194 -1266548556 1010612572 -1038231841 -1494113251 -465152097 2076826852 247157885 -1185026248 -786552919 -1611200659 751188956 1382064542 -320226078 253844731 1611751062 1747029175 2085898322 -1821084194 -117424924 1655005758 1001782869 1406337536 1770704214 342681815 802016641
REM
CELL 1.54180   50.00000   50.00000   50.00000   90.00000   90.00000   90.00000
LATT -1
SFAC C  
C      1  0.5370510000000  0.5104590000000  0.4621460000000 1.0
C      1  0.4398900000000  0.4537560000000  0.4612070000000 1.0
C      1  0.5466710000000  0.5004790000000  0.5367800000000 1.0
C      1  0.4890090000000  0.4346510000000  0.5531200000000 1.0
C      1  0.4795310000000  0.5197630000000  0.5808420000000 1.0
C      1  0.5290740000000  0.4726710000000  0.4523960000000 1.0
C      1  0.5477000000000  0.4764310000000  0.5142520000000 1.0
C      1  0.4429240000000  0.5110390000000  0.4841890000000 1.0
C      1  0.4348590000000  0.4725110000000  0.5112550000000 1.0
C      1  0.5214600000000  0.4325310000000  0.5471720000000 1.0
C      1  0.5083800000000  0.5644980000000  0.4490850000000 1.0
C      1  0.4635880000000  0.5426510000000  0.5733650000000 1.0
C      1  0.4825480000000  0.5275390000000  0.4405170000000 1.0
C      1  0.4504830000000  0.5374800000000  0.4444290000000 1.0
C      1  0.4147570000000  0.5111010000000  0.5306380000000 1.0
C      1  0.5526970000000  0.4857480000000  0.5654130000000 1.0
C      1  0.5558200000000  0.5377330000000  0.5475750000000 1.0
C      1  0.4857160000000  0.4620480000000  0.5715570000000 1.0
C      1  0.5075780000000  0.5184550000000  0.4250760000000 1.0
C      1  0.5511330000000  0.5041760000000  0.4316720000000 1.0
C      1  0.5218400000000  0.4290430000000  0.4513260000000 1.0
C      1  0.4479790000000  0.4721240000000  0.5650290000000 1.0
C      1  0.5701940000000  0.4560020000000  0.4417030000000 1.0
C      1  0.5707200000000  0.5202810000000  0.5242900000000 1.0
C      1  0.5498700000000  0.4740130000000  0.4266710000000 1.0
C      1  0.4706290000000  0.4912120000000  0.5815720000000 1.0
C      1  0.4765570000000  0.4876540000000  0.4286890000000 1.0
C      1  0.5748410000000  0.5217720000000  0.4575910000000 1.0
C      1  0.4594070000000  0.5673320000000  0.4912020000000 1.0
C      1  0.5555520000000  0.4306070000000  0.4556350000000 1.0
C      1  0.5404330000000  0.4730870000000  0.4845830000000 1.0
C      1  0.5503460000000  0.5366850000000  0.4757650000000 1.0
C      1  0.4330020000000  0.4851790000000  0.4555330000000 1.0
C      1  0.4437690000000  0.5418310000000  0.4745550000000 1.0
C      1  0.5155390000000  0.4749270000000  0.5751000000000 1.0
C      1  0.4755180000000  0.5602660000000  0.4410830000000 1.0
C      1  0.5469080000000  0.4483940000000  0.5308690000000 1.0
C      1  0.4679990000000  0.5078100000000  0.5445840000000 1.0
C      1  0.4758180000000  0.5785660000000  0.4668560000000 1.0
C      1  0.4720230000000  0.4272550000000  0.5314950000000 1.0
C      1  0.4897760000000  0.4792240000000  0.4869770000000 1.0
C      1  0.4129190000000  0.4956650000000  0.5056570000000 1.0
C      1  0.5042900000000  0.5863190000000  0.4749670000000 1.0
C      1  0.4435360000000  0.5111770000000  0.5600190000000 1.0
C      1  0.4604770000000  0.5332380000000  0.5119290000000 1.0
C      1  0.4300490000000  0.4592140000000  0.5406750000000 1.0
C      1  0.4405500000000  0.5499750000000  0.5523450000000 1.0
C      1  0.4714390000000  0.4686230000000  0.5405620000000 1.0
C      1  0.5736390000000  0.4528310000000  0.4755430000000 1.0
C      1  0.5015800000000  0.5159420000000  0.5198710000000 1.0
C      1  0.4708760000000  0.5639960000000  0.5475060000000 1.0
C      1  0.5046550000000  0.4927580000000  0.4467580000000 1.0
C      1  0.4674950000000  0.4586000000000  0.4437000000000 1.0
C      1  0.4465450000000  0.4371300000000  0.5243160000000 1.0
C      1  0.5339180000000  0.5519640000000  0.5385340000000 1.0
C      1  0.5045040000000  0.4666150000000  0.5352060000000 1.0
C      1  0.5207470000000  0.5145340000000  0.4983230000000 1.0
C      1  0.5107450000000  0.4431410000000  0.4238600000000 1.0
C      1  0.5573050000000  0.4396100000000  0.5023970000000 1.0
C      1  0.4253550000000  0.5376470000000  0.5321030000000 1.0
C      1  0.5345060000000  0.4415470000000  0.4786670000000 1.0
C      1  0.5218330000000  0.4668280000000  0.4127890000000 1.0
C      1  0.5604990000000  0.5443500000000  0.5057770000000 1.0
C      1  0.5792250000000  0.4883130000000  0.5173810000000 1.0
C      1  0.5284650000000  0.5568290000000  0.4870090000000 1.0
C      1  0.5169890000000  0.5810800000000  0.5359030000000 1.0
C      1  0.4984140000000  0.4503270000000  0.4875050000000 1.0
C      1  0.5248260000000  0.5446530000000  0.4360900000000 1.0
C      1  0.4731250000000  0.5144840000000  0.4678050000000 1.0
C      1  0.4325520000000  0.5515580000000  0.5049690000000 1.0
C      1  0.4799480000000  0.5678850000000  0.5156940000000 1.0
C      1  0.5103050000000  0.4409440000000  0.5170730000000 1.0
C      1  0.4447700000000  0.4465140000000  0.4916780000000 1.0
C      1  0.5011640000000  0.5452320000000  0.5296620000000 1.0
C      1  0.5406220000000  0.5711080000000  0.5129590000000 1.0
C      1  0.5033710000000  0.4893450000000  0.4075790000000 1.0
C      1  0.5816740000000  0.4852220000000  0.5482000000000 1.0
C      1  0.4722800000000  0.4321020000000  0.4780740000000 1.0
C      1  0.4872820000000  0.4202070000000  0.5053820000000 1.0
C      1  0.5631740000000  0.4904120000000  0.4668160000000 1.0
C      1  0.4870460000000  0.4874340000000  0.5162310000000 1.0
C      1  0.4201780000000  0.4889340000000  0.5542700000000 1.0
C      1  0.5993600000000  0.5053390000000  0.4725630000000 1.0
C      1  0.5110690000000  0.4988920000000  0.4763010000000 1.0
C      1  0.5050600000000  0.5860280000000  0.5043260000000 1.0
C      1  0.4506360000000  0.5044120000000  0.4363810000000 1.0
C      1  0.4656750000000  0.4833110000000  0.4668440000000 1.0
C      1  0.4887280000000  0.4363130000000  0.4486420000000 1.0
C      1  0.4508010000000  0.5022240000000  0.5157650000000 1.0
C      1  0.4982440000000  0.4951020000000  0.5535520000000 1.0
C      1  0.5875460000000  0.4810100000000  0.4881950000000 1.0
C      1  0.5216220000000  0.5144880000000  0.5445260000000 1.0
C      1  0.5092560000000  0.5298160000000  0.5718590000000 1.0
C      1  0.5525400000000  0.5360280000000  0.4359220000000 1.0
C      1  0.4132850000000  0.4995060000000  0.4756170000000 1.0
C      1  0.5298290000000  0.5047520000000  0.5821020000000 1.0
C      1  0.4803230000000  0.5333810000000  0.4909690000000 1.0
C      1  0.5022190000000  0.5611100000000  0.5600120000000 1.0
C      1  0.5385170000000  0.4563040000000  0.5627190000000 1.0
C      1  0.5028300000000  0.5487140000000  0.4881250000000 1.0
END
