TITL C-2778429-3646-1432 2.87494853996475e-05 125000 -1153.04291590038 0 0 198 (C1) n - 1
REM
REM in /home/nfs/bkarasulu/CARBON/AIRSS/Generating-Clusters/REBO/Only-C1/SD-CG/HFTN-CG
REM
REM
REM
REM
REM
REM ./C.cell (11c1c37f851c82e70ff6c80c92926a4b)
REM
REM compiler GCC version 9.2.1 20190827 (Red Hat 9.2.1-1)
REM options -cpp -mtune=generic -march=x86-64 -g -O0 -fpre-include=/usr/include/finclude/math-vector-fortran.h
REM seed 13076890 -975197322 -1879935654 -1628799870 -455429557 -1645260795 -474132022 932593278 684054382 -97158921 1781885307 -296464849 -1349398332 2099774251 1319343840 -164118917 -1939379615 -691152503 1760833579 -908059665 956161127 1686717851 1285392195 1180520047 -408107336 35899619 43287785 1273520219 1680005655 -409851413 576141349 -1035170667 -485290288
REM
CELL 1.54180   50.00000   50.00000   50.00000   90.00000   90.00000   90.00000
LATT -1
SFAC C  
C      1  0.5883590000000  0.4445210000000  0.4792830000000 1.0
C      1  0.4799680000000  0.5002570000000  0.4354760000000 1.0
C      1  0.5230070000000  0.3715810000000  0.4821410000000 1.0
C      1  0.5739790000000  0.4565080000000  0.5769710000000 1.0
C      1  0.5978460000000  0.5198740000000  0.5738670000000 1.0
C      1  0.5170240000000  0.5438610000000  0.6049260000000 1.0
C      1  0.4709040000000  0.4809840000000  0.4104570000000 1.0
C      1  0.4937560000000  0.4016830000000  0.4539700000000 1.0
C      1  0.5177740000000  0.6003800000000  0.5401750000000 1.0
C      1  0.4874330000000  0.4308240000000  0.4138770000000 1.0
C      1  0.4325500000000  0.4756370000000  0.5823020000000 1.0
C      1  0.4618000000000  0.5800090000000  0.4320490000000 1.0
C      1  0.3961230000000  0.4433730000000  0.4994300000000 1.0
C      1  0.4646560000000  0.4267550000000  0.5663020000000 1.0
C      1  0.4235770000000  0.4544880000000  0.5068520000000 1.0
C      1  0.4559800000000  0.3944170000000  0.5151840000000 1.0
C      1  0.4522260000000  0.4757720000000  0.5417640000000 1.0
C      1  0.5534480000000  0.4123070000000  0.4589450000000 1.0
C      1  0.5588200000000  0.5471550000000  0.4275680000000 1.0
C      1  0.4732090000000  0.5067850000000  0.5279010000000 1.0
C      1  0.5365080000000  0.5378630000000  0.4515020000000 1.0
C      1  0.5176570000000  0.4107560000000  0.4763920000000 1.0
C      1  0.5992190000000  0.5628090000000  0.5556070000000 1.0
C      1  0.5914000000000  0.5479780000000  0.4330510000000 1.0
C      1  0.4509990000000  0.4931350000000  0.5060070000000 1.0
C      1  0.5248870000000  0.5082620000000  0.4644260000000 1.0
C      1  0.4375380000000  0.5017200000000  0.6012590000000 1.0
C      1  0.4889670000000  0.4942730000000  0.5923090000000 1.0
C      1  0.5951560000000  0.4866480000000  0.4306830000000 1.0
C      1  0.5886340000000  0.4798760000000  0.5298700000000 1.0
C      1  0.4880560000000  0.4778260000000  0.4572010000000 1.0
C      1  0.3798530000000  0.4892460000000  0.4969410000000 1.0
C      1  0.4154900000000  0.5166210000000  0.5636210000000 1.0
C      1  0.5906680000000  0.4400360000000  0.5272290000000 1.0
C      1  0.6126570000000  0.4810380000000  0.5091040000000 1.0
C      1  0.5390430000000  0.5452630000000  0.5282090000000 1.0
C      1  0.5052010000000  0.5252070000000  0.4172750000000 1.0
C      1  0.5948300000000  0.4560740000000  0.4477670000000 1.0
C      1  0.5220650000000  0.5873760000000  0.5716570000000 1.0
C      1  0.5687820000000  0.5640330000000  0.4630920000000 1.0
C      1  0.5921580000000  0.4576900000000  0.5518080000000 1.0
C      1  0.4121850000000  0.4173430000000  0.4983280000000 1.0
C      1  0.4527080000000  0.5958480000000  0.5091950000000 1.0
C      1  0.5531690000000  0.5306960000000  0.4804470000000 1.0
C      1  0.4132240000000  0.4511970000000  0.5572980000000 1.0
C      1  0.4407320000000  0.5475510000000  0.5014610000000 1.0
C      1  0.5690040000000  0.5203270000000  0.5045560000000 1.0
C      1  0.3940320000000  0.4648480000000  0.4555460000000 1.0
C      1  0.6127620000000  0.5416010000000  0.5672080000000 1.0
C      1  0.5489460000000  0.5696540000000  0.5124880000000 1.0
C      1  0.4449630000000  0.4416160000000  0.4940710000000 1.0
C      1  0.5320230000000  0.4354230000000  0.4905400000000 1.0
C      1  0.4790540000000  0.5305500000000  0.5792800000000 1.0
C      1  0.3904080000000  0.5716030000000  0.5176950000000 1.0
C      1  0.5419170000000  0.5305670000000  0.6034310000000 1.0
C      1  0.5198040000000  0.5026270000000  0.4337280000000 1.0
C      1  0.4514020000000  0.4431130000000  0.5330610000000 1.0
C      1  0.4804680000000  0.5778650000000  0.5119220000000 1.0
C      1  0.4362260000000  0.5772680000000  0.5596520000000 1.0
C      1  0.4702140000000  0.6132490000000  0.5287850000000 1.0
C      1  0.4816410000000  0.5340560000000  0.4402300000000 1.0
C      1  0.5106720000000  0.5614520000000  0.5052650000000 1.0
C      1  0.5282840000000  0.5417900000000  0.4025250000000 1.0
C      1  0.4793080000000  0.5692380000000  0.5506000000000 1.0
C      1  0.3987630000000  0.4899360000000  0.5252670000000 1.0
C      1  0.5477840000000  0.5753210000000  0.4385130000000 1.0
C      1  0.4818350000000  0.4461040000000  0.4526740000000 1.0
C      1  0.5144660000000  0.5043230000000  0.5128920000000 1.0
C      1  0.4460940000000  0.5524930000000  0.5772570000000 1.0
C      1  0.5668370000000  0.5261000000000  0.5826480000000 1.0
C      1  0.4249830000000  0.4816010000000  0.5121880000000 1.0
C      1  0.5105530000000  0.4450380000000  0.5411000000000 1.0
C      1  0.4793290000000  0.5614690000000  0.5799850000000 1.0
C      1  0.4827340000000  0.4511950000000  0.4868150000000 1.0
C      1  0.5134940000000  0.4505410000000  0.4429960000000 1.0
C      1  0.4918280000000  0.4798680000000  0.5380320000000 1.0
C      1  0.4600460000000  0.4568860000000  0.5796920000000 1.0
C      1  0.5270140000000  0.5503050000000  0.5587170000000 1.0
C      1  0.5955260000000  0.5429600000000  0.4648780000000 1.0
C      1  0.5377110000000  0.5218010000000  0.5648170000000 1.0
C      1  0.4614420000000  0.5069900000000  0.4615800000000 1.0
C      1  0.5668990000000  0.5297440000000  0.5356420000000 1.0
C      1  0.4881740000000  0.5974980000000  0.4449470000000 1.0
C      1  0.3854770000000  0.5209170000000  0.5037490000000 1.0
C      1  0.5574550000000  0.4764650000000  0.5566180000000 1.0
C      1  0.5452060000000  0.4014500000000  0.5166790000000 1.0
C      1  0.5084250000000  0.5684480000000  0.5897790000000 1.0
C      1  0.5371360000000  0.4831400000000  0.4766190000000 1.0
C      1  0.4363210000000  0.5905510000000  0.4495800000000 1.0
C      1  0.5191720000000  0.4579700000000  0.4725520000000 1.0
C      1  0.4983130000000  0.3751890000000  0.4835080000000 1.0
C      1  0.4323950000000  0.4278280000000  0.5544260000000 1.0
C      1  0.3882320000000  0.5104990000000  0.4714070000000 1.0
C      1  0.5387300000000  0.4994260000000  0.5906690000000 1.0
C      1  0.5080660000000  0.5649000000000  0.4143140000000 1.0
C      1  0.4168030000000  0.5034560000000  0.4310000000000 1.0
C      1  0.4629230000000  0.4812970000000  0.6026250000000 1.0
C      1  0.4985140000000  0.4827410000000  0.4866130000000 1.0
C      1  0.5463530000000  0.5981870000000  0.5256350000000 1.0
C      1  0.5621910000000  0.4932910000000  0.5203870000000 1.0
C      1  0.5084440000000  0.4748110000000  0.4220530000000 1.0
C      1  0.5428050000000  0.4663950000000  0.4040840000000 1.0
C      1  0.4816100000000  0.4307040000000  0.5363490000000 1.0
C      1  0.5851020000000  0.5179280000000  0.4209430000000 1.0
C      1  0.4782150000000  0.4076010000000  0.4308720000000 1.0
C      1  0.4722830000000  0.4697160000000  0.5135520000000 1.0
C      1  0.4458320000000  0.4487910000000  0.4645660000000 1.0
C      1  0.5427550000000  0.4346850000000  0.5890460000000 1.0
C      1  0.5252580000000  0.4052470000000  0.4437270000000 1.0
C      1  0.5725810000000  0.5042680000000  0.5571380000000 1.0
C      1  0.5463020000000  0.4938170000000  0.4180230000000 1.0
C      1  0.4824820000000  0.5514000000000  0.4747240000000 1.0
C      1  0.4897540000000  0.4244150000000  0.5038510000000 1.0
C      1  0.5125250000000  0.4470620000000  0.5856170000000 1.0
C      1  0.4538750000000  0.5255330000000  0.5571970000000 1.0
C      1  0.5093570000000  0.5533450000000  0.4451910000000 1.0
C      1  0.5638810000000  0.4299380000000  0.4847590000000 1.0
C      1  0.3830420000000  0.4621040000000  0.4826970000000 1.0
C      1  0.4117810000000  0.5370270000000  0.5446200000000 1.0
C      1  0.5280520000000  0.5746340000000  0.4644530000000 1.0
C      1  0.5129860000000  0.4494860000000  0.4009150000000 1.0
C      1  0.5187410000000  0.5919090000000  0.4303150000000 1.0
C      1  0.5455360000000  0.3944830000000  0.4870300000000 1.0
C      1  0.4294660000000  0.5743020000000  0.5101950000000 1.0
C      1  0.5653960000000  0.4912090000000  0.4421090000000 1.0
C      1  0.6008810000000  0.4526460000000  0.5033990000000 1.0
C      1  0.5242580000000  0.4112750000000  0.5725010000000 1.0
C      1  0.5597410000000  0.5693320000000  0.4881630000000 1.0
C      1  0.4288530000000  0.5250590000000  0.5879490000000 1.0
C      1  0.4154360000000  0.5684690000000  0.5392250000000 1.0
C      1  0.5461610000000  0.4670060000000  0.5936270000000 1.0
C      1  0.4936890000000  0.4204550000000  0.5763300000000 1.0
C      1  0.4284670000000  0.5297360000000  0.4295330000000 1.0
C      1  0.5112150000000  0.4039360000000  0.5205500000000 1.0
C      1  0.4955040000000  0.5239700000000  0.6043410000000 1.0
C      1  0.4117600000000  0.4435070000000  0.4451440000000 1.0
C      1  0.4684980000000  0.5086670000000  0.3902930000000 1.0
C      1  0.5197800000000  0.5328010000000  0.4883710000000 1.0
C      1  0.4457100000000  0.5269430000000  0.5260910000000 1.0
C      1  0.4492050000000  0.4096550000000  0.4864180000000 1.0
C      1  0.5477870000000  0.5767720000000  0.5517790000000 1.0
C      1  0.6283520000000  0.5032430000000  0.4998950000000 1.0
C      1  0.4595460000000  0.5923330000000  0.5483190000000 1.0
C      1  0.4796900000000  0.5466340000000  0.5250660000000 1.0
C      1  0.3872090000000  0.5538200000000  0.4974850000000 1.0
C      1  0.4353530000000  0.4825820000000  0.4269300000000 1.0
C      1  0.4923690000000  0.5163050000000  0.5537640000000 1.0
C      1  0.4537710000000  0.4756570000000  0.4527900000000 1.0
C      1  0.5201330000000  0.6200760000000  0.4894880000000 1.0
C      1  0.5525710000000  0.4489060000000  0.5394450000000 1.0
C      1  0.4653960000000  0.4522500000000  0.4227520000000 1.0
C      1  0.4128990000000  0.5243550000000  0.5175040000000 1.0
C      1  0.5733690000000  0.5592020000000  0.5473790000000 1.0
C      1  0.4337560000000  0.5940560000000  0.4825770000000 1.0
C      1  0.5359570000000  0.4813900000000  0.5070110000000 1.0
C      1  0.5904800000000  0.4866830000000  0.4729040000000 1.0
C      1  0.4330120000000  0.4160810000000  0.5223650000000 1.0
C      1  0.4324100000000  0.4519380000000  0.4271180000000 1.0
C      1  0.5311500000000  0.4527420000000  0.5163710000000 1.0
C      1  0.5419990000000  0.4434070000000  0.4271920000000 1.0
C      1  0.5165930000000  0.6067740000000  0.4615260000000 1.0
C      1  0.5198060000000  0.4205320000000  0.4174230000000 1.0
C      1  0.4485910000000  0.5520110000000  0.4173680000000 1.0
C      1  0.4983840000000  0.4984600000000  0.4003400000000 1.0
C      1  0.4674440000000  0.4951130000000  0.5654120000000 1.0
C      1  0.5551300000000  0.5225640000000  0.4052300000000 1.0
C      1  0.5537950000000  0.4236130000000  0.5607180000000 1.0
C      1  0.4819810000000  0.3895970000000  0.5218080000000 1.0
C      1  0.4499140000000  0.5343310000000  0.4530810000000 1.0
C      1  0.5663800000000  0.4195320000000  0.5304500000000 1.0
C      1  0.4309230000000  0.5418900000000  0.4753210000000 1.0
C      1  0.4025920000000  0.5404000000000  0.4738050000000 1.0
C      1  0.3962120000000  0.4934790000000  0.4482860000000 1.0
C      1  0.4645580000000  0.5374730000000  0.3917710000000 1.0
C      1  0.4863460000000  0.5311210000000  0.4962580000000 1.0
C      1  0.4855670000000  0.6006450000000  0.4870010000000 1.0
C      1  0.4625110000000  0.6035490000000  0.4664620000000 1.0
C      1  0.5081560000000  0.5306940000000  0.5296720000000 1.0
C      1  0.5645020000000  0.4423800000000  0.4472540000000 1.0
C      1  0.5091810000000  0.5697260000000  0.5382870000000 1.0
C      1  0.5624650000000  0.4713250000000  0.4650540000000 1.0
C      1  0.4990870000000  0.6139900000000  0.5155410000000 1.0
C      1  0.6164780000000  0.5276440000000  0.4846690000000 1.0
C      1  0.5721770000000  0.5205450000000  0.4538170000000 1.0
C      1  0.4888900000000  0.4584020000000  0.5642660000000 1.0
C      1  0.4795450000000  0.4014220000000  0.4836790000000 1.0
C      1  0.6167470000000  0.4804030000000  0.4556080000000 1.0
C      1  0.5293930000000  0.3956000000000  0.5461950000000 1.0
C      1  0.4790180000000  0.5640020000000  0.4074780000000 1.0
C      1  0.5912350000000  0.5100810000000  0.4872470000000 1.0
C      1  0.5457780000000  0.6188290000000  0.5023580000000 1.0
C      1  0.4240620000000  0.4218690000000  0.4667390000000 1.0
C      1  0.5361790000000  0.5045840000000  0.5393680000000 1.0
C      1  0.5241130000000  0.4755160000000  0.5483470000000 1.0
C      1  0.4201430000000  0.4846400000000  0.5517490000000 1.0
C      1  0.5000910000000  0.5744510000000  0.4777760000000 1.0
C      1  0.5138680000000  0.4788740000000  0.5918340000000 1.0
C      1  0.4751590000000  0.5049270000000  0.4881450000000 1.0
END
