TITL C-2778427-5640-1055 -0.00239831268731887 125000 -703.03632879584 0 0 123 (C1) n - 1
REM
REM in /home/nfs/bkarasulu/CARBON/AIRSS/Generating-Clusters/REBO/Only-C1/SD-CG/HFTN-CG
REM
REM
REM
REM
REM
REM ./C.cell (11c1c37f851c82e70ff6c80c92926a4b)
REM
REM compiler GCC version 9.2.1 20190827 (Red Hat 9.2.1-1)
REM options -cpp -mtune=generic -march=x86-64 -g -O0 -fpre-include=/usr/include/finclude/math-vector-fortran.h
REM seed 1773099952 191373826 -1366024463 -463053903 -1368036856 -1454878285 243561277 1659119321 -1100171340 -1354968880 123833406 -1009661744 690687872 174148209 -1113357515 -1907970578 -2138100544 1142928212 -318673723 -500492179 -952330081 -1047107760 1360061532 -1437550344 1691208783 452375426 -1368879755 -64402564 -1314430294 943157849 332387660 2070052691 915894245
REM
CELL 1.54180   50.00000   50.00000   50.00000   90.00000   90.00000   90.00000
LATT -1
SFAC C  
C      1  0.5577090000000  0.5759880000000  0.4971680000000 1.0
C      1  0.5266100000000  0.5850180000000  0.5018030000000 1.0
C      1  0.4914300000000  0.5322240000000  0.4898030000000 1.0
C      1  0.4855410000000  0.5162020000000  0.4142530000000 1.0
C      1  0.5536020000000  0.4991150000000  0.5296560000000 1.0
C      1  0.5272100000000  0.5506110000000  0.4997770000000 1.0
C      1  0.4442750000000  0.4634880000000  0.5695110000000 1.0
C      1  0.4574640000000  0.4496670000000  0.5006220000000 1.0
C      1  0.5584360000000  0.4626620000000  0.4281650000000 1.0
C      1  0.4297440000000  0.4517100000000  0.5293360000000 1.0
C      1  0.4858180000000  0.4840920000000  0.5024870000000 1.0
C      1  0.5015560000000  0.5265890000000  0.4598900000000 1.0
C      1  0.5326630000000  0.4181950000000  0.4720530000000 1.0
C      1  0.5219650000000  0.4197370000000  0.5588860000000 1.0
C      1  0.5009780000000  0.4642930000000  0.5256220000000 1.0
C      1  0.4957270000000  0.5277300000000  0.5765650000000 1.0
C      1  0.5768680000000  0.5189340000000  0.5553840000000 1.0
C      1  0.4745070000000  0.5857630000000  0.4943340000000 1.0
C      1  0.5005180000000  0.4433870000000  0.5512830000000 1.0
C      1  0.4862290000000  0.5656320000000  0.5685660000000 1.0
C      1  0.4118990000000  0.4613680000000  0.4843410000000 1.0
C      1  0.4249380000000  0.4999710000000  0.5358720000000 1.0
C      1  0.4903270000000  0.5870210000000  0.5426740000000 1.0
C      1  0.4900060000000  0.4259220000000  0.4453570000000 1.0
C      1  0.4430100000000  0.5551920000000  0.5240010000000 1.0
C      1  0.5456670000000  0.4779160000000  0.5082810000000 1.0
C      1  0.4788070000000  0.5491090000000  0.5403390000000 1.0
C      1  0.4663490000000  0.5128170000000  0.5776940000000 1.0
C      1  0.5161570000000  0.4996360000000  0.5568370000000 1.0
C      1  0.5383030000000  0.4854160000000  0.4429250000000 1.0
C      1  0.5330800000000  0.5347100000000  0.4566240000000 1.0
C      1  0.5129010000000  0.5349590000000  0.4220970000000 1.0
C      1  0.4593850000000  0.5775990000000  0.4727030000000 1.0
C      1  0.5779090000000  0.4513730000000  0.4434090000000 1.0
C      1  0.5091820000000  0.4099150000000  0.4588100000000 1.0
C      1  0.4838540000000  0.5079210000000  0.4455040000000 1.0
C      1  0.5705140000000  0.4171580000000  0.5116240000000 1.0
C      1  0.4666670000000  0.5090370000000  0.5164200000000 1.0
C      1  0.5607930000000  0.4587790000000  0.5480240000000 1.0
C      1  0.5646070000000  0.5689440000000  0.4696260000000 1.0
C      1  0.4671840000000  0.5739120000000  0.5220120000000 1.0
C      1  0.5144320000000  0.5561410000000  0.5804970000000 1.0
C      1  0.5233210000000  0.5935680000000  0.4490200000000 1.0
C      1  0.4767160000000  0.4187190000000  0.4841430000000 1.0
C      1  0.4429260000000  0.5537130000000  0.4741800000000 1.0
C      1  0.4123820000000  0.4690700000000  0.4563490000000 1.0
C      1  0.4329020000000  0.5237890000000  0.5590400000000 1.0
C      1  0.5018090000000  0.4511120000000  0.4360890000000 1.0
C      1  0.4531690000000  0.5239740000000  0.4217440000000 1.0
C      1  0.4242600000000  0.5252560000000  0.4375110000000 1.0
C      1  0.4693820000000  0.4791420000000  0.5426050000000 1.0
C      1  0.4915060000000  0.4118010000000  0.5453220000000 1.0
C      1  0.4820760000000  0.4531690000000  0.5751650000000 1.0
C      1  0.5285380000000  0.4808130000000  0.4722740000000 1.0
C      1  0.5005670000000  0.5930020000000  0.5118320000000 1.0
C      1  0.4979760000000  0.4407190000000  0.4815870000000 1.0
C      1  0.4556340000000  0.4986870000000  0.4619610000000 1.0
C      1  0.4847630000000  0.4901860000000  0.4003210000000 1.0
C      1  0.4976240000000  0.4701330000000  0.4757570000000 1.0
C      1  0.5115860000000  0.4692280000000  0.5794230000000 1.0
C      1  0.5015390000000  0.5558380000000  0.4444590000000 1.0
C      1  0.4653730000000  0.5436070000000  0.4430670000000 1.0
C      1  0.4153710000000  0.5010460000000  0.4490100000000 1.0
C      1  0.5757700000000  0.4374580000000  0.5282720000000 1.0
C      1  0.4931250000000  0.5015360000000  0.5372950000000 1.0
C      1  0.5270270000000  0.4531490000000  0.5104650000000 1.0
C      1  0.4612800000000  0.4444240000000  0.4434040000000 1.0
C      1  0.5504410000000  0.5285960000000  0.4980630000000 1.0
C      1  0.4338070000000  0.4248080000000  0.5210560000000 1.0
C      1  0.4851350000000  0.4762950000000  0.4472390000000 1.0
C      1  0.4532820000000  0.4260240000000  0.4689810000000 1.0
C      1  0.5393180000000  0.5675640000000  0.4487570000000 1.0
C      1  0.5866240000000  0.5025820000000  0.5304200000000 1.0
C      1  0.5457390000000  0.5217460000000  0.4036170000000 1.0
C      1  0.4273280000000  0.5526830000000  0.5463880000000 1.0
C      1  0.4442290000000  0.4756010000000  0.5315310000000 1.0
C      1  0.4824120000000  0.4858220000000  0.5730890000000 1.0
C      1  0.5629590000000  0.5540150000000  0.5171550000000 1.0
C      1  0.5370800000000  0.5786030000000  0.5415600000000 1.0
C      1  0.5625530000000  0.5044010000000  0.5754790000000 1.0
C      1  0.4296550000000  0.4365300000000  0.4893850000000 1.0
C      1  0.5047230000000  0.5110290000000  0.5065400000000 1.0
C      1  0.5700470000000  0.5449060000000  0.4472180000000 1.0
C      1  0.4697790000000  0.4660290000000  0.4182720000000 1.0
C      1  0.5599420000000  0.5463940000000  0.5478390000000 1.0
C      1  0.4275330000000  0.4977920000000  0.4790800000000 1.0
C      1  0.4485570000000  0.4923830000000  0.4202120000000 1.0
C      1  0.5078950000000  0.5372380000000  0.5461820000000 1.0
C      1  0.5822580000000  0.5192650000000  0.5042800000000 1.0
C      1  0.5814950000000  0.4708050000000  0.5241490000000 1.0
C      1  0.5360890000000  0.4488830000000  0.5681310000000 1.0
C      1  0.5278530000000  0.4563990000000  0.4319590000000 1.0
C      1  0.4745920000000  0.5761900000000  0.4448600000000 1.0
C      1  0.5615600000000  0.4194320000000  0.4848440000000 1.0
C      1  0.5425410000000  0.5485030000000  0.5770890000000 1.0
C      1  0.4607370000000  0.4413210000000  0.5522980000000 1.0
C      1  0.4474830000000  0.5293830000000  0.5121220000000 1.0
C      1  0.5453340000000  0.5485970000000  0.4215320000000 1.0
C      1  0.5379000000000  0.4508900000000  0.4800080000000 1.0
C      1  0.5380830000000  0.5216750000000  0.5441680000000 1.0
C      1  0.4582140000000  0.4111330000000  0.5365970000000 1.0
C      1  0.5185830000000  0.5091570000000  0.5895680000000 1.0
C      1  0.5450910000000  0.5219310000000  0.5903640000000 1.0
C      1  0.5627960000000  0.5178250000000  0.4604550000000 1.0
C      1  0.5711310000000  0.4479010000000  0.4729150000000 1.0
C      1  0.5725010000000  0.4727940000000  0.4913980000000 1.0
C      1  0.4603250000000  0.5430020000000  0.5665240000000 1.0
C      1  0.5748830000000  0.5024960000000  0.4801460000000 1.0
C      1  0.5443810000000  0.4819100000000  0.5645260000000 1.0
C      1  0.4989880000000  0.5907520000000  0.4631560000000 1.0
C      1  0.5039350000000  0.5615910000000  0.4786390000000 1.0
C      1  0.5321950000000  0.5042470000000  0.4956600000000 1.0
C      1  0.4426310000000  0.4720800000000  0.4464480000000 1.0
C      1  0.4748470000000  0.4439000000000  0.5213050000000 1.0
C      1  0.4147210000000  0.4852010000000  0.5068570000000 1.0
C      1  0.5255430000000  0.5575410000000  0.5307430000000 1.0
C      1  0.4250040000000  0.5224510000000  0.4969280000000 1.0
C      1  0.5043410000000  0.4277770000000  0.5112900000000 1.0
C      1  0.4411650000000  0.4920190000000  0.5677590000000 1.0
C      1  0.4809040000000  0.4042180000000  0.5137530000000 1.0
C      1  0.4221450000000  0.5483040000000  0.4548700000000 1.0
C      1  0.4639610000000  0.5288470000000  0.4731690000000 1.0
C      1  0.5353090000000  0.5115470000000  0.4322950000000 1.0
END
