TITL C-2778437-8639-1040 0.00437112576690574 125000 -610.963482517364 0 0 103 (C1) n - 1
REM
REM in /home/nfs/bkarasulu/CARBON/AIRSS/Generating-Clusters/REBO/Only-C1/SD-CG/HFTN-CG
REM
REM
REM
REM
REM
REM ./C.cell (11c1c37f851c82e70ff6c80c92926a4b)
REM
REM compiler GCC version 9.2.1 20190827 (Red Hat 9.2.1-1)
REM options -cpp -mtune=generic -march=x86-64 -g -O0 -fpre-include=/usr/include/finclude/math-vector-fortran.h
REM seed -631733432 -495224421 -1710090013 -669998242 -478475279 -2042519191 -2120040233 2090236446 -526293674 -914116520 966705093 -238091102 282854078 391572836 -1381312613 1912408063 -771771832 1340238106 -1275810826 509765523 271496854 -1314062746 -461179172 1735331418 974707079 -2012463856 -26309776 54324497 625797794 -575284643 382151001 -930275542 -792664172
REM
CELL 1.54180   50.00000   50.00000   50.00000   90.00000   90.00000   90.00000
LATT -1
SFAC C  
C      1  0.5238220000000  0.4093240000000  0.5025400000000 1.0
C      1  0.5528190000000  0.5061930000000  0.4897140000000 1.0
C      1  0.4423470000000  0.5699650000000  0.4743780000000 1.0
C      1  0.5177670000000  0.4754240000000  0.4741780000000 1.0
C      1  0.5310330000000  0.4288280000000  0.4545000000000 1.0
C      1  0.4572540000000  0.5106400000000  0.4747710000000 1.0
C      1  0.5173910000000  0.5352290000000  0.5564560000000 1.0
C      1  0.5410260000000  0.4562000000000  0.4688000000000 1.0
C      1  0.4271990000000  0.5280000000000  0.4998920000000 1.0
C      1  0.5287970000000  0.5438020000000  0.4232060000000 1.0
C      1  0.5802430000000  0.4658840000000  0.4984430000000 1.0
C      1  0.5153890000000  0.5025240000000  0.4541060000000 1.0
C      1  0.4498810000000  0.4541540000000  0.5627450000000 1.0
C      1  0.4920850000000  0.4476990000000  0.4286370000000 1.0
C      1  0.5357410000000  0.4707730000000  0.5397320000000 1.0
C      1  0.5144530000000  0.4912770000000  0.5819360000000 1.0
C      1  0.5123850000000  0.5683840000000  0.4366840000000 1.0
C      1  0.4764470000000  0.5443970000000  0.5176940000000 1.0
C      1  0.4478670000000  0.4427610000000  0.5362170000000 1.0
C      1  0.4677690000000  0.5837510000000  0.4734870000000 1.0
C      1  0.4906340000000  0.5100430000000  0.4450940000000 1.0
C      1  0.4582430000000  0.4838370000000  0.4615950000000 1.0
C      1  0.5012950000000  0.4223470000000  0.5436200000000 1.0
C      1  0.5685160000000  0.5058640000000  0.5313940000000 1.0
C      1  0.4721190000000  0.4941850000000  0.5277610000000 1.0
C      1  0.5078270000000  0.5596390000000  0.4043650000000 1.0
C      1  0.5395870000000  0.5205050000000  0.4439170000000 1.0
C      1  0.5397770000000  0.4972760000000  0.5262460000000 1.0
C      1  0.4239640000000  0.5126800000000  0.4716290000000 1.0
C      1  0.5087370000000  0.5805250000000  0.5001050000000 1.0
C      1  0.4253570000000  0.5052430000000  0.5191320000000 1.0
C      1  0.5711240000000  0.4651520000000  0.5632530000000 1.0
C      1  0.4232950000000  0.4644680000000  0.4602190000000 1.0
C      1  0.5187640000000  0.5740810000000  0.4684110000000 1.0
C      1  0.4158020000000  0.4806710000000  0.5060060000000 1.0
C      1  0.5180440000000  0.5225300000000  0.5274150000000 1.0
C      1  0.4530360000000  0.5560650000000  0.5487330000000 1.0
C      1  0.5674680000000  0.4804490000000  0.4292420000000 1.0
C      1  0.5263620000000  0.4707710000000  0.5659910000000 1.0
C      1  0.4904000000000  0.5160030000000  0.5554120000000 1.0
C      1  0.5775560000000  0.5285870000000  0.5168350000000 1.0
C      1  0.5639440000000  0.4722940000000  0.4554280000000 1.0
C      1  0.5004130000000  0.4637740000000  0.4996140000000 1.0
C      1  0.4725430000000  0.4139370000000  0.5010490000000 1.0
C      1  0.5439450000000  0.4198120000000  0.4841800000000 1.0
C      1  0.5556700000000  0.4454340000000  0.5753650000000 1.0
C      1  0.5593010000000  0.5570470000000  0.5164600000000 1.0
C      1  0.5185190000000  0.4386130000000  0.4259150000000 1.0
C      1  0.5364780000000  0.5628670000000  0.4931330000000 1.0
C      1  0.4973430000000  0.4362770000000  0.5835410000000 1.0
C      1  0.4402280000000  0.4765970000000  0.4374920000000 1.0
C      1  0.4302910000000  0.4580780000000  0.5142830000000 1.0
C      1  0.5323850000000  0.5616490000000  0.5572080000000 1.0
C      1  0.4428400000000  0.4824040000000  0.5644770000000 1.0
C      1  0.4980140000000  0.4090220000000  0.4895080000000 1.0
C      1  0.4573380000000  0.4936280000000  0.5867450000000 1.0
C      1  0.5248500000000  0.5172720000000  0.5812120000000 1.0
C      1  0.4319590000000  0.4393730000000  0.4703000000000 1.0
C      1  0.4132700000000  0.4846110000000  0.4778250000000 1.0
C      1  0.5720920000000  0.4872010000000  0.4799500000000 1.0
C      1  0.4939230000000  0.5797900000000  0.5491420000000 1.0
C      1  0.4876530000000  0.5765030000000  0.4560370000000 1.0
C      1  0.4615840000000  0.4573940000000  0.5055490000000 1.0
C      1  0.5955080000000  0.4686960000000  0.5218000000000 1.0
C      1  0.5130230000000  0.5971920000000  0.5573300000000 1.0
C      1  0.4819020000000  0.4405380000000  0.4545520000000 1.0
C      1  0.4880290000000  0.4579580000000  0.5269830000000 1.0
C      1  0.4911660000000  0.4820070000000  0.5508300000000 1.0
C      1  0.4344220000000  0.5157300000000  0.4424600000000 1.0
C      1  0.4848760000000  0.4887460000000  0.5836600000000 1.0
C      1  0.4356690000000  0.5552850000000  0.4995500000000 1.0
C      1  0.4931170000000  0.5089700000000  0.5099980000000 1.0
C      1  0.4667880000000  0.4585220000000  0.4747280000000 1.0
C      1  0.4661770000000  0.5200040000000  0.4369350000000 1.0
C      1  0.4430830000000  0.5439840000000  0.4326070000000 1.0
C      1  0.4594300000000  0.5929100000000  0.5189390000000 1.0
C      1  0.5565070000000  0.5351440000000  0.4107730000000 1.0
C      1  0.4445390000000  0.5686350000000  0.5238680000000 1.0
C      1  0.4326240000000  0.5648250000000  0.4482480000000 1.0
C      1  0.4538490000000  0.4254020000000  0.4832590000000 1.0
C      1  0.5561010000000  0.4469300000000  0.4979350000000 1.0
C      1  0.5763170000000  0.5370720000000  0.4360750000000 1.0
C      1  0.5217630000000  0.4971270000000  0.4972350000000 1.0
C      1  0.4388070000000  0.4807590000000  0.4112230000000 1.0
C      1  0.4937450000000  0.5666410000000  0.5236650000000 1.0
C      1  0.5403830000000  0.4475270000000  0.5249780000000 1.0
C      1  0.4737980000000  0.4268810000000  0.5281580000000 1.0
C      1  0.4700620000000  0.5738000000000  0.5638940000000 1.0
C      1  0.5006150000000  0.4214740000000  0.4643980000000 1.0
C      1  0.4783970000000  0.5930010000000  0.4980130000000 1.0
C      1  0.5248340000000  0.4236620000000  0.5278850000000 1.0
C      1  0.5824030000000  0.4825720000000  0.5430870000000 1.0
C      1  0.5630450000000  0.5432450000000  0.3852650000000 1.0
C      1  0.5245200000000  0.4432240000000  0.5787400000000 1.0
C      1  0.5653290000000  0.5327330000000  0.4626530000000 1.0
C      1  0.5585060000000  0.5042790000000  0.4217920000000 1.0
C      1  0.4726880000000  0.5255060000000  0.4924390000000 1.0
C      1  0.4680000000000  0.5302280000000  0.5441590000000 1.0
C      1  0.4456420000000  0.4973920000000  0.5384570000000 1.0
C      1  0.4712030000000  0.4433380000000  0.5786000000000 1.0
C      1  0.5515180000000  0.5695080000000  0.5431810000000 1.0
C      1  0.5778960000000  0.5369590000000  0.4873520000000 1.0
C      1  0.5395120000000  0.5318840000000  0.5053950000000 1.0
END
