TITL C-2778433-5640-775 0.0026746138577797 125000 -1048.25646875349 0 0 179 (C1) n - 1
REM
REM in /home/nfs/bkarasulu/CARBON/AIRSS/Generating-Clusters/REBO/Only-C1/SD-CG/HFTN-CG
REM
REM
REM
REM
REM
REM ./C.cell (11c1c37f851c82e70ff6c80c92926a4b)
REM
REM compiler GCC version 9.2.1 20190827 (Red Hat 9.2.1-1)
REM options -cpp -mtune=generic -march=x86-64 -g -O0 -fpre-include=/usr/include/finclude/math-vector-fortran.h
REM seed -1143263626 2020368607 273253428 1615424224 264683130 -1079036673 1072918748 1846778774 -1037584083 1012849742 1726647851 465633383 1969084157 -1778721038 367553127 -1761663359 333556820 -1217443226 -951867653 -7975731 -833993838 1470427508 -775513109 -311008335 -951677520 998907721 989096055 603227912 577429509 992253494 -345062319 -1708779544 -376719545
REM
CELL 1.54180   50.00000   50.00000   50.00000   90.00000   90.00000   90.00000
LATT -1
SFAC C  
C      1  0.3802670000000  0.5134310000000  0.5791570000000 1.0
C      1  0.5321170000000  0.4893180000000  0.6031900000000 1.0
C      1  0.4532380000000  0.4882400000000  0.4668280000000 1.0
C      1  0.4380100000000  0.4119280000000  0.4689050000000 1.0
C      1  0.4611730000000  0.5924100000000  0.4840880000000 1.0
C      1  0.5120170000000  0.4439560000000  0.5552360000000 1.0
C      1  0.5563970000000  0.4200880000000  0.5426790000000 1.0
C      1  0.6045580000000  0.4993360000000  0.5113250000000 1.0
C      1  0.5510710000000  0.5918980000000  0.4791940000000 1.0
C      1  0.5574070000000  0.5819070000000  0.5514080000000 1.0
C      1  0.5613990000000  0.4673500000000  0.4487470000000 1.0
C      1  0.4653790000000  0.4706300000000  0.5361050000000 1.0
C      1  0.4180650000000  0.5055580000000  0.5326840000000 1.0
C      1  0.4882080000000  0.5457120000000  0.5413950000000 1.0
C      1  0.4917500000000  0.4614190000000  0.6068100000000 1.0
C      1  0.4072220000000  0.4554640000000  0.4818600000000 1.0
C      1  0.4955250000000  0.6163040000000  0.5224280000000 1.0
C      1  0.4878280000000  0.5136140000000  0.5465280000000 1.0
C      1  0.5351490000000  0.6074140000000  0.4970330000000 1.0
C      1  0.5400350000000  0.5213890000000  0.4129230000000 1.0
C      1  0.4716480000000  0.5656900000000  0.4986720000000 1.0
C      1  0.5304240000000  0.4533050000000  0.4519720000000 1.0
C      1  0.5459960000000  0.4667940000000  0.5235640000000 1.0
C      1  0.4690660000000  0.5097220000000  0.5740340000000 1.0
C      1  0.5793530000000  0.4242020000000  0.5020760000000 1.0
C      1  0.4553560000000  0.4170720000000  0.4486340000000 1.0
C      1  0.4571460000000  0.4425430000000  0.5265870000000 1.0
C      1  0.5867670000000  0.4237270000000  0.4367670000000 1.0
C      1  0.4050090000000  0.5578790000000  0.5001970000000 1.0
C      1  0.4325550000000  0.5783190000000  0.4955050000000 1.0
C      1  0.4550760000000  0.5401220000000  0.4877970000000 1.0
C      1  0.5816890000000  0.4262180000000  0.5311040000000 1.0
C      1  0.5879370000000  0.5023180000000  0.4848250000000 1.0
C      1  0.5337100000000  0.5671200000000  0.5709850000000 1.0
C      1  0.4359720000000  0.4816670000000  0.5440580000000 1.0
C      1  0.4250090000000  0.4583070000000  0.4282130000000 1.0
C      1  0.5575140000000  0.4067620000000  0.4898560000000 1.0
C      1  0.4764050000000  0.4715660000000  0.4846830000000 1.0
C      1  0.5508580000000  0.4907250000000  0.5824310000000 1.0
C      1  0.4833370000000  0.4536990000000  0.4081130000000 1.0
C      1  0.5400790000000  0.4966930000000  0.4368080000000 1.0
C      1  0.4081940000000  0.4669910000000  0.5299640000000 1.0
C      1  0.5214000000000  0.4215540000000  0.4295690000000 1.0
C      1  0.5578700000000  0.4644570000000  0.5723070000000 1.0
C      1  0.5837740000000  0.4485160000000  0.4836080000000 1.0
C      1  0.5195860000000  0.4631890000000  0.6017940000000 1.0
C      1  0.5497000000000  0.5908040000000  0.4486420000000 1.0
C      1  0.5545500000000  0.5405080000000  0.4447940000000 1.0
C      1  0.4367200000000  0.4561040000000  0.5762020000000 1.0
C      1  0.4863370000000  0.5928870000000  0.5427490000000 1.0
C      1  0.5206690000000  0.5299330000000  0.5070270000000 1.0
C      1  0.4518040000000  0.4558850000000  0.4573810000000 1.0
C      1  0.4654080000000  0.5059160000000  0.4214320000000 1.0
C      1  0.5513620000000  0.4441370000000  0.4774230000000 1.0
C      1  0.4145960000000  0.5673170000000  0.4687230000000 1.0
C      1  0.5622800000000  0.4170060000000  0.4594620000000 1.0
C      1  0.5186190000000  0.5156660000000  0.6064590000000 1.0
C      1  0.5516020000000  0.5140360000000  0.5613200000000 1.0
C      1  0.3995240000000  0.4827500000000  0.4809230000000 1.0
C      1  0.4571280000000  0.5427080000000  0.5275120000000 1.0
C      1  0.5093070000000  0.5274830000000  0.5771500000000 1.0
C      1  0.4937590000000  0.5229080000000  0.4645130000000 1.0
C      1  0.4922230000000  0.5011340000000  0.4883880000000 1.0
C      1  0.4938240000000  0.5959070000000  0.4465290000000 1.0
C      1  0.5864050000000  0.4708990000000  0.4328210000000 1.0
C      1  0.4162160000000  0.4424300000000  0.5119740000000 1.0
C      1  0.5169240000000  0.5631880000000  0.4704330000000 1.0
C      1  0.5333270000000  0.4682010000000  0.4934740000000 1.0
C      1  0.5303140000000  0.4761970000000  0.4124150000000 1.0
C      1  0.5065190000000  0.6130030000000  0.4959610000000 1.0
C      1  0.4652590000000  0.5399980000000  0.5662470000000 1.0
C      1  0.4301050000000  0.5602620000000  0.5224400000000 1.0
C      1  0.4831640000000  0.5029170000000  0.3928390000000 1.0
C      1  0.4422250000000  0.5501600000000  0.4191090000000 1.0
C      1  0.5713560000000  0.5120520000000  0.5211350000000 1.0
C      1  0.5487290000000  0.4191790000000  0.4303800000000 1.0
C      1  0.5032990000000  0.5575230000000  0.4970140000000 1.0
C      1  0.5017050000000  0.4184020000000  0.5350680000000 1.0
C      1  0.5125740000000  0.5293700000000  0.4237970000000 1.0
C      1  0.4707950000000  0.5712760000000  0.4516340000000 1.0
C      1  0.5451230000000  0.6029430000000  0.5276450000000 1.0
C      1  0.5725220000000  0.5546040000000  0.4666970000000 1.0
C      1  0.4699380000000  0.3888620000000  0.5168740000000 1.0
C      1  0.5587720000000  0.5303240000000  0.4952220000000 1.0
C      1  0.5312110000000  0.3980510000000  0.4972230000000 1.0
C      1  0.6098760000000  0.5211650000000  0.5301440000000 1.0
C      1  0.5232380000000  0.5363960000000  0.4553710000000 1.0
C      1  0.5617230000000  0.5476510000000  0.4131830000000 1.0
C      1  0.4504300000000  0.5267610000000  0.4368170000000 1.0
C      1  0.5450730000000  0.3941770000000  0.5427840000000 1.0
C      1  0.4811040000000  0.5777930000000  0.4209410000000 1.0
C      1  0.4690490000000  0.5403610000000  0.4590080000000 1.0
C      1  0.4997080000000  0.4788630000000  0.3976570000000 1.0
C      1  0.5968380000000  0.5491720000000  0.5242080000000 1.0
C      1  0.5867320000000  0.5250450000000  0.4623410000000 1.0
C      1  0.5128610000000  0.4991560000000  0.5596230000000 1.0
C      1  0.4307190000000  0.5176450000000  0.4815340000000 1.0
C      1  0.5030030000000  0.4116750000000  0.4479870000000 1.0
C      1  0.4698140000000  0.4277490000000  0.5076760000000 1.0
C      1  0.4379740000000  0.5787440000000  0.5481960000000 1.0
C      1  0.5908550000000  0.5267290000000  0.5565760000000 1.0
C      1  0.5996260000000  0.4709740000000  0.5179070000000 1.0
C      1  0.4204020000000  0.4460530000000  0.4577410000000 1.0
C      1  0.3920120000000  0.5415850000000  0.5270690000000 1.0
C      1  0.5589940000000  0.4657930000000  0.4045630000000 1.0
C      1  0.4438880000000  0.4901910000000  0.4981930000000 1.0
C      1  0.4743160000000  0.4050360000000  0.5402740000000 1.0
C      1  0.5437920000000  0.5517310000000  0.5431510000000 1.0
C      1  0.5208060000000  0.5858470000000  0.4539300000000 1.0
C      1  0.5701780000000  0.4793450000000  0.4784580000000 1.0
C      1  0.5693830000000  0.5193120000000  0.3970830000000 1.0
C      1  0.4655490000000  0.5765430000000  0.5303430000000 1.0
C      1  0.4269190000000  0.5130150000000  0.4497930000000 1.0
C      1  0.5830190000000  0.4680620000000  0.5583810000000 1.0
C      1  0.5572930000000  0.5636240000000  0.4928340000000 1.0
C      1  0.5757500000000  0.4639700000000  0.5193590000000 1.0
C      1  0.4974470000000  0.4712370000000  0.5477970000000 1.0
C      1  0.5369450000000  0.5403910000000  0.5912940000000 1.0
C      1  0.4958230000000  0.5035580000000  0.4300890000000 1.0
C      1  0.5112210000000  0.4389510000000  0.5092260000000 1.0
C      1  0.6022660000000  0.4487290000000  0.4330470000000 1.0
C      1  0.4989730000000  0.4892410000000  0.4572900000000 1.0
C      1  0.5126310000000  0.4510940000000  0.4229860000000 1.0
C      1  0.5656080000000  0.5397440000000  0.5744100000000 1.0
C      1  0.5196130000000  0.5921370000000  0.5432370000000 1.0
C      1  0.4867110000000  0.6072790000000  0.4756150000000 1.0
C      1  0.5079350000000  0.4055580000000  0.4787460000000 1.0
C      1  0.5662830000000  0.4395860000000  0.4143330000000 1.0
C      1  0.5708880000000  0.5116720000000  0.4361840000000 1.0
C      1  0.5029720000000  0.5779810000000  0.5686200000000 1.0
C      1  0.5342220000000  0.5182560000000  0.4804950000000 1.0
C      1  0.3841350000000  0.4792120000000  0.5191360000000 1.0
C      1  0.5232090000000  0.3960260000000  0.5246040000000 1.0
C      1  0.5322030000000  0.4493840000000  0.5791540000000 1.0
C      1  0.5390780000000  0.4882960000000  0.5428290000000 1.0
C      1  0.4339130000000  0.4271550000000  0.4902620000000 1.0
C      1  0.4525920000000  0.4826500000000  0.5738940000000 1.0
C      1  0.3855950000000  0.5408660000000  0.5608680000000 1.0
C      1  0.5123390000000  0.4378920000000  0.4766680000000 1.0
C      1  0.4566110000000  0.5160100000000  0.5117220000000 1.0
C      1  0.4915950000000  0.4569060000000  0.4607590000000 1.0
C      1  0.5917980000000  0.5349320000000  0.4954840000000 1.0
C      1  0.4282380000000  0.4353460000000  0.5431240000000 1.0
C      1  0.4807760000000  0.4031070000000  0.4930340000000 1.0
C      1  0.4483120000000  0.4318090000000  0.5785150000000 1.0
C      1  0.5961310000000  0.4446230000000  0.5477550000000 1.0
C      1  0.5087440000000  0.5631420000000  0.5283030000000 1.0
C      1  0.5616180000000  0.5764670000000  0.4274830000000 1.0
C      1  0.5818470000000  0.5595540000000  0.5518130000000 1.0
C      1  0.3905040000000  0.5035700000000  0.5498020000000 1.0
C      1  0.4167420000000  0.4863380000000  0.4304730000000 1.0
C      1  0.3918050000000  0.4817510000000  0.5737760000000 1.0
C      1  0.5353030000000  0.4397640000000  0.5335600000000 1.0
C      1  0.4377630000000  0.5503070000000  0.5615900000000 1.0
C      1  0.3995960000000  0.4943830000000  0.4552310000000 1.0
C      1  0.5853200000000  0.4946330000000  0.5467830000000 1.0
C      1  0.4076000000000  0.5056290000000  0.5007380000000 1.0
C      1  0.4094740000000  0.4576490000000  0.5618510000000 1.0
C      1  0.4849630000000  0.5108660000000  0.6041110000000 1.0
C      1  0.5800130000000  0.4920420000000  0.4097170000000 1.0
C      1  0.4561130000000  0.4818820000000  0.4357350000000 1.0
C      1  0.4566420000000  0.4554930000000  0.4174700000000 1.0
C      1  0.4421770000000  0.5844010000000  0.4576370000000 1.0
C      1  0.4896380000000  0.5544280000000  0.5803440000000 1.0
C      1  0.4529220000000  0.4147840000000  0.5548530000000 1.0
C      1  0.4822500000000  0.4953240000000  0.5198460000000 1.0
C      1  0.4803040000000  0.4295240000000  0.4482640000000 1.0
C      1  0.4695590000000  0.5553590000000  0.4065180000000 1.0
C      1  0.4467640000000  0.4573560000000  0.4911020000000 1.0
C      1  0.5408920000000  0.5243260000000  0.5304470000000 1.0
C      1  0.3810440000000  0.5115890000000  0.5190600000000 1.0
C      1  0.5389910000000  0.4908700000000  0.4703680000000 1.0
C      1  0.5071950000000  0.4715510000000  0.5153020000000 1.0
C      1  0.5404460000000  0.5709620000000  0.5170290000000 1.0
C      1  0.4163480000000  0.5340800000000  0.5496140000000 1.0
C      1  0.4738600000000  0.4808040000000  0.6003970000000 1.0
C      1  0.4248590000000  0.5666320000000  0.4360870000000 1.0
C      1  0.4879840000000  0.5327030000000  0.4024260000000 1.0
C      1  0.4892940000000  0.5426000000000  0.6082940000000 1.0
END
