TITL C-2778426-5645-234 0.00383719083335048 125000 -569.311510606072 0 0 97 (C1) n - 1
REM
REM in /home/nfs/bkarasulu/CARBON/AIRSS/Generating-Clusters/REBO/Only-C1/SD-CG/HFTN-CG
REM
REM
REM
REM
REM
REM ./C.cell (11c1c37f851c82e70ff6c80c92926a4b)
REM
REM compiler GCC version 9.2.1 20190827 (Red Hat 9.2.1-1)
REM options -cpp -mtune=generic -march=x86-64 -g -O0 -fpre-include=/usr/include/finclude/math-vector-fortran.h
REM seed 1982448051 438972328 -1830154440 617177519 -1351984411 1700397649 1534679129 -891176393 -412449311 -1109428935 -1973957405 2056234084 -1733956119 -1262351224 -1099357479 1668734068 -1980745053 1445619468 -190102795 -1888487999 2006272001 1449378749 -1824384677 427798271 -483538452 -1309734953 924377577 702633685 1353083893 108046683 488292073 598202953 1350704321
REM
CELL 1.54180   50.00000   50.00000   50.00000   90.00000   90.00000   90.00000
LATT -1
SFAC C  
C      1  0.5876090000000  0.5311830000000  0.4827550000000 1.0
C      1  0.4273660000000  0.4965360000000  0.5080380000000 1.0
C      1  0.5346400000000  0.4825970000000  0.4547810000000 1.0
C      1  0.4339270000000  0.4968420000000  0.5568320000000 1.0
C      1  0.5103570000000  0.4427760000000  0.5582580000000 1.0
C      1  0.4378190000000  0.4764830000000  0.4673020000000 1.0
C      1  0.5427480000000  0.4408050000000  0.4760060000000 1.0
C      1  0.5076980000000  0.5758700000000  0.5414810000000 1.0
C      1  0.4356020000000  0.4527110000000  0.5101800000000 1.0
C      1  0.5010830000000  0.5030820000000  0.4478620000000 1.0
C      1  0.5112760000000  0.4030080000000  0.5052610000000 1.0
C      1  0.4761740000000  0.4212500000000  0.4532770000000 1.0
C      1  0.4692080000000  0.5632950000000  0.4726610000000 1.0
C      1  0.5128250000000  0.4906810000000  0.4763220000000 1.0
C      1  0.5877550000000  0.5061480000000  0.5452470000000 1.0
C      1  0.5166430000000  0.5088740000000  0.4985990000000 1.0
C      1  0.5823300000000  0.4778190000000  0.5038840000000 1.0
C      1  0.4559120000000  0.5367230000000  0.5369350000000 1.0
C      1  0.5128790000000  0.5071850000000  0.4159630000000 1.0
C      1  0.4800180000000  0.4866530000000  0.5775470000000 1.0
C      1  0.5891700000000  0.4810350000000  0.5352170000000 1.0
C      1  0.4908130000000  0.5623760000000  0.5677340000000 1.0
C      1  0.4599470000000  0.5016510000000  0.4995320000000 1.0
C      1  0.5125220000000  0.4497250000000  0.4278890000000 1.0
C      1  0.4724320000000  0.5074620000000  0.5301720000000 1.0
C      1  0.4704740000000  0.5624300000000  0.5441140000000 1.0
C      1  0.4688360000000  0.4755960000000  0.4793740000000 1.0
C      1  0.5597120000000  0.5574750000000  0.5145720000000 1.0
C      1  0.5070390000000  0.5575320000000  0.4372860000000 1.0
C      1  0.5009570000000  0.4668290000000  0.5153510000000 1.0
C      1  0.5326590000000  0.4458460000000  0.5326590000000 1.0
C      1  0.4319760000000  0.5718410000000  0.5106150000000 1.0
C      1  0.5127430000000  0.5833820000000  0.5094090000000 1.0
C      1  0.4578890000000  0.5428550000000  0.4273740000000 1.0
C      1  0.4856860000000  0.4548350000000  0.5395590000000 1.0
C      1  0.4976790000000  0.5316090000000  0.5704410000000 1.0
C      1  0.5206190000000  0.5124460000000  0.5835520000000 1.0
C      1  0.4447040000000  0.4272980000000  0.4608840000000 1.0
C      1  0.4353950000000  0.5039240000000  0.4561380000000 1.0
C      1  0.3993010000000  0.4816130000000  0.4969970000000 1.0
C      1  0.5253680000000  0.4349540000000  0.4485010000000 1.0
C      1  0.5156000000000  0.5602560000000  0.4897280000000 1.0
C      1  0.5311030000000  0.4779180000000  0.5209720000000 1.0
C      1  0.5718210000000  0.5276890000000  0.5376910000000 1.0
C      1  0.5391300000000  0.5388110000000  0.4842570000000 1.0
C      1  0.5092660000000  0.5417030000000  0.5394160000000 1.0
C      1  0.5771210000000  0.5603530000000  0.4923800000000 1.0
C      1  0.5039430000000  0.4951770000000  0.5337210000000 1.0
C      1  0.4957480000000  0.4157330000000  0.4868050000000 1.0
C      1  0.5515610000000  0.5242220000000  0.5105260000000 1.0
C      1  0.4692320000000  0.4787830000000  0.5487710000000 1.0
C      1  0.4726450000000  0.5334470000000  0.4989800000000 1.0
C      1  0.5344870000000  0.5524100000000  0.5590610000000 1.0
C      1  0.5465890000000  0.4735530000000  0.5579010000000 1.0
C      1  0.4836580000000  0.5234940000000  0.4094510000000 1.0
C      1  0.5602230000000  0.4685900000000  0.4707340000000 1.0
C      1  0.5048400000000  0.5338160000000  0.5084900000000 1.0
C      1  0.4762840000000  0.4952980000000  0.4259350000000 1.0
C      1  0.5090770000000  0.4401810000000  0.4764040000000 1.0
C      1  0.4968900000000  0.4663260000000  0.4860120000000 1.0
C      1  0.5267050000000  0.5308410000000  0.4343310000000 1.0
C      1  0.4860650000000  0.5543430000000  0.4181750000000 1.0
C      1  0.4499060000000  0.5185740000000  0.5612670000000 1.0
C      1  0.5757990000000  0.5029120000000  0.4840110000000 1.0
C      1  0.5623060000000  0.4990510000000  0.4553190000000 1.0
C      1  0.5072340000000  0.4834410000000  0.5859480000000 1.0
C      1  0.4997150000000  0.5665140000000  0.4639310000000 1.0
C      1  0.4623590000000  0.5158060000000  0.4450900000000 1.0
C      1  0.4685200000000  0.4281230000000  0.5335960000000 1.0
C      1  0.5171750000000  0.4162030000000  0.5295360000000 1.0
C      1  0.4927810000000  0.4165850000000  0.5479010000000 1.0
C      1  0.5222890000000  0.4769070000000  0.4270340000000 1.0
C      1  0.4460890000000  0.5505260000000  0.4560140000000 1.0
C      1  0.4728320000000  0.5144710000000  0.5763130000000 1.0
C      1  0.4318280000000  0.5295170000000  0.4700940000000 1.0
C      1  0.4582780000000  0.4565540000000  0.4528940000000 1.0
C      1  0.4629280000000  0.5660260000000  0.5028830000000 1.0
C      1  0.4525240000000  0.4302080000000  0.5112180000000 1.0
C      1  0.4687390000000  0.4700500000000  0.4168700000000 1.0
C      1  0.5614220000000  0.4522030000000  0.5006890000000 1.0
C      1  0.5340020000000  0.5410740000000  0.5841030000000 1.0
C      1  0.4203030000000  0.4628990000000  0.4879220000000 1.0
C      1  0.5238470000000  0.4634210000000  0.5750500000000 1.0
C      1  0.4826120000000  0.4456840000000  0.4315290000000 1.0
C      1  0.5590410000000  0.5551040000000  0.5454140000000 1.0
C      1  0.4814400000000  0.5829840000000  0.5207440000000 1.0
C      1  0.4395850000000  0.4766080000000  0.5321770000000 1.0
C      1  0.5648440000000  0.5476890000000  0.4638510000000 1.0
C      1  0.4805500000000  0.5315760000000  0.4665630000000 1.0
C      1  0.5561110000000  0.5266180000000  0.4427930000000 1.0
C      1  0.5638830000000  0.4593210000000  0.5339490000000 1.0
C      1  0.5522100000000  0.4929400000000  0.5073230000000 1.0
C      1  0.5134880000000  0.5292260000000  0.4646030000000 1.0
C      1  0.5282640000000  0.4978610000000  0.5553010000000 1.0
C      1  0.4333870000000  0.5437840000000  0.5179330000000 1.0
C      1  0.4638750000000  0.4176230000000  0.4858710000000 1.0
C      1  0.4280540000000  0.5257390000000  0.4979580000000 1.0
END
