TITL C-2778423-5760-1330 -0.000181014329182331 125000 -698.039865276896 0 0 122 (C1) n - 1
REM
REM in /home/nfs/bkarasulu/CARBON/AIRSS/Generating-Clusters/REBO/Only-C1/SD-CG/HFTN-CG
REM
REM
REM
REM
REM
REM ./C.cell (11c1c37f851c82e70ff6c80c92926a4b)
REM
REM compiler GCC version 9.2.1 20190827 (Red Hat 9.2.1-1)
REM options -cpp -mtune=generic -march=x86-64 -g -O0 -fpre-include=/usr/include/finclude/math-vector-fortran.h
REM seed -1332559497 790296214 599761959 1293303925 1939782199 825521245 -1134156860 399127708 -2001067380 1432644610 -50344300 270842807 -1920369511 -968054953 1783244379 -1898332942 385531059 878467121 1702748734 -515325566 503344164 -966898472 -2129984104 -4484592 -175789071 -647623956 -642126251 1013746398 306039179 137937959 405168781 1604959401 2052804221
REM
CELL 1.54180   50.00000   50.00000   50.00000   90.00000   90.00000   90.00000
LATT -1
SFAC C  
C      1  0.5181130000000  0.4693940000000  0.4460450000000 1.0
C      1  0.5267210000000  0.4320750000000  0.5444130000000 1.0
C      1  0.4383880000000  0.4598420000000  0.5443130000000 1.0
C      1  0.5163670000000  0.5280010000000  0.4196760000000 1.0
C      1  0.4936150000000  0.4311810000000  0.4128240000000 1.0
C      1  0.5926420000000  0.4541630000000  0.5200400000000 1.0
C      1  0.5367130000000  0.4234780000000  0.4668800000000 1.0
C      1  0.5881610000000  0.4815890000000  0.5022920000000 1.0
C      1  0.4646950000000  0.5595380000000  0.4562410000000 1.0
C      1  0.5504890000000  0.5549940000000  0.5265140000000 1.0
C      1  0.5019490000000  0.5431860000000  0.5857600000000 1.0
C      1  0.4129380000000  0.4759100000000  0.4362970000000 1.0
C      1  0.4242440000000  0.4270370000000  0.5085080000000 1.0
C      1  0.4602380000000  0.5939180000000  0.5161990000000 1.0
C      1  0.5077620000000  0.4586500000000  0.5902980000000 1.0
C      1  0.5204560000000  0.4811800000000  0.5210410000000 1.0
C      1  0.4701430000000  0.5316620000000  0.4751020000000 1.0
C      1  0.4719870000000  0.4279090000000  0.5216760000000 1.0
C      1  0.4898420000000  0.4323480000000  0.4766650000000 1.0
C      1  0.5097050000000  0.5806790000000  0.5208880000000 1.0
C      1  0.4215020000000  0.4821570000000  0.5427740000000 1.0
C      1  0.4412140000000  0.4230440000000  0.5297570000000 1.0
C      1  0.5079470000000  0.4125890000000  0.4680400000000 1.0
C      1  0.4540340000000  0.5287740000000  0.5695230000000 1.0
C      1  0.4482930000000  0.4975490000000  0.4807580000000 1.0
C      1  0.5069580000000  0.5306910000000  0.5393790000000 1.0
C      1  0.5699390000000  0.4340140000000  0.5186410000000 1.0
C      1  0.4481570000000  0.4252850000000  0.3967520000000 1.0
C      1  0.5120860000000  0.6004410000000  0.4959030000000 1.0
C      1  0.5585360000000  0.4958180000000  0.5113820000000 1.0
C      1  0.5638300000000  0.4445240000000  0.4669250000000 1.0
C      1  0.5143990000000  0.5606400000000  0.4934720000000 1.0
C      1  0.4152750000000  0.4901320000000  0.5158720000000 1.0
C      1  0.4394420000000  0.5616550000000  0.5438080000000 1.0
C      1  0.5876120000000  0.5210790000000  0.5222150000000 1.0
C      1  0.4571100000000  0.5023860000000  0.4480350000000 1.0
C      1  0.4260410000000  0.5629230000000  0.4876680000000 1.0
C      1  0.5156490000000  0.5008160000000  0.4335570000000 1.0
C      1  0.5295100000000  0.5720720000000  0.5415120000000 1.0
C      1  0.5527570000000  0.4440280000000  0.4970390000000 1.0
C      1  0.5246260000000  0.4838150000000  0.4735280000000 1.0
C      1  0.5394390000000  0.4608830000000  0.5408250000000 1.0
C      1  0.5240130000000  0.4349300000000  0.4968910000000 1.0
C      1  0.5520250000000  0.4747490000000  0.4869310000000 1.0
C      1  0.5730240000000  0.4349810000000  0.5670620000000 1.0
C      1  0.5398160000000  0.5317670000000  0.5485570000000 1.0
C      1  0.4741430000000  0.5524790000000  0.5781100000000 1.0
C      1  0.5164990000000  0.5136420000000  0.5116630000000 1.0
C      1  0.5001860000000  0.5736100000000  0.4681670000000 1.0
C      1  0.4879130000000  0.4021290000000  0.5083920000000 1.0
C      1  0.4516180000000  0.5238440000000  0.5015130000000 1.0
C      1  0.4661730000000  0.4358940000000  0.4149320000000 1.0
C      1  0.4266830000000  0.4456680000000  0.4801490000000 1.0
C      1  0.4772480000000  0.4924240000000  0.5434930000000 1.0
C      1  0.4525650000000  0.4968480000000  0.5794440000000 1.0
C      1  0.4936000000000  0.4382290000000  0.5434250000000 1.0
C      1  0.4140040000000  0.5318760000000  0.4839160000000 1.0
C      1  0.4975480000000  0.5165370000000  0.4839060000000 1.0
C      1  0.5790930000000  0.4838950000000  0.4695310000000 1.0
C      1  0.5207740000000  0.5609680000000  0.4293900000000 1.0
C      1  0.5417690000000  0.5003200000000  0.5395790000000 1.0
C      1  0.4924390000000  0.5453490000000  0.5146180000000 1.0
C      1  0.4572860000000  0.5319720000000  0.4373630000000 1.0
C      1  0.4910560000000  0.4695560000000  0.4295410000000 1.0
C      1  0.5653830000000  0.5587980000000  0.4991020000000 1.0
C      1  0.5729860000000  0.4622010000000  0.5467270000000 1.0
C      1  0.5475810000000  0.5571420000000  0.4499130000000 1.0
C      1  0.4116410000000  0.5352560000000  0.5336500000000 1.0
C      1  0.4908250000000  0.5009090000000  0.4542750000000 1.0
C      1  0.5694980000000  0.5337250000000  0.4419490000000 1.0
C      1  0.4759690000000  0.4822130000000  0.4764410000000 1.0
C      1  0.5578350000000  0.4255150000000  0.5431050000000 1.0
C      1  0.4537220000000  0.4540600000000  0.5079940000000 1.0
C      1  0.5465370000000  0.4909460000000  0.4281980000000 1.0
C      1  0.5227650000000  0.5628340000000  0.5670970000000 1.0
C      1  0.4087760000000  0.5173270000000  0.5092950000000 1.0
C      1  0.4868130000000  0.5400710000000  0.4293700000000 1.0
C      1  0.4557260000000  0.4527220000000  0.4371980000000 1.0
C      1  0.4560050000000  0.4372460000000  0.5569640000000 1.0
C      1  0.5448000000000  0.4820700000000  0.5669440000000 1.0
C      1  0.5824600000000  0.5336750000000  0.4978850000000 1.0
C      1  0.4265060000000  0.5003240000000  0.5644180000000 1.0
C      1  0.4646590000000  0.5663630000000  0.5537470000000 1.0
C      1  0.5895300000000  0.4898840000000  0.5356340000000 1.0
C      1  0.5545960000000  0.5265550000000  0.4783410000000 1.0
C      1  0.4808650000000  0.4843540000000  0.5760460000000 1.0
C      1  0.5785140000000  0.5134150000000  0.4611520000000 1.0
C      1  0.5085940000000  0.5425980000000  0.4560070000000 1.0
C      1  0.5580840000000  0.4698140000000  0.4466630000000 1.0
C      1  0.5730330000000  0.5234240000000  0.5493050000000 1.0
C      1  0.5213660000000  0.4828950000000  0.5859150000000 1.0
C      1  0.5449970000000  0.5261420000000  0.5093120000000 1.0
C      1  0.4216920000000  0.5291940000000  0.5589020000000 1.0
C      1  0.4852270000000  0.5197060000000  0.5583160000000 1.0
C      1  0.5109220000000  0.4201790000000  0.5189540000000 1.0
C      1  0.4773520000000  0.5146020000000  0.5180800000000 1.0
C      1  0.5267210000000  0.5173960000000  0.4682230000000 1.0
C      1  0.4351290000000  0.5469790000000  0.5140950000000 1.0
C      1  0.4827340000000  0.4508080000000  0.5706170000000 1.0
C      1  0.5027840000000  0.5090010000000  0.5852590000000 1.0
C      1  0.4694860000000  0.4658600000000  0.5329320000000 1.0
C      1  0.5732570000000  0.4968250000000  0.5647800000000 1.0
C      1  0.4423580000000  0.4814270000000  0.4320230000000 1.0
C      1  0.4875110000000  0.6003390000000  0.4791800000000 1.0
C      1  0.5601730000000  0.5004940000000  0.4076330000000 1.0
C      1  0.4321150000000  0.4755330000000  0.4955060000000 1.0
C      1  0.4579180000000  0.4323160000000  0.4845610000000 1.0
C      1  0.5349830000000  0.5362870000000  0.5812660000000 1.0
C      1  0.5358590000000  0.4439030000000  0.4411630000000 1.0
C      1  0.4463210000000  0.5768890000000  0.4736200000000 1.0
C      1  0.5354740000000  0.5965680000000  0.4820990000000 1.0
C      1  0.5444800000000  0.5661090000000  0.4782370000000 1.0
C      1  0.4805120000000  0.5737490000000  0.5294870000000 1.0
C      1  0.4897510000000  0.4845360000000  0.5065750000000 1.0
C      1  0.4609760000000  0.5967080000000  0.4880760000000 1.0
C      1  0.5200840000000  0.4310040000000  0.4177610000000 1.0
C      1  0.4372310000000  0.5321700000000  0.4649300000000 1.0
C      1  0.5061030000000  0.4599240000000  0.4892950000000 1.0
C      1  0.4710790000000  0.4549710000000  0.4635660000000 1.0
C      1  0.4898910000000  0.5723880000000  0.4372740000000 1.0
C      1  0.5484580000000  0.5368630000000  0.4193030000000 1.0
C      1  0.4243570000000  0.4510750000000  0.4500310000000 1.0
END
