TITL C-2778433-5640-1234 -0.00405595673325086 125000 -1125.48032773764 0 0 195 (C1) n - 1
REM
REM in /home/nfs/bkarasulu/CARBON/AIRSS/Generating-Clusters/REBO/Only-C1/SD-CG/HFTN-CG
REM
REM
REM
REM
REM
REM ./C.cell (11c1c37f851c82e70ff6c80c92926a4b)
REM
REM compiler GCC version 9.2.1 20190827 (Red Hat 9.2.1-1)
REM options -cpp -mtune=generic -march=x86-64 -g -O0 -fpre-include=/usr/include/finclude/math-vector-fortran.h
REM seed -1850370381 1811523430 48340856 1925061897 -2123970258 255398568 1319125147 -98824378 1798752584 -720963437 1676957152 148739963 441433949 139145479 -1532512862 1575247481 -2054711234 -618369921 -2120725778 -990311508 854611974 1383304236 1870002501 -1455910982 -1613445812 776893942 1703405833 2038201918 -795732976 -382185854 -1423693795 -1523609552 -479675312
REM
CELL 1.54180   50.00000   50.00000   50.00000   90.00000   90.00000   90.00000
LATT -1
SFAC C  
C      1  0.5175410000000  0.3973730000000  0.4516520000000 1.0
C      1  0.4614730000000  0.4295500000000  0.5807730000000 1.0
C      1  0.4272520000000  0.4073520000000  0.5039900000000 1.0
C      1  0.5273320000000  0.4810640000000  0.4946700000000 1.0
C      1  0.5034480000000  0.5776660000000  0.4288080000000 1.0
C      1  0.4159220000000  0.4269580000000  0.5227720000000 1.0
C      1  0.4529930000000  0.5391480000000  0.4173530000000 1.0
C      1  0.5827120000000  0.4544450000000  0.5915340000000 1.0
C      1  0.4280820000000  0.5094950000000  0.4481060000000 1.0
C      1  0.4006090000000  0.5364890000000  0.4644370000000 1.0
C      1  0.4767640000000  0.4223670000000  0.4702780000000 1.0
C      1  0.4676050000000  0.3916750000000  0.4794890000000 1.0
C      1  0.5022260000000  0.4399090000000  0.4106530000000 1.0
C      1  0.4065500000000  0.4567830000000  0.5088960000000 1.0
C      1  0.5586600000000  0.4428840000000  0.5009420000000 1.0
C      1  0.5235290000000  0.5928840000000  0.4058550000000 1.0
C      1  0.5544820000000  0.5765640000000  0.4585680000000 1.0
C      1  0.5134830000000  0.5053320000000  0.4165780000000 1.0
C      1  0.5353190000000  0.5211280000000  0.5251500000000 1.0
C      1  0.4255830000000  0.5007150000000  0.4048890000000 1.0
C      1  0.5601880000000  0.4236890000000  0.5499720000000 1.0
C      1  0.5671910000000  0.4823040000000  0.6037210000000 1.0
C      1  0.4538320000000  0.6073450000000  0.4788980000000 1.0
C      1  0.4912970000000  0.4993530000000  0.5281590000000 1.0
C      1  0.4919120000000  0.5577570000000  0.4647600000000 1.0
C      1  0.5234180000000  0.5176200000000  0.4596410000000 1.0
C      1  0.5397360000000  0.5848400000000  0.5444200000000 1.0
C      1  0.4506230000000  0.4408790000000  0.4823250000000 1.0
C      1  0.4425400000000  0.4688720000000  0.4217880000000 1.0
C      1  0.4254320000000  0.5810590000000  0.5155980000000 1.0
C      1  0.5783570000000  0.5765600000000  0.4985240000000 1.0
C      1  0.5402260000000  0.5862160000000  0.4823700000000 1.0
C      1  0.4058690000000  0.4877730000000  0.5724730000000 1.0
C      1  0.5185360000000  0.5629610000000  0.4940500000000 1.0
C      1  0.5526580000000  0.5945050000000  0.5130880000000 1.0
C      1  0.4635620000000  0.4715200000000  0.4041770000000 1.0
C      1  0.4204910000000  0.5103350000000  0.5563130000000 1.0
C      1  0.4506290000000  0.4568760000000  0.5677360000000 1.0
C      1  0.4747590000000  0.4806950000000  0.5712420000000 1.0
C      1  0.4793100000000  0.4550710000000  0.4927020000000 1.0
C      1  0.5786830000000  0.4889500000000  0.4169500000000 1.0
C      1  0.4462370000000  0.5877120000000  0.5416700000000 1.0
C      1  0.4531260000000  0.3926650000000  0.5077580000000 1.0
C      1  0.5112690000000  0.5425670000000  0.4476130000000 1.0
C      1  0.3930330000000  0.4866390000000  0.5144780000000 1.0
C      1  0.4360740000000  0.4831340000000  0.5810680000000 1.0
C      1  0.3851890000000  0.4439680000000  0.4630030000000 1.0
C      1  0.5403160000000  0.5032870000000  0.6056080000000 1.0
C      1  0.6092330000000  0.4889950000000  0.5569150000000 1.0
C      1  0.5182290000000  0.4854210000000  0.4648660000000 1.0
C      1  0.5253250000000  0.4374530000000  0.5774590000000 1.0
C      1  0.4597700000000  0.4730950000000  0.5222940000000 1.0
C      1  0.6039640000000  0.4725530000000  0.4949980000000 1.0
C      1  0.5724450000000  0.5582830000000  0.4361160000000 1.0
C      1  0.5649700000000  0.4551320000000  0.4494900000000 1.0
C      1  0.5961900000000  0.5541840000000  0.5172560000000 1.0
C      1  0.5225420000000  0.5336240000000  0.5609630000000 1.0
C      1  0.5241850000000  0.4939890000000  0.5236940000000 1.0
C      1  0.4249890000000  0.4421320000000  0.4607920000000 1.0
C      1  0.4579380000000  0.5269470000000  0.5143240000000 1.0
C      1  0.4646300000000  0.5311020000000  0.6082640000000 1.0
C      1  0.4538510000000  0.5000430000000  0.6046710000000 1.0
C      1  0.3957620000000  0.5387200000000  0.4973020000000 1.0
C      1  0.5753700000000  0.5195640000000  0.4316290000000 1.0
C      1  0.5876940000000  0.4836160000000  0.5762330000000 1.0
C      1  0.5246460000000  0.5031920000000  0.5692320000000 1.0
C      1  0.5301340000000  0.4306450000000  0.5016610000000 1.0
C      1  0.4605450000000  0.5137850000000  0.4523130000000 1.0
C      1  0.4698000000000  0.6069000000000  0.5290660000000 1.0
C      1  0.4555740000000  0.4664560000000  0.4524770000000 1.0
C      1  0.4625050000000  0.5427540000000  0.4625830000000 1.0
C      1  0.5977750000000  0.4901930000000  0.4453180000000 1.0
C      1  0.4808510000000  0.5059300000000  0.3823630000000 1.0
C      1  0.4793380000000  0.4570600000000  0.6171660000000 1.0
C      1  0.4947690000000  0.5455570000000  0.5564480000000 1.0
C      1  0.4510920000000  0.4890600000000  0.4728230000000 1.0
C      1  0.5009380000000  0.3978700000000  0.5324600000000 1.0
C      1  0.4176090000000  0.4924210000000  0.4758160000000 1.0
C      1  0.6060400000000  0.5167380000000  0.4651880000000 1.0
C      1  0.4484210000000  0.5458830000000  0.4900560000000 1.0
C      1  0.5539800000000  0.5647790000000  0.5891790000000 1.0
C      1  0.5464700000000  0.4485450000000  0.5989330000000 1.0
C      1  0.4917450000000  0.4398000000000  0.5568390000000 1.0
C      1  0.5379620000000  0.3880860000000  0.5210680000000 1.0
C      1  0.4695220000000  0.5016680000000  0.5482220000000 1.0
C      1  0.4075490000000  0.4916560000000  0.4315480000000 1.0
C      1  0.5151820000000  0.5569760000000  0.5920950000000 1.0
C      1  0.5047560000000  0.6124310000000  0.4983630000000 1.0
C      1  0.6069840000000  0.5456190000000  0.4636120000000 1.0
C      1  0.6091490000000  0.5152960000000  0.5467780000000 1.0
C      1  0.5526820000000  0.4602850000000  0.5362480000000 1.0
C      1  0.5580060000000  0.5237670000000  0.5463760000000 1.0
C      1  0.5353330000000  0.4944340000000  0.3872480000000 1.0
C      1  0.5439010000000  0.5447980000000  0.4801960000000 1.0
C      1  0.4243150000000  0.5598630000000  0.4566410000000 1.0
C      1  0.5331070000000  0.5629530000000  0.4367130000000 1.0
C      1  0.4785590000000  0.4248240000000  0.5084030000000 1.0
C      1  0.5232670000000  0.5806500000000  0.5690620000000 1.0
C      1  0.5560890000000  0.4763330000000  0.5074150000000 1.0
C      1  0.4611320000000  0.4973730000000  0.5020560000000 1.0
C      1  0.4486670000000  0.4097980000000  0.4572250000000 1.0
C      1  0.4011300000000  0.5594910000000  0.5233780000000 1.0
C      1  0.4486710000000  0.6037040000000  0.5059280000000 1.0
C      1  0.4454950000000  0.5160820000000  0.5766340000000 1.0
C      1  0.5069850000000  0.4109140000000  0.5665760000000 1.0
C      1  0.5163150000000  0.6044630000000  0.4720810000000 1.0
C      1  0.4891520000000  0.4775870000000  0.4761400000000 1.0
C      1  0.5248180000000  0.6123580000000  0.5218930000000 1.0
C      1  0.4557510000000  0.5114650000000  0.4013870000000 1.0
C      1  0.5045900000000  0.5015060000000  0.3778510000000 1.0
C      1  0.5649660000000  0.4326590000000  0.5760130000000 1.0
C      1  0.4544860000000  0.5699660000000  0.4441180000000 1.0
C      1  0.5862080000000  0.5673430000000  0.4666140000000 1.0
C      1  0.4282200000000  0.5025830000000  0.5042160000000 1.0
C      1  0.4179490000000  0.4605300000000  0.4406670000000 1.0
C      1  0.4758140000000  0.5078080000000  0.4270860000000 1.0
C      1  0.5514240000000  0.5512760000000  0.5649590000000 1.0
C      1  0.5335670000000  0.4123610000000  0.5370580000000 1.0
C      1  0.4678610000000  0.4286720000000  0.5373080000000 1.0
C      1  0.4928760000000  0.5846160000000  0.4972870000000 1.0
C      1  0.4880800000000  0.4600680000000  0.5232310000000 1.0
C      1  0.4214500000000  0.5596170000000  0.4894660000000 1.0
C      1  0.4972980000000  0.4995630000000  0.5891620000000 1.0
C      1  0.5287880000000  0.4752610000000  0.5898350000000 1.0
C      1  0.5208190000000  0.4248140000000  0.4315300000000 1.0
C      1  0.3778660000000  0.4937690000000  0.4723490000000 1.0
C      1  0.4794280000000  0.5553410000000  0.4964370000000 1.0
C      1  0.5517310000000  0.5167100000000  0.4072300000000 1.0
C      1  0.5236050000000  0.4717310000000  0.4369880000000 1.0
C      1  0.5428780000000  0.4477170000000  0.4294850000000 1.0
C      1  0.5740310000000  0.5276310000000  0.5184840000000 1.0
C      1  0.5260690000000  0.5647350000000  0.3974740000000 1.0
C      1  0.6137010000000  0.5251030000000  0.5195730000000 1.0
C      1  0.4747530000000  0.5629880000000  0.4176560000000 1.0
C      1  0.3918730000000  0.5478720000000  0.5714690000000 1.0
C      1  0.5006480000000  0.5514890000000  0.3988970000000 1.0
C      1  0.3889830000000  0.5106630000000  0.4532570000000 1.0
C      1  0.4992630000000  0.4348120000000  0.4558340000000 1.0
C      1  0.4058210000000  0.5385380000000  0.5491870000000 1.0
C      1  0.5638970000000  0.4869380000000  0.4534270000000 1.0
C      1  0.5096900000000  0.4741800000000  0.5428540000000 1.0
C      1  0.5128280000000  0.5455070000000  0.5208780000000 1.0
C      1  0.5463940000000  0.4103480000000  0.4582260000000 1.0
C      1  0.5781900000000  0.4410120000000  0.5272490000000 1.0
C      1  0.4257440000000  0.5311200000000  0.5226040000000 1.0
C      1  0.5108820000000  0.4363370000000  0.5288860000000 1.0
C      1  0.5253520000000  0.5206790000000  0.4924690000000 1.0
C      1  0.5391820000000  0.5604910000000  0.5280510000000 1.0
C      1  0.5172180000000  0.5242810000000  0.6022090000000 1.0
C      1  0.4224100000000  0.4135380000000  0.4757170000000 1.0
C      1  0.5001690000000  0.4611760000000  0.5791120000000 1.0
C      1  0.5514530000000  0.4728510000000  0.4080240000000 1.0
C      1  0.4401490000000  0.4967640000000  0.5359410000000 1.0
C      1  0.4758340000000  0.4356150000000  0.4167270000000 1.0
C      1  0.6033280000000  0.4571470000000  0.5195520000000 1.0
C      1  0.6070050000000  0.5048090000000  0.4964030000000 1.0
C      1  0.5325550000000  0.4586780000000  0.5537020000000 1.0
C      1  0.4930010000000  0.5745580000000  0.5643680000000 1.0
C      1  0.4716140000000  0.4333890000000  0.6059160000000 1.0
C      1  0.4697100000000  0.3894590000000  0.5308730000000 1.0
C      1  0.5190100000000  0.4661100000000  0.3979880000000 1.0
C      1  0.5937800000000  0.4640890000000  0.4667720000000 1.0
C      1  0.4650830000000  0.5954670000000  0.4577680000000 1.0
C      1  0.5574150000000  0.4991590000000  0.5756580000000 1.0
C      1  0.4886570000000  0.5417690000000  0.6033440000000 1.0
C      1  0.4983320000000  0.5310770000000  0.4223650000000 1.0
C      1  0.6180710000000  0.4676100000000  0.5411480000000 1.0
C      1  0.3892740000000  0.5102700000000  0.5087690000000 1.0
C      1  0.5737280000000  0.4384430000000  0.4755240000000 1.0
C      1  0.4673310000000  0.5851960000000  0.5625390000000 1.0
C      1  0.4868720000000  0.4617260000000  0.4482850000000 1.0
C      1  0.5635020000000  0.5352060000000  0.4596080000000 1.0
C      1  0.5884310000000  0.5306310000000  0.5591590000000 1.0
C      1  0.4327780000000  0.5376040000000  0.4363410000000 1.0
C      1  0.4830760000000  0.5400240000000  0.5264080000000 1.0
C      1  0.4954250000000  0.5896590000000  0.4564100000000 1.0
C      1  0.5737030000000  0.5002280000000  0.5026120000000 1.0
C      1  0.5751620000000  0.5081780000000  0.4725580000000 1.0
C      1  0.4983630000000  0.5024140000000  0.4949710000000 1.0
C      1  0.4404520000000  0.4430210000000  0.5400950000000 1.0
C      1  0.4396390000000  0.4545940000000  0.5079760000000 1.0
C      1  0.4934730000000  0.4779560000000  0.4191400000000 1.0
C      1  0.5509910000000  0.5488270000000  0.4114790000000 1.0
C      1  0.5281690000000  0.4308440000000  0.4703480000000 1.0
C      1  0.5786590000000  0.5576740000000  0.5454000000000 1.0
C      1  0.5057960000000  0.4080020000000  0.5014160000000 1.0
C      1  0.3955060000000  0.4673440000000  0.4796680000000 1.0
C      1  0.4738550000000  0.4048080000000  0.5610040000000 1.0
C      1  0.4581630000000  0.4358520000000  0.4377620000000 1.0
C      1  0.4792390000000  0.4830920000000  0.6108110000000 1.0
C      1  0.5406380000000  0.5005620000000  0.4356250000000 1.0
C      1  0.5581050000000  0.5530090000000  0.5064760000000 1.0
C      1  0.4966830000000  0.6121250000000  0.5373100000000 1.0
C      1  0.4698760000000  0.5293010000000  0.5627800000000 1.0
C      1  0.5012470000000  0.3912800000000  0.4746060000000 1.0
END
