TITL C-2778435-5768-1075 6.19110231603589e-05 125000 -108.111785790414 0 0 20 (C1) n - 1
REM
REM in /home/nfs/bkarasulu/CARBON/AIRSS/Generating-Clusters/REBO/Only-C1/SD-CG/HFTN-CG
REM
REM
REM
REM
REM
REM ./C.cell (11c1c37f851c82e70ff6c80c92926a4b)
REM
REM compiler GCC version 9.2.1 20190827 (Red Hat 9.2.1-1)
REM options -cpp -mtune=generic -march=x86-64 -g -O0 -fpre-include=/usr/include/finclude/math-vector-fortran.h
REM seed 424992792 1969227682 -330211139 -70536399 -1075900369 -1423917387 439213559 -1966207125 953558589 -1296776129 203268136 -1154937069 132246693 -1492502533 1540955632 1421665579 1463514138 1970105333 1602968387 1283579522 1373626240 -1750255503 1078449901 -1028655028 -1383396067 779633601 1507593703 -1960751255 -1158585199 -704442500 -850804119 -242384721 118621641
REM
CELL 1.54180   50.00000   50.00000   50.00000   90.00000   90.00000   90.00000
LATT -1
SFAC C  
C      1  0.4697850000000  0.4811980000000  0.5100360000000 1.0
C      1  0.5418880000000  0.4917160000000  0.5615050000000 1.0
C      1  0.4986920000000  0.5158900000000  0.4237810000000 1.0
C      1  0.5365950000000  0.4694620000000  0.5088860000000 1.0
C      1  0.4454610000000  0.4700890000000  0.5170370000000 1.0
C      1  0.5410410000000  0.4850110000000  0.5308130000000 1.0
C      1  0.4850180000000  0.5315950000000  0.4409490000000 1.0
C      1  0.5170940000000  0.4632320000000  0.4895710000000 1.0
C      1  0.5429930000000  0.5381960000000  0.5360280000000 1.0
C      1  0.5229780000000  0.4616630000000  0.4621620000000 1.0
C      1  0.4728230000000  0.5283470000000  0.4915660000000 1.0
C      1  0.4695370000000  0.5228310000000  0.5461100000000 1.0
C      1  0.5284990000000  0.5148220000000  0.5402940000000 1.0
C      1  0.4519740000000  0.5316780000000  0.5643910000000 1.0
C      1  0.5217130000000  0.4723540000000  0.4374640000000 1.0
C      1  0.4750510000000  0.5101270000000  0.5157700000000 1.0
C      1  0.5128060000000  0.4928790000000  0.4223520000000 1.0
C      1  0.4903650000000  0.4669930000000  0.4976610000000 1.0
C      1  0.4995170000000  0.5167060000000  0.5375370000000 1.0
C      1  0.4761720000000  0.5352120000000  0.4660860000000 1.0
END
