TITL C-2778433-5640-14 0.000580632211985906 125000 -195.804411921061 0 0 35 (C1) n - 1
REM
REM in /home/nfs/bkarasulu/CARBON/AIRSS/Generating-Clusters/REBO/Only-C1/SD-CG/HFTN-CG
REM
REM
REM
REM
REM
REM ./C.cell (11c1c37f851c82e70ff6c80c92926a4b)
REM
REM compiler GCC version 9.2.1 20190827 (Red Hat 9.2.1-1)
REM options -cpp -mtune=generic -march=x86-64 -g -O0 -fpre-include=/usr/include/finclude/math-vector-fortran.h
REM seed 2024534897 1253489722 1060032900 238449466 1895102305 -1174526776 910933711 1568851484 1487330486 -1930903907 812366187 -374201648 -1057901698 1615600959 963224560 -39533434 1688316434 1963957250 -2031453594 1012013014 616888795 -101631860 -1334190917 1125209590 -1286452847 293669900 116566822 -210068114 -52666077 1443112864 -1881738270 327752240 -1820523363
REM
CELL 1.54180   50.00000   50.00000   50.00000   90.00000   90.00000   90.00000
LATT -1
SFAC C  
C      1  0.4898150000000  0.4966390000000  0.5546210000000 1.0
C      1  0.5305790000000  0.5259590000000  0.5036990000000 1.0
C      1  0.5553530000000  0.4917790000000  0.4768920000000 1.0
C      1  0.4791100000000  0.5230360000000  0.5556080000000 1.0
C      1  0.4653360000000  0.5297400000000  0.5299570000000 1.0
C      1  0.4750330000000  0.4783010000000  0.4671000000000 1.0
C      1  0.5353790000000  0.4852660000000  0.4601400000000 1.0
C      1  0.4924490000000  0.4446700000000  0.4543960000000 1.0
C      1  0.5269580000000  0.5615480000000  0.5474340000000 1.0
C      1  0.4476350000000  0.5444810000000  0.4806300000000 1.0
C      1  0.4750830000000  0.5507100000000  0.4851110000000 1.0
C      1  0.5182550000000  0.4427400000000  0.5120890000000 1.0
C      1  0.4370520000000  0.5216310000000  0.4922810000000 1.0
C      1  0.4675640000000  0.4652210000000  0.4957630000000 1.0
C      1  0.4508020000000  0.5101360000000  0.5144430000000 1.0
C      1  0.5168730000000  0.5464020000000  0.5201440000000 1.0
C      1  0.5275670000000  0.4967200000000  0.5181440000000 1.0
C      1  0.5272180000000  0.4269740000000  0.5330790000000 1.0
C      1  0.5134090000000  0.5083560000000  0.4522810000000 1.0
C      1  0.5317920000000  0.4731600000000  0.5057680000000 1.0
C      1  0.5814400000000  0.5175290000000  0.5113020000000 1.0
C      1  0.5391850000000  0.4498470000000  0.4861010000000 1.0
C      1  0.5585340000000  0.5110480000000  0.4974580000000 1.0
C      1  0.5160920000000  0.4957660000000  0.5438990000000 1.0
C      1  0.4769140000000  0.4388770000000  0.4760580000000 1.0
C      1  0.4637100000000  0.4999750000000  0.4543790000000 1.0
C      1  0.4957710000000  0.5486880000000  0.5474270000000 1.0
C      1  0.4894550000000  0.4412790000000  0.5052030000000 1.0
C      1  0.4826700000000  0.5196080000000  0.4462130000000 1.0
C      1  0.5201180000000  0.5303880000000  0.4754280000000 1.0
C      1  0.5055130000000  0.4732080000000  0.4553980000000 1.0
C      1  0.4836700000000  0.5498330000000  0.5135300000000 1.0
C      1  0.4932190000000  0.5397600000000  0.4664370000000 1.0
C      1  0.4591420000000  0.4830300000000  0.5180970000000 1.0
C      1  0.4713050000000  0.4776990000000  0.5434880000000 1.0
END
