TITL C-2778427-5640-391 0.0185596217334578 125000 -781.79369495009 0 0 134 (C1) n - 1
REM
REM in /home/nfs/bkarasulu/CARBON/AIRSS/Generating-Clusters/REBO/Only-C1/SD-CG/HFTN-CG
REM
REM
REM
REM
REM
REM ./C.cell (11c1c37f851c82e70ff6c80c92926a4b)
REM
REM compiler GCC version 9.2.1 20190827 (Red Hat 9.2.1-1)
REM options -cpp -mtune=generic -march=x86-64 -g -O0 -fpre-include=/usr/include/finclude/math-vector-fortran.h
REM seed 1330561029 570775441 -255213221 -837767399 -686617800 1125224693 -803399622 -315988138 1951861505 -1624394621 -1754063716 1388638343 -1259284463 1602841512 -228207521 -1445398540 1017576963 1968905290 -1269827362 1268830311 -1642863034 -1505590499 -1911933133 -1008542838 -311487090 1336904725 -1509637559 1132101511 1098283652 826135260 -1380238418 -2109920383 646919928
REM
CELL 1.54180   50.00000   50.00000   50.00000   90.00000   90.00000   90.00000
LATT -1
SFAC C  
C      1  0.4762500000000  0.5063420000000  0.6038690000000 1.0
C      1  0.4865740000000  0.4571970000000  0.5900300000000 1.0
C      1  0.5419740000000  0.5646710000000  0.5694470000000 1.0
C      1  0.5700930000000  0.5213090000000  0.4901390000000 1.0
C      1  0.5932810000000  0.5441190000000  0.4966820000000 1.0
C      1  0.5115670000000  0.4693660000000  0.5459600000000 1.0
C      1  0.4862550000000  0.4867350000000  0.5018380000000 1.0
C      1  0.5001800000000  0.5068080000000  0.4102960000000 1.0
C      1  0.5696600000000  0.5443790000000  0.5711850000000 1.0
C      1  0.4570950000000  0.5865740000000  0.4460370000000 1.0
C      1  0.5034420000000  0.4347840000000  0.5134720000000 1.0
C      1  0.4911290000000  0.4590610000000  0.4667690000000 1.0
C      1  0.4712370000000  0.4844540000000  0.4557330000000 1.0
C      1  0.4109130000000  0.4763260000000  0.4640470000000 1.0
C      1  0.5521850000000  0.5707040000000  0.4952650000000 1.0
C      1  0.4753200000000  0.5756720000000  0.5061300000000 1.0
C      1  0.4690010000000  0.4770210000000  0.5602640000000 1.0
C      1  0.5923520000000  0.4613260000000  0.5013370000000 1.0
C      1  0.4781360000000  0.4913090000000  0.4059720000000 1.0
C      1  0.5717930000000  0.5168400000000  0.4451020000000 1.0
C      1  0.4831620000000  0.5141820000000  0.4656030000000 1.0
C      1  0.5602910000000  0.4475890000000  0.5453610000000 1.0
C      1  0.4813950000000  0.5258870000000  0.4966210000000 1.0
C      1  0.5382120000000  0.4847040000000  0.4687790000000 1.0
C      1  0.5976830000000  0.4738250000000  0.5295770000000 1.0
C      1  0.5204530000000  0.3958850000000  0.4944480000000 1.0
C      1  0.5605910000000  0.5588130000000  0.5422690000000 1.0
C      1  0.4935550000000  0.4844440000000  0.5956500000000 1.0
C      1  0.4158390000000  0.4556770000000  0.5249610000000 1.0
C      1  0.4426410000000  0.5707750000000  0.5051920000000 1.0
C      1  0.4273580000000  0.4542240000000  0.5816120000000 1.0
C      1  0.4867020000000  0.5890050000000  0.4383550000000 1.0
C      1  0.5260200000000  0.4641280000000  0.4214620000000 1.0
C      1  0.4643260000000  0.5482780000000  0.5581370000000 1.0
C      1  0.4753980000000  0.5335480000000  0.4406220000000 1.0
C      1  0.4670690000000  0.5581520000000  0.4713530000000 1.0
C      1  0.4115860000000  0.5294030000000  0.5517790000000 1.0
C      1  0.5440080000000  0.5356560000000  0.3993940000000 1.0
C      1  0.4382890000000  0.4900670000000  0.4494440000000 1.0
C      1  0.4077950000000  0.5104280000000  0.4676880000000 1.0
C      1  0.5739330000000  0.5277020000000  0.5415040000000 1.0
C      1  0.4583690000000  0.4736390000000  0.4941330000000 1.0
C      1  0.4499120000000  0.4198510000000  0.5127920000000 1.0
C      1  0.4729810000000  0.4318760000000  0.4437300000000 1.0
C      1  0.5258980000000  0.5794970000000  0.5440970000000 1.0
C      1  0.4735400000000  0.5914700000000  0.4760190000000 1.0
C      1  0.4709380000000  0.5299470000000  0.5864050000000 1.0
C      1  0.4769730000000  0.4486070000000  0.5078270000000 1.0
C      1  0.4324940000000  0.4909560000000  0.4174960000000 1.0
C      1  0.4484360000000  0.5536650000000  0.4428500000000 1.0
C      1  0.5329770000000  0.4037770000000  0.5239530000000 1.0
C      1  0.4060160000000  0.4614370000000  0.4943190000000 1.0
C      1  0.4548830000000  0.5050020000000  0.5358560000000 1.0
C      1  0.5367950000000  0.5646020000000  0.4416400000000 1.0
C      1  0.4839650000000  0.4575350000000  0.5399810000000 1.0
C      1  0.5210540000000  0.6020340000000  0.5298280000000 1.0
C      1  0.4545470000000  0.4284860000000  0.5406570000000 1.0
C      1  0.4985240000000  0.4042240000000  0.5267780000000 1.0
C      1  0.5174510000000  0.5383250000000  0.4854130000000 1.0
C      1  0.5141790000000  0.5427750000000  0.4536430000000 1.0
C      1  0.4751150000000  0.4091060000000  0.5020450000000 1.0
C      1  0.5866080000000  0.5011040000000  0.4719900000000 1.0
C      1  0.4835710000000  0.5074560000000  0.5646000000000 1.0
C      1  0.4853660000000  0.4249590000000  0.5492490000000 1.0
C      1  0.4405920000000  0.4947410000000  0.4829810000000 1.0
C      1  0.4460290000000  0.4445870000000  0.4432040000000 1.0
C      1  0.4425470000000  0.4625840000000  0.4207820000000 1.0
C      1  0.5506390000000  0.4518360000000  0.4228430000000 1.0
C      1  0.4573540000000  0.4544960000000  0.5834820000000 1.0
C      1  0.5360340000000  0.4327440000000  0.4714530000000 1.0
C      1  0.5667970000000  0.4934790000000  0.5606300000000 1.0
C      1  0.5639380000000  0.5495950000000  0.4510330000000 1.0
C      1  0.4964330000000  0.5531510000000  0.5046620000000 1.0
C      1  0.4753200000000  0.4677690000000  0.4264600000000 1.0
C      1  0.5798700000000  0.4702480000000  0.5507080000000 1.0
C      1  0.5139760000000  0.4965080000000  0.5752140000000 1.0
C      1  0.4159410000000  0.5062800000000  0.5268500000000 1.0
C      1  0.5239750000000  0.4320500000000  0.5392880000000 1.0
C      1  0.5017830000000  0.6032540000000  0.4734980000000 1.0
C      1  0.5487370000000  0.5105850000000  0.4029220000000 1.0
C      1  0.4433550000000  0.5239130000000  0.5587820000000 1.0
C      1  0.5273140000000  0.5900120000000  0.4564290000000 1.0
C      1  0.5242650000000  0.5076690000000  0.4971160000000 1.0
C      1  0.5464940000000  0.5300610000000  0.4725410000000 1.0
C      1  0.4285220000000  0.5381810000000  0.5246220000000 1.0
C      1  0.4095490000000  0.4949860000000  0.4986780000000 1.0
C      1  0.5266300000000  0.4952610000000  0.4206330000000 1.0
C      1  0.4193830000000  0.5392030000000  0.4531800000000 1.0
C      1  0.5055030000000  0.4733930000000  0.4888110000000 1.0
C      1  0.5130380000000  0.5043690000000  0.4647360000000 1.0
C      1  0.5326970000000  0.4503970000000  0.5648170000000 1.0
C      1  0.5572970000000  0.4276650000000  0.5182730000000 1.0
C      1  0.4381520000000  0.4567080000000  0.4713900000000 1.0
C      1  0.4524730000000  0.5031760000000  0.4007870000000 1.0
C      1  0.4342100000000  0.5552310000000  0.4797920000000 1.0
C      1  0.4315570000000  0.5257100000000  0.4873780000000 1.0
C      1  0.5310860000000  0.4341850000000  0.4988140000000 1.0
C      1  0.5423710000000  0.5536360000000  0.5184770000000 1.0
C      1  0.4987460000000  0.4090500000000  0.4827000000000 1.0
C      1  0.5179750000000  0.6068310000000  0.5021700000000 1.0
C      1  0.5205020000000  0.5431960000000  0.5778910000000 1.0
C      1  0.4461830000000  0.4969650000000  0.5739980000000 1.0
C      1  0.5473160000000  0.5238270000000  0.5119160000000 1.0
C      1  0.5155230000000  0.5004310000000  0.5420620000000 1.0
C      1  0.5957220000000  0.5232450000000  0.5201910000000 1.0
C      1  0.5463340000000  0.5076520000000  0.5386270000000 1.0
C      1  0.5365580000000  0.4618330000000  0.5267130000000 1.0
C      1  0.5648430000000  0.4848220000000  0.4545100000000 1.0
C      1  0.4259410000000  0.4832730000000  0.5868600000000 1.0
C      1  0.5734430000000  0.5598700000000  0.4802750000000 1.0
C      1  0.5971380000000  0.4951950000000  0.5036110000000 1.0
C      1  0.4347180000000  0.4497220000000  0.5508550000000 1.0
C      1  0.5675490000000  0.4564840000000  0.4453010000000 1.0
C      1  0.5082960000000  0.4314720000000  0.4589870000000 1.0
C      1  0.5021670000000  0.4409800000000  0.5725000000000 1.0
C      1  0.4940570000000  0.5658810000000  0.4535550000000 1.0
C      1  0.4959430000000  0.5334170000000  0.4194280000000 1.0
C      1  0.5597680000000  0.5154980000000  0.5796760000000 1.0
C      1  0.4540120000000  0.5223320000000  0.5092560000000 1.0
C      1  0.5380740000000  0.5921810000000  0.4847110000000 1.0
C      1  0.5633690000000  0.4388750000000  0.4675190000000 1.0
C      1  0.4667110000000  0.4389410000000  0.4767950000000 1.0
C      1  0.5320830000000  0.5178480000000  0.5856520000000 1.0
C      1  0.4585330000000  0.5672980000000  0.5348000000000 1.0
C      1  0.5002390000000  0.4475460000000  0.4299200000000 1.0
C      1  0.4342950000000  0.4805910000000  0.5364420000000 1.0
C      1  0.5346980000000  0.4753900000000  0.5009670000000 1.0
C      1  0.5112630000000  0.5529730000000  0.5320980000000 1.0
C      1  0.4277570000000  0.4357900000000  0.5013470000000 1.0
C      1  0.5759940000000  0.4403800000000  0.4936770000000 1.0
C      1  0.4872220000000  0.5067650000000  0.5250350000000 1.0
C      1  0.4964350000000  0.5384220000000  0.5569460000000 1.0
C      1  0.5234380000000  0.5482960000000  0.4171740000000 1.0
C      1  0.5379550000000  0.5213680000000  0.4398800000000 1.0
END
