TITL C-2778431-5191-418 -0.000545357508062231 125000 -734.921988770679 0 0 126 (C1) n - 1
REM
REM in /home/nfs/bkarasulu/CARBON/AIRSS/Generating-Clusters/REBO/Only-C1/SD-CG/HFTN-CG
REM
REM
REM
REM
REM
REM ./C.cell (11c1c37f851c82e70ff6c80c92926a4b)
REM
REM compiler GCC version 9.2.1 20190827 (Red Hat 9.2.1-1)
REM options -cpp -mtune=generic -march=x86-64 -g -O0 -fpre-include=/usr/include/finclude/math-vector-fortran.h
REM seed 2030133679 -679982266 1453804752 420992467 1079126112 491822160 -1518216087 -1726098849 1589796242 -164164863 -1266430047 -18491783 898826368 -239385752 -563354082 -1174051541 -2022043720 -1214186297 218413928 -1847901057 -2007169109 210052368 -520470000 -14683391 1590570860 266577537 -1500248323 2042809305 1249725992 -1016102488 -2139483997 797258124 -348469702
REM
CELL 1.54180   50.00000   50.00000   50.00000   90.00000   90.00000   90.00000
LATT -1
SFAC C  
C      1  0.5562080000000  0.5425590000000  0.5594500000000 1.0
C      1  0.4859770000000  0.5104800000000  0.5397560000000 1.0
C      1  0.5684410000000  0.5808090000000  0.4788780000000 1.0
C      1  0.4952870000000  0.4787810000000  0.4569880000000 1.0
C      1  0.5858320000000  0.5065360000000  0.4930750000000 1.0
C      1  0.4395820000000  0.5619240000000  0.5420790000000 1.0
C      1  0.5127310000000  0.5326490000000  0.5841970000000 1.0
C      1  0.4248780000000  0.5119900000000  0.5300740000000 1.0
C      1  0.4907340000000  0.4426330000000  0.4891020000000 1.0
C      1  0.5291800000000  0.5473990000000  0.4641960000000 1.0
C      1  0.5297370000000  0.5271080000000  0.4130290000000 1.0
C      1  0.5502680000000  0.4438530000000  0.4844950000000 1.0
C      1  0.4415180000000  0.5046130000000  0.4457350000000 1.0
C      1  0.5073010000000  0.4312780000000  0.5563620000000 1.0
C      1  0.4749440000000  0.5894940000000  0.4739280000000 1.0
C      1  0.4596030000000  0.5222010000000  0.4962440000000 1.0
C      1  0.4793570000000  0.5946840000000  0.5449740000000 1.0
C      1  0.4640990000000  0.4831860000000  0.4343220000000 1.0
C      1  0.5875690000000  0.4435030000000  0.5003740000000 1.0
C      1  0.4497890000000  0.5467560000000  0.4841640000000 1.0
C      1  0.4749970000000  0.5770290000000  0.4211360000000 1.0
C      1  0.5076350000000  0.5282950000000  0.4955010000000 1.0
C      1  0.4799690000000  0.5321770000000  0.5827800000000 1.0
C      1  0.4357060000000  0.4391580000000  0.5388580000000 1.0
C      1  0.4929220000000  0.5084930000000  0.4475120000000 1.0
C      1  0.5682310000000  0.5021590000000  0.4382490000000 1.0
C      1  0.5119610000000  0.4971570000000  0.4977130000000 1.0
C      1  0.4769940000000  0.4294990000000  0.4621040000000 1.0
C      1  0.4307350000000  0.4943550000000  0.4726910000000 1.0
C      1  0.4131470000000  0.5070300000000  0.4989520000000 1.0
C      1  0.5716560000000  0.4800650000000  0.5772380000000 1.0
C      1  0.5259660000000  0.4806490000000  0.5914960000000 1.0
C      1  0.5674290000000  0.4550370000000  0.5608510000000 1.0
C      1  0.5245760000000  0.5021690000000  0.4436990000000 1.0
C      1  0.4174520000000  0.5266070000000  0.4387010000000 1.0
C      1  0.4099940000000  0.4660530000000  0.4677910000000 1.0
C      1  0.4566670000000  0.5611100000000  0.4361110000000 1.0
C      1  0.4653300000000  0.5712180000000  0.5498010000000 1.0
C      1  0.4886730000000  0.4878740000000  0.5151200000000 1.0
C      1  0.5427230000000  0.4527900000000  0.5138920000000 1.0
C      1  0.5961580000000  0.4646660000000  0.5177390000000 1.0
C      1  0.3998950000000  0.5329650000000  0.4582840000000 1.0
C      1  0.4616180000000  0.3977620000000  0.5077260000000 1.0
C      1  0.4985490000000  0.4104720000000  0.4343170000000 1.0
C      1  0.4628090000000  0.4784120000000  0.5348060000000 1.0
C      1  0.4438030000000  0.4121820000000  0.4928390000000 1.0
C      1  0.4725970000000  0.4652430000000  0.4987430000000 1.0
C      1  0.5397860000000  0.4682390000000  0.5562150000000 1.0
C      1  0.5427140000000  0.4674200000000  0.4632830000000 1.0
C      1  0.5199320000000  0.4478050000000  0.4155150000000 1.0
C      1  0.5491820000000  0.4961060000000  0.5856070000000 1.0
C      1  0.5404310000000  0.5850110000000  0.5319400000000 1.0
C      1  0.4682100000000  0.4824420000000  0.5678350000000 1.0
C      1  0.4918700000000  0.5362380000000  0.5213660000000 1.0
C      1  0.5439160000000  0.5234010000000  0.5793650000000 1.0
C      1  0.5374340000000  0.5266400000000  0.5385080000000 1.0
C      1  0.4384920000000  0.4445710000000  0.4998710000000 1.0
C      1  0.4593950000000  0.4199620000000  0.5539540000000 1.0
C      1  0.4484100000000  0.5336780000000  0.4286280000000 1.0
C      1  0.4523480000000  0.5043640000000  0.5159510000000 1.0
C      1  0.4791810000000  0.4553510000000  0.4420090000000 1.0
C      1  0.6059430000000  0.5172630000000  0.4785230000000 1.0
C      1  0.4245980000000  0.5690120000000  0.5192140000000 1.0
C      1  0.5172520000000  0.5496790000000  0.5488270000000 1.0
C      1  0.4948150000000  0.4364740000000  0.4225420000000 1.0
C      1  0.5174600000000  0.4793790000000  0.4755340000000 1.0
C      1  0.5445840000000  0.5296230000000  0.5104340000000 1.0
C      1  0.5422440000000  0.5165520000000  0.4650230000000 1.0
C      1  0.5791400000000  0.4557420000000  0.4735890000000 1.0
C      1  0.4852900000000  0.5478670000000  0.5533620000000 1.0
C      1  0.4335660000000  0.5338880000000  0.5520940000000 1.0
C      1  0.4316620000000  0.4457120000000  0.4606270000000 1.0
C      1  0.5144030000000  0.4559920000000  0.5708310000000 1.0
C      1  0.5493160000000  0.5724060000000  0.5558790000000 1.0
C      1  0.5095630000000  0.5077520000000  0.5611450000000 1.0
C      1  0.4476000000000  0.4693780000000  0.4801590000000 1.0
C      1  0.5704370000000  0.4241010000000  0.5126610000000 1.0
C      1  0.5377980000000  0.4483760000000  0.4369840000000 1.0
C      1  0.4928410000000  0.5311750000000  0.4682260000000 1.0
C      1  0.5022370000000  0.5800820000000  0.4920760000000 1.0
C      1  0.4149710000000  0.4559070000000  0.5210760000000 1.0
C      1  0.5671290000000  0.5327530000000  0.4489120000000 1.0
C      1  0.5481950000000  0.4828830000000  0.5177850000000 1.0
C      1  0.4653230000000  0.4411340000000  0.5207160000000 1.0
C      1  0.5018230000000  0.6103150000000  0.4760810000000 1.0
C      1  0.4952030000000  0.3958680000000  0.5137360000000 1.0
C      1  0.5156540000000  0.4344810000000  0.5079660000000 1.0
C      1  0.5003250000000  0.5771110000000  0.4334670000000 1.0
C      1  0.4644110000000  0.5781300000000  0.5041540000000 1.0
C      1  0.4585470000000  0.5114500000000  0.5563270000000 1.0
C      1  0.5472690000000  0.5481110000000  0.4269880000000 1.0
C      1  0.5130550000000  0.4104920000000  0.4591240000000 1.0
C      1  0.5348170000000  0.4284560000000  0.4604750000000 1.0
C      1  0.4926650000000  0.4339520000000  0.5311770000000 1.0
C      1  0.5461150000000  0.5787080000000  0.4997530000000 1.0
C      1  0.5320040000000  0.5734750000000  0.4408610000000 1.0
C      1  0.5542180000000  0.4346750000000  0.5399400000000 1.0
C      1  0.5085320000000  0.5926430000000  0.5294600000000 1.0
C      1  0.5347350000000  0.4963780000000  0.5443970000000 1.0
C      1  0.4991930000000  0.5568950000000  0.4553720000000 1.0
C      1  0.4713930000000  0.4007390000000  0.5376200000000 1.0
C      1  0.5303740000000  0.4159580000000  0.5481100000000 1.0
C      1  0.4045650000000  0.5339850000000  0.4864870000000 1.0
C      1  0.5801850000000  0.4879820000000  0.5155370000000 1.0
C      1  0.5626820000000  0.5659300000000  0.4531950000000 1.0
C      1  0.4474860000000  0.4228230000000  0.4654490000000 1.0
C      1  0.5438110000000  0.5001490000000  0.4194400000000 1.0
C      1  0.5267310000000  0.5628150000000  0.5769240000000 1.0
C      1  0.4730080000000  0.5140010000000  0.4230390000000 1.0
C      1  0.4493500000000  0.5310150000000  0.5820150000000 1.0
C      1  0.5239620000000  0.6040820000000  0.5012390000000 1.0
C      1  0.5322480000000  0.5524010000000  0.4946800000000 1.0
C      1  0.4587260000000  0.5650120000000  0.4636680000000 1.0
C      1  0.4048180000000  0.4756360000000  0.4962790000000 1.0
C      1  0.4894120000000  0.5667300000000  0.5183520000000 1.0
C      1  0.4233950000000  0.5541910000000  0.4950140000000 1.0
C      1  0.5906570000000  0.5943860000000  0.4830830000000 1.0
C      1  0.5728230000000  0.4800920000000  0.4551130000000 1.0
C      1  0.4958730000000  0.4830950000000  0.5767650000000 1.0
C      1  0.4581650000000  0.4537570000000  0.5578880000000 1.0
C      1  0.5424910000000  0.4131770000000  0.5083850000000 1.0
C      1  0.5227910000000  0.3974010000000  0.5256310000000 1.0
C      1  0.4080210000000  0.4847540000000  0.5348720000000 1.0
C      1  0.4944220000000  0.4098390000000  0.4847490000000 1.0
C      1  0.5022990000000  0.5255540000000  0.4120300000000 1.0
C      1  0.5528540000000  0.5059350000000  0.4928210000000 1.0
END
