TITL C-2778426-5645-268 0.000299316759942247 125000 -805.710759495271 0 0 136 (C1) n - 1
REM
REM in /home/nfs/bkarasulu/CARBON/AIRSS/Generating-Clusters/REBO/Only-C1/SD-CG/HFTN-CG
REM
REM
REM
REM
REM
REM ./C.cell (11c1c37f851c82e70ff6c80c92926a4b)
REM
REM compiler GCC version 9.2.1 20190827 (Red Hat 9.2.1-1)
REM options -cpp -mtune=generic -march=x86-64 -g -O0 -fpre-include=/usr/include/finclude/math-vector-fortran.h
REM seed 194353179 -1739947703 -878824925 -1227789994 1670409104 628659542 -945847137 2094069600 2073957187 331476488 1135575458 396537801 957084479 -1067022752 755940304 -86227357 513162431 -970856639 1963393594 551467320 1965172305 -1990781455 768156681 744756221 -1946124359 628527183 2066260218 1396147114 1126673429 -1091036409 -143725577 1716410299 982188678
REM
CELL 1.54180   50.00000   50.00000   50.00000   90.00000   90.00000   90.00000
LATT -1
SFAC C  
C      1  0.4971000000000  0.5239720000000  0.5252440000000 1.0
C      1  0.5307260000000  0.4361710000000  0.4388840000000 1.0
C      1  0.3958470000000  0.5319180000000  0.4625120000000 1.0
C      1  0.5997140000000  0.5129400000000  0.4963500000000 1.0
C      1  0.5258240000000  0.4593610000000  0.5117300000000 1.0
C      1  0.5604510000000  0.5344640000000  0.4248120000000 1.0
C      1  0.5748070000000  0.5233720000000  0.4532810000000 1.0
C      1  0.4908210000000  0.4287240000000  0.5072450000000 1.0
C      1  0.4902040000000  0.5185170000000  0.4703420000000 1.0
C      1  0.4973390000000  0.4711810000000  0.4133490000000 1.0
C      1  0.5353940000000  0.4883960000000  0.4346340000000 1.0
C      1  0.5636430000000  0.5688340000000  0.4953390000000 1.0
C      1  0.4783990000000  0.4736310000000  0.4890830000000 1.0
C      1  0.5898120000000  0.5098810000000  0.5949970000000 1.0
C      1  0.5277820000000  0.5901370000000  0.4560370000000 1.0
C      1  0.5068970000000  0.4889810000000  0.4911210000000 1.0
C      1  0.4458130000000  0.4370430000000  0.5176020000000 1.0
C      1  0.4771120000000  0.4293160000000  0.4698390000000 1.0
C      1  0.5543200000000  0.4759860000000  0.5191800000000 1.0
C      1  0.4975080000000  0.5423630000000  0.4455600000000 1.0
C      1  0.4641270000000  0.5453290000000  0.5181530000000 1.0
C      1  0.4648160000000  0.4103870000000  0.5181840000000 1.0
C      1  0.4918150000000  0.5780320000000  0.5396940000000 1.0
C      1  0.5988620000000  0.4734440000000  0.5571050000000 1.0
C      1  0.4240860000000  0.5011340000000  0.5593330000000 1.0
C      1  0.5949430000000  0.4447350000000  0.5113840000000 1.0
C      1  0.4877990000000  0.4809690000000  0.4569400000000 1.0
C      1  0.5563910000000  0.5141700000000  0.5902860000000 1.0
C      1  0.4543460000000  0.5031550000000  0.4079830000000 1.0
C      1  0.5736210000000  0.5576920000000  0.5245760000000 1.0
C      1  0.5433830000000  0.4247100000000  0.4626200000000 1.0
C      1  0.5536590000000  0.5472670000000  0.5837960000000 1.0
C      1  0.5542210000000  0.4491080000000  0.5382680000000 1.0
C      1  0.4498460000000  0.4565400000000  0.5687450000000 1.0
C      1  0.4468000000000  0.4563260000000  0.4445120000000 1.0
C      1  0.4643460000000  0.4396470000000  0.5451450000000 1.0
C      1  0.5079370000000  0.5322820000000  0.5790030000000 1.0
C      1  0.5611920000000  0.4500720000000  0.4742690000000 1.0
C      1  0.4100040000000  0.4540240000000  0.4888640000000 1.0
C      1  0.4555200000000  0.4911010000000  0.5058690000000 1.0
C      1  0.4616570000000  0.5579120000000  0.4391670000000 1.0
C      1  0.4332750000000  0.4388140000000  0.4891230000000 1.0
C      1  0.5138700000000  0.5512890000000  0.5200010000000 1.0
C      1  0.5913570000000  0.4876600000000  0.4841290000000 1.0
C      1  0.5307270000000  0.4866020000000  0.5543600000000 1.0
C      1  0.4557020000000  0.5750490000000  0.4670740000000 1.0
C      1  0.4776330000000  0.4899590000000  0.5558180000000 1.0
C      1  0.5403540000000  0.5590510000000  0.4519700000000 1.0
C      1  0.4067670000000  0.5220520000000  0.5438580000000 1.0
C      1  0.5867230000000  0.4176090000000  0.5082950000000 1.0
C      1  0.4492990000000  0.5179660000000  0.5226900000000 1.0
C      1  0.4797090000000  0.5269370000000  0.5850290000000 1.0
C      1  0.4303330000000  0.4970020000000  0.4219420000000 1.0
C      1  0.3705710000000  0.4757260000000  0.5014980000000 1.0
C      1  0.5106400000000  0.5415430000000  0.5517650000000 1.0
C      1  0.5012610000000  0.4509240000000  0.4654000000000 1.0
C      1  0.5660290000000  0.5357690000000  0.4901010000000 1.0
C      1  0.5034660000000  0.5026780000000  0.5475480000000 1.0
C      1  0.5843550000000  0.4885520000000  0.5756510000000 1.0
C      1  0.4539830000000  0.5118130000000  0.5525420000000 1.0
C      1  0.5479830000000  0.4775740000000  0.4615900000000 1.0
C      1  0.5543910000000  0.5339270000000  0.5375640000000 1.0
C      1  0.5114630000000  0.5652100000000  0.4966610000000 1.0
C      1  0.6022530000000  0.4574190000000  0.5355590000000 1.0
C      1  0.4903900000000  0.5535220000000  0.4766780000000 1.0
C      1  0.4757460000000  0.5901860000000  0.4823500000000 1.0
C      1  0.3822330000000  0.4510350000000  0.4951530000000 1.0
C      1  0.4938420000000  0.4570560000000  0.5116270000000 1.0
C      1  0.5067510000000  0.5897080000000  0.4769860000000 1.0
C      1  0.5854600000000  0.4609210000000  0.4905530000000 1.0
C      1  0.4447450000000  0.5278910000000  0.4807150000000 1.0
C      1  0.5623430000000  0.5075070000000  0.5087510000000 1.0
C      1  0.5390540000000  0.5487280000000  0.4134290000000 1.0
C      1  0.4328660000000  0.4811430000000  0.4453440000000 1.0
C      1  0.4687830000000  0.4792410000000  0.4023520000000 1.0
C      1  0.4728240000000  0.5568770000000  0.5424820000000 1.0
C      1  0.5128330000000  0.4039890000000  0.4983420000000 1.0
C      1  0.5203380000000  0.5318400000000  0.4016380000000 1.0
C      1  0.4694950000000  0.4987650000000  0.5869730000000 1.0
C      1  0.4841810000000  0.4641390000000  0.5417800000000 1.0
C      1  0.4171580000000  0.5305050000000  0.4466470000000 1.0
C      1  0.5064850000000  0.4172230000000  0.5690150000000 1.0
C      1  0.5067820000000  0.4933050000000  0.4320310000000 1.0
C      1  0.4221700000000  0.4734960000000  0.5432260000000 1.0
C      1  0.4911090000000  0.5679690000000  0.4258890000000 1.0
C      1  0.4177090000000  0.4849600000000  0.4929240000000 1.0
C      1  0.4340950000000  0.4681410000000  0.5174640000000 1.0
C      1  0.5280800000000  0.4570400000000  0.4801330000000 1.0
C      1  0.5489870000000  0.4532480000000  0.5661870000000 1.0
C      1  0.5224350000000  0.5731370000000  0.4273720000000 1.0
C      1  0.5605070000000  0.5049370000000  0.4209280000000 1.0
C      1  0.4209230000000  0.5310170000000  0.5209010000000 1.0
C      1  0.5568580000000  0.5818610000000  0.4697350000000 1.0
C      1  0.4347510000000  0.4976820000000  0.4723580000000 1.0
C      1  0.4508390000000  0.4397070000000  0.4670850000000 1.0
C      1  0.5172650000000  0.4117510000000  0.5309240000000 1.0
C      1  0.5163070000000  0.4602310000000  0.5444040000000 1.0
C      1  0.5767140000000  0.4933610000000  0.4573900000000 1.0
C      1  0.5533180000000  0.4837290000000  0.5752840000000 1.0
C      1  0.5589590000000  0.4118890000000  0.5066200000000 1.0
C      1  0.5723100000000  0.4753760000000  0.4288450000000 1.0
C      1  0.5469570000000  0.5563810000000  0.5584190000000 1.0
C      1  0.5237440000000  0.5117350000000  0.4714500000000 1.0
C      1  0.5371270000000  0.4940830000000  0.4960850000000 1.0
C      1  0.5447650000000  0.5325190000000  0.4637690000000 1.0
C      1  0.4703010000000  0.5304720000000  0.4187680000000 1.0
C      1  0.4667630000000  0.4528570000000  0.4233220000000 1.0
C      1  0.4887760000000  0.5942940000000  0.5120600000000 1.0
C      1  0.4644870000000  0.5437310000000  0.4902340000000 1.0
C      1  0.5339800000000  0.5132840000000  0.5362770000000 1.0
C      1  0.4834490000000  0.5105540000000  0.5027590000000 1.0
C      1  0.3581120000000  0.5373700000000  0.5608820000000 1.0
C      1  0.5262740000000  0.5223180000000  0.5982570000000 1.0
C      1  0.4862120000000  0.4140840000000  0.5443550000000 1.0
C      1  0.4640660000000  0.5399030000000  0.5638220000000 1.0
C      1  0.5441830000000  0.4234740000000  0.5289430000000 1.0
C      1  0.4803480000000  0.4031940000000  0.4885800000000 1.0
C      1  0.4984620000000  0.4435350000000  0.4323030000000 1.0
C      1  0.5470900000000  0.4566850000000  0.4277100000000 1.0
C      1  0.5849480000000  0.5261470000000  0.5238830000000 1.0
C      1  0.4325590000000  0.5663240000000  0.4820070000000 1.0
C      1  0.5183710000000  0.5175190000000  0.6244260000000 1.0
C      1  0.4451800000000  0.4821650000000  0.5777210000000 1.0
C      1  0.5398720000000  0.4073370000000  0.4849280000000 1.0
C      1  0.5485950000000  0.5806120000000  0.5225310000000 1.0
C      1  0.3818240000000  0.5299050000000  0.5525860000000 1.0
C      1  0.5192750000000  0.5971050000000  0.5193390000000 1.0
C      1  0.5251520000000  0.5780780000000  0.5472030000000 1.0
C      1  0.4196700000000  0.5513860000000  0.5011280000000 1.0
C      1  0.3892380000000  0.4972810000000  0.4976830000000 1.0
C      1  0.5223880000000  0.4390170000000  0.5690880000000 1.0
C      1  0.4464220000000  0.5282650000000  0.4409410000000 1.0
C      1  0.5002160000000  0.5207650000000  0.4220870000000 1.0
C      1  0.4639940000000  0.5039580000000  0.4555900000000 1.0
C      1  0.3841930000000  0.5214190000000  0.4845660000000 1.0
C      1  0.5963340000000  0.5347810000000  0.4745830000000 1.0
END
