TITL C-2778424-3986-1296 -3.52267063499624e-08 125000 -15.4275353008299 0 0 4 (C2v) n - 1
REM
REM in /home/nfs/bkarasulu/CARBON/AIRSS/Generating-Clusters/REBO/Only-C1/SD-CG/HFTN-CG
REM
REM
REM
REM
REM
REM ./C.cell (11c1c37f851c82e70ff6c80c92926a4b)
REM
REM compiler GCC version 9.2.1 20190827 (Red Hat 9.2.1-1)
REM options -cpp -mtune=generic -march=x86-64 -g -O0 -fpre-include=/usr/include/finclude/math-vector-fortran.h
REM seed 788651100 1645959086 -924208898 316375583 -1701383708 -1980017020 714714126 1378256671 -191469860 -426767133 -228858962 -1569928803 -412948284 -1054353704 -2025088016 -127264746 955566913 489416537 -602411424 1678151041 1570012268 -1114390530 -1310550503 2122544398 -1017274753 -1385610426 -447080708 990040019 1446048077 1384197347 -675744932 1071613067 -1793591518
REM
CELL 1.54180   50.00000   50.00000   50.00000   90.00000   90.00000   90.00000
LATT -1
SFAC C  
C      1  0.4925180000000  0.5016910000000  0.4998120000000 1.0
C      1  0.4667930000000  0.5075050000000  0.4991640000000 1.0
C      1  0.5173560000000  0.4813800000000  0.4933360000000 1.0
C      1  0.5233330000000  0.5094230000000  0.5076890000000 1.0
END
