TITL C-2778429-3646-1182 -0.000297631985952565 125000 -891.13820648492 0 0 152 (C1) n - 1
REM
REM in /home/nfs/bkarasulu/CARBON/AIRSS/Generating-Clusters/REBO/Only-C1/SD-CG/HFTN-CG
REM
REM
REM
REM
REM
REM ./C.cell (11c1c37f851c82e70ff6c80c92926a4b)
REM
REM compiler GCC version 9.2.1 20190827 (Red Hat 9.2.1-1)
REM options -cpp -mtune=generic -march=x86-64 -g -O0 -fpre-include=/usr/include/finclude/math-vector-fortran.h
REM seed -1299816658 -434850321 1211163650 2123634687 480193831 2086617971 2037012189 -459545266 1216033369 1322963907 -970017672 2078089606 -1950914718 -511654996 812978112 -383486961 -1614726323 -647948898 -1132998796 -948793105 -1239647836 41914507 1598972688 -1252745704 -1887339828 1130899199 -1578521130 -861176150 -1092929199 1522362803 -1117485237 2110587895 -1367505060
REM
CELL 1.54180   50.00000   50.00000   50.00000   90.00000   90.00000   90.00000
LATT -1
SFAC C  
C      1  0.4981930000000  0.5145880000000  0.4858020000000 1.0
C      1  0.5341950000000  0.4787690000000  0.4225890000000 1.0
C      1  0.5177290000000  0.5604600000000  0.5681760000000 1.0
C      1  0.5407600000000  0.5788300000000  0.5538550000000 1.0
C      1  0.5180900000000  0.4552930000000  0.5759430000000 1.0
C      1  0.4805030000000  0.5494430000000  0.4786220000000 1.0
C      1  0.4172860000000  0.5048690000000  0.4397990000000 1.0
C      1  0.4868020000000  0.4949190000000  0.4106750000000 1.0
C      1  0.4148330000000  0.5476420000000  0.4631880000000 1.0
C      1  0.4928750000000  0.4918260000000  0.5982820000000 1.0
C      1  0.4707780000000  0.5008610000000  0.5500800000000 1.0
C      1  0.5558030000000  0.5315080000000  0.4138210000000 1.0
C      1  0.4743500000000  0.5186340000000  0.4539890000000 1.0
C      1  0.5585710000000  0.4923380000000  0.5853170000000 1.0
C      1  0.4651140000000  0.4289810000000  0.4829030000000 1.0
C      1  0.4553250000000  0.5371270000000  0.4335370000000 1.0
C      1  0.5096690000000  0.5254140000000  0.5160490000000 1.0
C      1  0.4079650000000  0.5039290000000  0.4960120000000 1.0
C      1  0.5208040000000  0.5224630000000  0.5541630000000 1.0
C      1  0.4897300000000  0.5228220000000  0.5432700000000 1.0
C      1  0.4768970000000  0.4483050000000  0.5033160000000 1.0
C      1  0.4967910000000  0.4428410000000  0.4155160000000 1.0
C      1  0.4654430000000  0.5950960000000  0.4971500000000 1.0
C      1  0.5751770000000  0.5767430000000  0.5143310000000 1.0
C      1  0.4136970000000  0.5335540000000  0.5466170000000 1.0
C      1  0.5675250000000  0.4250700000000  0.4414110000000 1.0
C      1  0.4779310000000  0.4906880000000  0.4730930000000 1.0
C      1  0.5756680000000  0.5036400000000  0.4921130000000 1.0
C      1  0.4848450000000  0.4821990000000  0.3855060000000 1.0
C      1  0.4406580000000  0.4742690000000  0.4766690000000 1.0
C      1  0.5024700000000  0.5331030000000  0.4575360000000 1.0
C      1  0.4361070000000  0.5296380000000  0.5077840000000 1.0
C      1  0.4525660000000  0.4974870000000  0.5774950000000 1.0
C      1  0.4970780000000  0.4566970000000  0.5283010000000 1.0
C      1  0.5453740000000  0.4201870000000  0.4302940000000 1.0
C      1  0.4600450000000  0.5077620000000  0.4185520000000 1.0
C      1  0.5014330000000  0.6013260000000  0.4581700000000 1.0
C      1  0.4188440000000  0.5563430000000  0.5083860000000 1.0
C      1  0.4185840000000  0.5071680000000  0.5270450000000 1.0
C      1  0.5691160000000  0.5421400000000  0.5792690000000 1.0
C      1  0.4475090000000  0.5037090000000  0.4659250000000 1.0
C      1  0.4788400000000  0.4530160000000  0.5552320000000 1.0
C      1  0.4947740000000  0.4718410000000  0.4914270000000 1.0
C      1  0.4785060000000  0.5577180000000  0.5279410000000 1.0
C      1  0.5131530000000  0.4819470000000  0.4564200000000 1.0
C      1  0.5242450000000  0.4174290000000  0.4746720000000 1.0
C      1  0.5049180000000  0.5525750000000  0.4984930000000 1.0
C      1  0.4985250000000  0.4083330000000  0.5531180000000 1.0
C      1  0.5311890000000  0.5081710000000  0.5900840000000 1.0
C      1  0.5187750000000  0.5399370000000  0.3736710000000 1.0
C      1  0.5201270000000  0.4860270000000  0.5699390000000 1.0
C      1  0.4775120000000  0.5031340000000  0.5108380000000 1.0
C      1  0.5005080000000  0.5205620000000  0.5816860000000 1.0
C      1  0.6045610000000  0.4987450000000  0.5260790000000 1.0
C      1  0.5386760000000  0.4614050000000  0.5134650000000 1.0
C      1  0.5881840000000  0.4512950000000  0.5123670000000 1.0
C      1  0.5887070000000  0.5320040000000  0.4531390000000 1.0
C      1  0.4889200000000  0.6073470000000  0.4815720000000 1.0
C      1  0.4575080000000  0.4540830000000  0.5307800000000 1.0
C      1  0.5052730000000  0.4859780000000  0.5204350000000 1.0
C      1  0.4900000000000  0.3858740000000  0.4957540000000 1.0
C      1  0.4687460000000  0.5614760000000  0.4505660000000 1.0
C      1  0.4169620000000  0.4799690000000  0.5414180000000 1.0
C      1  0.5197850000000  0.5305210000000  0.4328880000000 1.0
C      1  0.5494520000000  0.5781710000000  0.5270690000000 1.0
C      1  0.5870610000000  0.4768000000000  0.5238530000000 1.0
C      1  0.5086800000000  0.5986510000000  0.5308370000000 1.0
C      1  0.5213640000000  0.4595090000000  0.4767760000000 1.0
C      1  0.5576570000000  0.4683140000000  0.5703110000000 1.0
C      1  0.5180510000000  0.4371120000000  0.5011610000000 1.0
C      1  0.4860750000000  0.4258240000000  0.5711980000000 1.0
C      1  0.5565190000000  0.4852110000000  0.5309330000000 1.0
C      1  0.5613570000000  0.4380560000000  0.5203750000000 1.0
C      1  0.4347730000000  0.5417400000000  0.5641090000000 1.0
C      1  0.4871210000000  0.5474000000000  0.5653780000000 1.0
C      1  0.4359480000000  0.5789630000000  0.5022750000000 1.0
C      1  0.5530860000000  0.5163960000000  0.4620020000000 1.0
C      1  0.5531970000000  0.5726970000000  0.4496970000000 1.0
C      1  0.4031900000000  0.5710760000000  0.4701470000000 1.0
C      1  0.4553350000000  0.4863340000000  0.5255040000000 1.0
C      1  0.5492010000000  0.4843890000000  0.4919250000000 1.0
C      1  0.5383910000000  0.5560090000000  0.4267040000000 1.0
C      1  0.5173060000000  0.4432270000000  0.5509900000000 1.0
C      1  0.5661630000000  0.5346150000000  0.4870860000000 1.0
C      1  0.4691680000000  0.5356370000000  0.5071440000000 1.0
C      1  0.5291470000000  0.5721410000000  0.5091770000000 1.0
C      1  0.5036770000000  0.5732690000000  0.5399760000000 1.0
C      1  0.4410170000000  0.5245650000000  0.5846140000000 1.0
C      1  0.5610940000000  0.5192490000000  0.5313180000000 1.0
C      1  0.4718700000000  0.4090180000000  0.5079270000000 1.0
C      1  0.4466420000000  0.4265780000000  0.5180160000000 1.0
C      1  0.5366420000000  0.5714940000000  0.4770070000000 1.0
C      1  0.5533790000000  0.4213930000000  0.4917640000000 1.0
C      1  0.4517720000000  0.4644970000000  0.5864150000000 1.0
C      1  0.5243170000000  0.4008810000000  0.5335190000000 1.0
C      1  0.5527380000000  0.4666440000000  0.4655960000000 1.0
C      1  0.4064180000000  0.4504990000000  0.5031110000000 1.0
C      1  0.4408550000000  0.4438420000000  0.4664580000000 1.0
C      1  0.4513410000000  0.5760710000000  0.4727200000000 1.0
C      1  0.5304490000000  0.6040140000000  0.4853490000000 1.0
C      1  0.5349910000000  0.6019160000000  0.4516800000000 1.0
C      1  0.5480680000000  0.5368330000000  0.5530640000000 1.0
C      1  0.4046650000000  0.4940540000000  0.4628620000000 1.0
C      1  0.4304360000000  0.4129740000000  0.4717850000000 1.0
C      1  0.4901570000000  0.5798250000000  0.4389670000000 1.0
C      1  0.5294460000000  0.5039740000000  0.4611420000000 1.0
C      1  0.5364080000000  0.5408400000000  0.5858480000000 1.0
C      1  0.5399140000000  0.5127320000000  0.5073420000000 1.0
C      1  0.5198660000000  0.5812020000000  0.4296450000000 1.0
C      1  0.5958400000000  0.5286720000000  0.5636980000000 1.0
C      1  0.5800380000000  0.5109080000000  0.5853930000000 1.0
C      1  0.5237130000000  0.4529390000000  0.4238890000000 1.0
C      1  0.5468010000000  0.4012020000000  0.5183210000000 1.0
C      1  0.4994300000000  0.4177510000000  0.5204230000000 1.0
C      1  0.4836760000000  0.4230620000000  0.4396730000000 1.0
C      1  0.4941570000000  0.4766330000000  0.4367020000000 1.0
C      1  0.5293340000000  0.5309350000000  0.3970590000000 1.0
C      1  0.6248400000000  0.5100710000000  0.4803260000000 1.0
C      1  0.5338090000000  0.5395320000000  0.4878190000000 1.0
C      1  0.4018620000000  0.4722930000000  0.4860130000000 1.0
C      1  0.5813690000000  0.5624520000000  0.4906360000000 1.0
C      1  0.5193620000000  0.6108730000000  0.5087160000000 1.0
C      1  0.3904330000000  0.4391480000000  0.5484520000000 1.0
C      1  0.4986580000000  0.4604780000000  0.5991290000000 1.0
C      1  0.5693490000000  0.5147710000000  0.4346130000000 1.0
C      1  0.4723890000000  0.4460100000000  0.5938170000000 1.0
C      1  0.5567880000000  0.4494500000000  0.5509930000000 1.0
C      1  0.5264790000000  0.4937520000000  0.5397600000000 1.0
C      1  0.5946030000000  0.4452910000000  0.4862890000000 1.0
C      1  0.4369420000000  0.4762760000000  0.5046740000000 1.0
C      1  0.4026200000000  0.5543550000000  0.5304710000000 1.0
C      1  0.5916330000000  0.5216140000000  0.5366320000000 1.0
C      1  0.4244840000000  0.5329510000000  0.4395710000000 1.0
C      1  0.5171530000000  0.4263320000000  0.4454340000000 1.0
C      1  0.4331130000000  0.4755170000000  0.5627010000000 1.0
C      1  0.5169280000000  0.5026940000000  0.4170390000000 1.0
C      1  0.4386340000000  0.4899440000000  0.4279480000000 1.0
C      1  0.4575360000000  0.5599290000000  0.5540170000000 1.0
C      1  0.4465190000000  0.4657290000000  0.4436800000000 1.0
C      1  0.5804950000000  0.5594400000000  0.4596030000000 1.0
C      1  0.4570600000000  0.5821110000000  0.5277000000000 1.0
C      1  0.4246270000000  0.4277700000000  0.4992140000000 1.0
C      1  0.5562810000000  0.4837120000000  0.4394970000000 1.0
C      1  0.5987190000000  0.5149860000000  0.4749420000000 1.0
C      1  0.4026700000000  0.4574200000000  0.5312060000000 1.0
C      1  0.4605940000000  0.4107390000000  0.4561750000000 1.0
C      1  0.4867610000000  0.4801920000000  0.5666950000000 1.0
C      1  0.5102060000000  0.3903410000000  0.4816300000000 1.0
C      1  0.4278720000000  0.5227240000000  0.4780290000000 1.0
C      1  0.4723640000000  0.4544570000000  0.4349330000000 1.0
C      1  0.3789580000000  0.4220140000000  0.5646250000000 1.0
C      1  0.5689670000000  0.4398260000000  0.4685580000000 1.0
END
