TITL C-2778427-5640-1374 0.000728419427612389 125000 -267.232827000088 0 0 49 (C1) n - 1
REM
REM in /home/nfs/bkarasulu/CARBON/AIRSS/Generating-Clusters/REBO/Only-C1/SD-CG/HFTN-CG
REM
REM
REM
REM
REM
REM ./C.cell (11c1c37f851c82e70ff6c80c92926a4b)
REM
REM compiler GCC version 9.2.1 20190827 (Red Hat 9.2.1-1)
REM options -cpp -mtune=generic -march=x86-64 -g -O0 -fpre-include=/usr/include/finclude/math-vector-fortran.h
REM seed -25141335 1599379665 2001643465 -1250790223 1331984215 -91249617 902885605 1756620644 727090064 -669072318 -1755029047 2096345858 860541478 -1338281492 -1722589334 -1886755028 1001322578 721665832 838372721 -287944529 -74864292 1268150549 -1664019771 -1766111397 2114495152 1731372111 677714154 562972592 1018717762 585050321 -1214976590 -219143693 -1730691884
REM
CELL 1.54180   50.00000   50.00000   50.00000   90.00000   90.00000   90.00000
LATT -1
SFAC C  
C      1  0.4727920000000  0.4755480000000  0.5497000000000 1.0
C      1  0.5414230000000  0.5109800000000  0.5265530000000 1.0
C      1  0.4883680000000  0.5016230000000  0.5617670000000 1.0
C      1  0.4700100000000  0.5983240000000  0.5107280000000 1.0
C      1  0.5290440000000  0.5096540000000  0.4591440000000 1.0
C      1  0.5039430000000  0.5415350000000  0.4572010000000 1.0
C      1  0.4756060000000  0.5669040000000  0.5224400000000 1.0
C      1  0.5199890000000  0.5057420000000  0.5493640000000 1.0
C      1  0.4648090000000  0.5038920000000  0.4652480000000 1.0
C      1  0.5318250000000  0.5596860000000  0.4920660000000 1.0
C      1  0.4685760000000  0.5572060000000  0.4676060000000 1.0
C      1  0.3912220000000  0.4644150000000  0.5383590000000 1.0
C      1  0.4731510000000  0.4956680000000  0.5034850000000 1.0
C      1  0.5562390000000  0.4941120000000  0.4771960000000 1.0
C      1  0.4645810000000  0.5347740000000  0.4587750000000 1.0
C      1  0.5564450000000  0.5254680000000  0.4673640000000 1.0
C      1  0.4824340000000  0.5745520000000  0.4899060000000 1.0
C      1  0.5549220000000  0.5499140000000  0.4786510000000 1.0
C      1  0.4725160000000  0.5520750000000  0.5512730000000 1.0
C      1  0.5049970000000  0.5454350000000  0.4298290000000 1.0
C      1  0.4443250000000  0.4646350000000  0.5368050000000 1.0
C      1  0.4508500000000  0.4529660000000  0.4889500000000 1.0
C      1  0.4816710000000  0.4777900000000  0.4546810000000 1.0
C      1  0.4969290000000  0.5121300000000  0.4682270000000 1.0
C      1  0.4949000000000  0.5416770000000  0.5199590000000 1.0
C      1  0.5590990000000  0.5305190000000  0.5280570000000 1.0
C      1  0.4821140000000  0.5166410000000  0.5121770000000 1.0
C      1  0.4417020000000  0.4961020000000  0.4787860000000 1.0
C      1  0.5259450000000  0.5501520000000  0.5174120000000 1.0
C      1  0.4174170000000  0.4645240000000  0.5375920000000 1.0
C      1  0.5419340000000  0.4897980000000  0.5052820000000 1.0
C      1  0.4914020000000  0.5328270000000  0.5586920000000 1.0
C      1  0.5203100000000  0.5385040000000  0.5464480000000 1.0
C      1  0.4973360000000  0.4449390000000  0.5108410000000 1.0
C      1  0.5629080000000  0.4679900000000  0.4641120000000 1.0
C      1  0.5176870000000  0.4547090000000  0.5316520000000 1.0
C      1  0.5500940000000  0.4373850000000  0.5332650000000 1.0
C      1  0.4713350000000  0.4546910000000  0.5231900000000 1.0
C      1  0.4978720000000  0.4169010000000  0.5069890000000 1.0
C      1  0.5000640000000  0.4615080000000  0.4433840000000 1.0
C      1  0.5064170000000  0.4751560000000  0.5494410000000 1.0
C      1  0.5170910000000  0.4891660000000  0.4835240000000 1.0
C      1  0.5120080000000  0.4146130000000  0.4608630000000 1.0
C      1  0.4721910000000  0.4704060000000  0.4857480000000 1.0
C      1  0.5038860000000  0.4606870000000  0.4831750000000 1.0
C      1  0.5182540000000  0.4417830000000  0.4610240000000 1.0
C      1  0.5451020000000  0.4632820000000  0.5179820000000 1.0
C      1  0.5481430000000  0.4487980000000  0.4587670000000 1.0
C      1  0.5081230000000  0.5622120000000  0.4763230000000 1.0
END
