TITL C-2778437-8639-266 -0.0110757864922602 125000 -1122.92645677035 0 0 190 (C1) n - 1
REM
REM in /home/nfs/bkarasulu/CARBON/AIRSS/Generating-Clusters/REBO/Only-C1/SD-CG/HFTN-CG
REM
REM
REM
REM
REM
REM ./C.cell (11c1c37f851c82e70ff6c80c92926a4b)
REM
REM compiler GCC version 9.2.1 20190827 (Red Hat 9.2.1-1)
REM options -cpp -mtune=generic -march=x86-64 -g -O0 -fpre-include=/usr/include/finclude/math-vector-fortran.h
REM seed -1487366095 327511343 -1109349205 1031240570 1164000237 -1649418140 1676189479 -430443830 1120274429 -599309897 951425678 -1722918555 470663733 -1227750033 -107934072 -412125061 1551899873 -1282424902 -1801577401 566453884 -1373882251 -212525800 71297617 -1468731319 -40777690 -476845421 1793950456 -1851790405 765885809 1878872174 -1849553695 349033156 -1491273726
REM
CELL 1.54180   50.00000   50.00000   50.00000   90.00000   90.00000   90.00000
LATT -1
SFAC C  
C      1  0.5661940000000  0.5111120000000  0.5060580000000 1.0
C      1  0.5218530000000  0.5259550000000  0.4354350000000 1.0
C      1  0.5407680000000  0.5953610000000  0.5445330000000 1.0
C      1  0.5621790000000  0.4895760000000  0.5314170000000 1.0
C      1  0.5365010000000  0.4449820000000  0.5440000000000 1.0
C      1  0.5080090000000  0.5799170000000  0.5275860000000 1.0
C      1  0.4405370000000  0.5714180000000  0.5431030000000 1.0
C      1  0.5815950000000  0.5987190000000  0.4782310000000 1.0
C      1  0.5117700000000  0.4585910000000  0.5929310000000 1.0
C      1  0.4856900000000  0.5349520000000  0.5415910000000 1.0
C      1  0.4783840000000  0.4109480000000  0.4543870000000 1.0
C      1  0.4975260000000  0.5306100000000  0.5789670000000 1.0
C      1  0.4512920000000  0.5642730000000  0.4330130000000 1.0
C      1  0.4693570000000  0.4832450000000  0.6003160000000 1.0
C      1  0.5585970000000  0.5949730000000  0.4550270000000 1.0
C      1  0.4911030000000  0.4038800000000  0.5393610000000 1.0
C      1  0.4289890000000  0.5228270000000  0.5661890000000 1.0
C      1  0.4688570000000  0.4365450000000  0.5799390000000 1.0
C      1  0.5149740000000  0.5668090000000  0.4300870000000 1.0
C      1  0.4885700000000  0.4311170000000  0.4304480000000 1.0
C      1  0.4601790000000  0.5231720000000  0.4658530000000 1.0
C      1  0.6049650000000  0.4863350000000  0.5082340000000 1.0
C      1  0.4241190000000  0.5006910000000  0.4405740000000 1.0
C      1  0.5757310000000  0.5437890000000  0.5847600000000 1.0
C      1  0.4780620000000  0.6071810000000  0.4949300000000 1.0
C      1  0.5789440000000  0.4529580000000  0.4263540000000 1.0
C      1  0.4757790000000  0.3887510000000  0.4785870000000 1.0
C      1  0.5559940000000  0.4885220000000  0.4331110000000 1.0
C      1  0.4258930000000  0.4774790000000  0.4619930000000 1.0
C      1  0.4391350000000  0.4134770000000  0.5377830000000 1.0
C      1  0.4334410000000  0.4526410000000  0.5044000000000 1.0
C      1  0.4655300000000  0.4244940000000  0.5411460000000 1.0
C      1  0.5720100000000  0.5713080000000  0.5710830000000 1.0
C      1  0.4912830000000  0.4929990000000  0.5104400000000 1.0
C      1  0.5428090000000  0.5543080000000  0.4807150000000 1.0
C      1  0.6028270000000  0.5305210000000  0.4722920000000 1.0
C      1  0.5085740000000  0.4524750000000  0.5346430000000 1.0
C      1  0.5276460000000  0.6147500000000  0.5266740000000 1.0
C      1  0.5194160000000  0.5261730000000  0.5427870000000 1.0
C      1  0.4032290000000  0.4312740000000  0.4654170000000 1.0
C      1  0.4700220000000  0.5142230000000  0.4968990000000 1.0
C      1  0.4115660000000  0.5604210000000  0.5005480000000 1.0
C      1  0.3904380000000  0.4801860000000  0.4884330000000 1.0
C      1  0.4944710000000  0.5147900000000  0.4183290000000 1.0
C      1  0.5284240000000  0.5625370000000  0.5108050000000 1.0
C      1  0.5324140000000  0.4286010000000  0.4516370000000 1.0
C      1  0.5307850000000  0.6156670000000  0.4989280000000 1.0
C      1  0.4777430000000  0.5787200000000  0.5120980000000 1.0
C      1  0.5771930000000  0.4493450000000  0.5576070000000 1.0
C      1  0.5010490000000  0.5014380000000  0.5694720000000 1.0
C      1  0.5359020000000  0.4971830000000  0.5507260000000 1.0
C      1  0.4903930000000  0.5292800000000  0.4639750000000 1.0
C      1  0.4784870000000  0.4700760000000  0.4037800000000 1.0
C      1  0.4936190000000  0.5234220000000  0.6180320000000 1.0
C      1  0.4723890000000  0.5782470000000  0.4525500000000 1.0
C      1  0.4075100000000  0.5065840000000  0.5518320000000 1.0
C      1  0.5179610000000  0.4276960000000  0.4239320000000 1.0
C      1  0.4807240000000  0.4647370000000  0.5005070000000 1.0
C      1  0.4538110000000  0.5610620000000  0.4952170000000 1.0
C      1  0.5543450000000  0.5684270000000  0.4362640000000 1.0
C      1  0.4435050000000  0.4485480000000  0.4241960000000 1.0
C      1  0.5022600000000  0.4312500000000  0.4677510000000 1.0
C      1  0.5197320000000  0.4009620000000  0.5270680000000 1.0
C      1  0.4032630000000  0.4764620000000  0.4294990000000 1.0
C      1  0.5425000000000  0.4665900000000  0.4885380000000 1.0
C      1  0.5704160000000  0.5663970000000  0.4107940000000 1.0
C      1  0.4446070000000  0.5504500000000  0.5644900000000 1.0
C      1  0.4510360000000  0.4367750000000  0.4817920000000 1.0
C      1  0.6048750000000  0.4884710000000  0.4507720000000 1.0
C      1  0.5297840000000  0.4030840000000  0.4736250000000 1.0
C      1  0.5926530000000  0.4979680000000  0.5922770000000 1.0
C      1  0.5963050000000  0.5628170000000  0.5405340000000 1.0
C      1  0.4951480000000  0.4829750000000  0.4681680000000 1.0
C      1  0.5041750000000  0.4427200000000  0.5057480000000 1.0
C      1  0.5172150000000  0.4907280000000  0.5943180000000 1.0
C      1  0.5339330000000  0.4681690000000  0.5685350000000 1.0
C      1  0.5740710000000  0.4363000000000  0.4518730000000 1.0
C      1  0.3930350000000  0.5083540000000  0.4937380000000 1.0
C      1  0.5236110000000  0.3964030000000  0.4965760000000 1.0
C      1  0.5434750000000  0.4609740000000  0.4492820000000 1.0
C      1  0.4831420000000  0.5681170000000  0.4217610000000 1.0
C      1  0.6001590000000  0.4950840000000  0.5648860000000 1.0
C      1  0.5380280000000  0.4951350000000  0.3981350000000 1.0
C      1  0.4453030000000  0.5998940000000  0.5031760000000 1.0
C      1  0.4253020000000  0.4194230000000  0.4476380000000 1.0
C      1  0.4726010000000  0.3990720000000  0.5111710000000 1.0
C      1  0.4910500000000  0.4183880000000  0.5704890000000 1.0
C      1  0.5973630000000  0.4761690000000  0.4768740000000 1.0
C      1  0.5078370000000  0.5096150000000  0.4781990000000 1.0
C      1  0.6010170000000  0.4543390000000  0.5017140000000 1.0
C      1  0.4165800000000  0.5338080000000  0.4146740000000 1.0
C      1  0.5448250000000  0.5474990000000  0.5328290000000 1.0
C      1  0.5609560000000  0.4266650000000  0.4794050000000 1.0
C      1  0.5301340000000  0.5926590000000  0.4390050000000 1.0
C      1  0.4763030000000  0.4917710000000  0.4321100000000 1.0
C      1  0.5575860000000  0.4461140000000  0.5778440000000 1.0
C      1  0.5947090000000  0.5152850000000  0.4499700000000 1.0
C      1  0.5498390000000  0.4188300000000  0.5166150000000 1.0
C      1  0.6055230000000  0.5175940000000  0.5482690000000 1.0
C      1  0.4604800000000  0.5863010000000  0.4768270000000 1.0
C      1  0.4522340000000  0.5402880000000  0.5213550000000 1.0
C      1  0.4142870000000  0.4308060000000  0.5443890000000 1.0
C      1  0.4793180000000  0.4257810000000  0.4920620000000 1.0
C      1  0.5213220000000  0.5809820000000  0.4781280000000 1.0
C      1  0.4513880000000  0.4911770000000  0.5746360000000 1.0
C      1  0.5553200000000  0.4665170000000  0.4076850000000 1.0
C      1  0.4609240000000  0.4722910000000  0.5257060000000 1.0
C      1  0.4262060000000  0.4675280000000  0.4112230000000 1.0
C      1  0.4302030000000  0.4706040000000  0.5709910000000 1.0
C      1  0.5031720000000  0.6083990000000  0.5460970000000 1.0
C      1  0.4044250000000  0.5357090000000  0.4780410000000 1.0
C      1  0.3940510000000  0.4614170000000  0.5100980000000 1.0
C      1  0.4779880000000  0.4525320000000  0.5445170000000 1.0
C      1  0.5411430000000  0.4221480000000  0.5764160000000 1.0
C      1  0.5163010000000  0.4746050000000  0.4087540000000 1.0
C      1  0.4979450000000  0.5587980000000  0.4576750000000 1.0
C      1  0.4152770000000  0.4067480000000  0.4895280000000 1.0
C      1  0.4442950000000  0.5237810000000  0.5966350000000 1.0
C      1  0.4286940000000  0.5817370000000  0.5183600000000 1.0
C      1  0.4469610000000  0.4047820000000  0.4814420000000 1.0
C      1  0.4432080000000  0.5357930000000  0.4437750000000 1.0
C      1  0.5738040000000  0.5157290000000  0.5997760000000 1.0
C      1  0.4682900000000  0.5120550000000  0.6083290000000 1.0
C      1  0.6034900000000  0.5329030000000  0.5002400000000 1.0
C      1  0.5609500000000  0.4556920000000  0.5274390000000 1.0
C      1  0.5696830000000  0.4643150000000  0.4710310000000 1.0
C      1  0.4683620000000  0.4450440000000  0.4113760000000 1.0
C      1  0.4885990000000  0.5832940000000  0.5623450000000 1.0
C      1  0.6016480000000  0.4705230000000  0.4289380000000 1.0
C      1  0.4637670000000  0.4737580000000  0.4742470000000 1.0
C      1  0.4781420000000  0.5405630000000  0.4046950000000 1.0
C      1  0.5027700000000  0.5553190000000  0.4914660000000 1.0
C      1  0.3987110000000  0.4579910000000  0.5383160000000 1.0
C      1  0.4854730000000  0.4623770000000  0.4428340000000 1.0
C      1  0.5420930000000  0.4117600000000  0.5475480000000 1.0
C      1  0.5761080000000  0.4380910000000  0.5066450000000 1.0
C      1  0.5116600000000  0.5472630000000  0.4035700000000 1.0
C      1  0.4772200000000  0.4811390000000  0.5612510000000 1.0
C      1  0.4751920000000  0.5001750000000  0.3936210000000 1.0
C      1  0.5957910000000  0.5827990000000  0.4936990000000 1.0
C      1  0.5197720000000  0.5743030000000  0.5598740000000 1.0
C      1  0.4945430000000  0.5635570000000  0.5886690000000 1.0
C      1  0.5148550000000  0.5138250000000  0.5114060000000 1.0
C      1  0.5050070000000  0.6105480000000  0.4822180000000 1.0
C      1  0.4594680000000  0.5155870000000  0.5517700000000 1.0
C      1  0.4352830000000  0.4813730000000  0.4911650000000 1.0
C      1  0.5323250000000  0.4363830000000  0.4956400000000 1.0
C      1  0.5854590000000  0.4766530000000  0.5503850000000 1.0
C      1  0.5668180000000  0.5036280000000  0.4761620000000 1.0
C      1  0.5964510000000  0.5423530000000  0.5585270000000 1.0
C      1  0.5447750000000  0.5327170000000  0.5941030000000 1.0
C      1  0.4549220000000  0.5008580000000  0.5245090000000 1.0
C      1  0.4222920000000  0.5425300000000  0.5224740000000 1.0
C      1  0.4732940000000  0.5667650000000  0.5419830000000 1.0
C      1  0.5016640000000  0.4843920000000  0.5396820000000 1.0
C      1  0.4687350000000  0.5486980000000  0.5773060000000 1.0
C      1  0.5252740000000  0.5458730000000  0.5709840000000 1.0
C      1  0.4383080000000  0.3960430000000  0.5124470000000 1.0
C      1  0.5622870000000  0.5421240000000  0.5061230000000 1.0
C      1  0.3964230000000  0.4629100000000  0.4599710000000 1.0
C      1  0.4494460000000  0.5319350000000  0.4099890000000 1.0
C      1  0.4382800000000  0.4532020000000  0.5359030000000 1.0
C      1  0.5305010000000  0.5217770000000  0.4027310000000 1.0
C      1  0.5116080000000  0.6112620000000  0.4504830000000 1.0
C      1  0.4065400000000  0.4362050000000  0.4972170000000 1.0
C      1  0.4809100000000  0.4580460000000  0.5962800000000 1.0
C      1  0.5157610000000  0.4604010000000  0.4685430000000 1.0
C      1  0.5147860000000  0.4277710000000  0.5838160000000 1.0
C      1  0.5202970000000  0.5164130000000  0.6085930000000 1.0
C      1  0.5902540000000  0.5584710000000  0.5108550000000 1.0
C      1  0.4078490000000  0.4787410000000  0.5560110000000 1.0
C      1  0.5234540000000  0.4925620000000  0.4355060000000 1.0
C      1  0.4435100000000  0.4437770000000  0.5681950000000 1.0
C      1  0.5468940000000  0.5411610000000  0.4500060000000 1.0
C      1  0.5283270000000  0.4469480000000  0.4062500000000 1.0
C      1  0.4313780000000  0.5081480000000  0.5046760000000 1.0
C      1  0.4485920000000  0.4134110000000  0.4425160000000 1.0
C      1  0.4479990000000  0.5022080000000  0.4228050000000 1.0
C      1  0.6070650000000  0.5118780000000  0.5191700000000 1.0
C      1  0.5577320000000  0.5715920000000  0.5481950000000 1.0
C      1  0.5372620000000  0.4951090000000  0.5008950000000 1.0
C      1  0.4843500000000  0.5395700000000  0.5088680000000 1.0
C      1  0.4054470000000  0.5155970000000  0.5235690000000 1.0
C      1  0.5367310000000  0.4991810000000  0.4661540000000 1.0
C      1  0.4111400000000  0.5302050000000  0.4478430000000 1.0
C      1  0.5681620000000  0.5169560000000  0.4390540000000 1.0
C      1  0.4459650000000  0.4530850000000  0.4539340000000 1.0
C      1  0.4436690000000  0.4872230000000  0.3941890000000 1.0
C      1  0.4367580000000  0.5332460000000  0.4856380000000 1.0
C      1  0.5530690000000  0.6096780000000  0.4847040000000 1.0
END
