TITL C-2778428-5639-116 0.00214093921358923 125000 -307.343335198006 0 0 52 (C1) n - 1
REM
REM in /home/nfs/bkarasulu/CARBON/AIRSS/Generating-Clusters/REBO/Only-C1/SD-CG/HFTN-CG
REM
REM
REM
REM
REM
REM ./C.cell (11c1c37f851c82e70ff6c80c92926a4b)
REM
REM compiler GCC version 9.2.1 20190827 (Red Hat 9.2.1-1)
REM options -cpp -mtune=generic -march=x86-64 -g -O0 -fpre-include=/usr/include/finclude/math-vector-fortran.h
REM seed -411369182 -1295344356 -1046645710 955157966 1093335786 1089145397 1239963248 141420479 455625206 -1240466076 -1462238010 -163496534 -1048593106 -120248247 2122394253 288185146 1856453993 1982294779 -752648939 708275677 -363476911 -335660535 587946230 1209915636 543360814 -1897696566 -249989355 782669979 1481203317 -1353160350 330829544 -475584970 1009575266
REM
CELL 1.54180   50.00000   50.00000   50.00000   90.00000   90.00000   90.00000
LATT -1
SFAC C  
C      1  0.4731340000000  0.4714510000000  0.5425210000000 1.0
C      1  0.5722350000000  0.4960910000000  0.5153650000000 1.0
C      1  0.4931230000000  0.4874530000000  0.4426540000000 1.0
C      1  0.5352500000000  0.5143310000000  0.5545760000000 1.0
C      1  0.4600220000000  0.5190470000000  0.5593540000000 1.0
C      1  0.5105720000000  0.5449440000000  0.4500020000000 1.0
C      1  0.5713320000000  0.4696340000000  0.4998910000000 1.0
C      1  0.5698570000000  0.4442260000000  0.4837620000000 1.0
C      1  0.5155580000000  0.4405410000000  0.5186730000000 1.0
C      1  0.4900560000000  0.5061320000000  0.5525380000000 1.0
C      1  0.4851020000000  0.4910850000000  0.4965240000000 1.0
C      1  0.5428690000000  0.4690950000000  0.5133790000000 1.0
C      1  0.4501660000000  0.4879520000000  0.5511210000000 1.0
C      1  0.4768380000000  0.5513350000000  0.4472980000000 1.0
C      1  0.5238410000000  0.5390830000000  0.5225630000000 1.0
C      1  0.4970050000000  0.4885370000000  0.5242430000000 1.0
C      1  0.4657440000000  0.5558800000000  0.5265440000000 1.0
C      1  0.4509380000000  0.5461700000000  0.5033580000000 1.0
C      1  0.5164150000000  0.5556920000000  0.5007860000000 1.0
C      1  0.5269750000000  0.4901620000000  0.5192930000000 1.0
C      1  0.4343710000000  0.4899670000000  0.5006620000000 1.0
C      1  0.5007940000000  0.4751180000000  0.5615110000000 1.0
C      1  0.4523000000000  0.4686660000000  0.4932680000000 1.0
C      1  0.5597000000000  0.4961400000000  0.5414460000000 1.0
C      1  0.4926690000000  0.4454000000000  0.5027090000000 1.0
C      1  0.5406480000000  0.4398470000000  0.4697660000000 1.0
C      1  0.4577810000000  0.5366270000000  0.4279110000000 1.0
C      1  0.5383680000000  0.4978230000000  0.4409440000000 1.0
C      1  0.5621060000000  0.5191250000000  0.4969780000000 1.0
C      1  0.4884610000000  0.5308700000000  0.4702990000000 1.0
C      1  0.5554210000000  0.5340840000000  0.4735360000000 1.0
C      1  0.4605070000000  0.4904470000000  0.4460850000000 1.0
C      1  0.5181420000000  0.4532000000000  0.4593250000000 1.0
C      1  0.5188280000000  0.4773340000000  0.4436820000000 1.0
C      1  0.5311990000000  0.5532400000000  0.4758420000000 1.0
C      1  0.5339720000000  0.4805860000000  0.5574380000000 1.0
C      1  0.4669880000000  0.4660430000000  0.4681740000000 1.0
C      1  0.5375990000000  0.5159220000000  0.5146980000000 1.0
C      1  0.5382420000000  0.5251400000000  0.4488100000000 1.0
C      1  0.4776240000000  0.5434640000000  0.5478990000000 1.0
C      1  0.4923860000000  0.4512090000000  0.4736260000000 1.0
C      1  0.4614640000000  0.5589250000000  0.4768540000000 1.0
C      1  0.4255350000000  0.4892710000000  0.5299440000000 1.0
C      1  0.4491140000000  0.5130600000000  0.4290340000000 1.0
C      1  0.4693460000000  0.4575200000000  0.5144180000000 1.0
C      1  0.4369560000000  0.5215580000000  0.5096800000000 1.0
C      1  0.4888700000000  0.5540990000000  0.4940380000000 1.0
C      1  0.4321640000000  0.5189490000000  0.5422380000000 1.0
C      1  0.5188240000000  0.4538820000000  0.5431120000000 1.0
C      1  0.4818480000000  0.5031010000000  0.4696090000000 1.0
C      1  0.5419090000000  0.4368690000000  0.5026970000000 1.0
C      1  0.5088270000000  0.5336710000000  0.5493220000000 1.0
END
