TITL C-2778428-5639-254 0.00219679565951078 125000 -826.956350509354 0 0 143 (C1) n - 1
REM
REM in /home/nfs/bkarasulu/CARBON/AIRSS/Generating-Clusters/REBO/Only-C1/SD-CG/HFTN-CG
REM
REM
REM
REM
REM
REM ./C.cell (11c1c37f851c82e70ff6c80c92926a4b)
REM
REM compiler GCC version 9.2.1 20190827 (Red Hat 9.2.1-1)
REM options -cpp -mtune=generic -march=x86-64 -g -O0 -fpre-include=/usr/include/finclude/math-vector-fortran.h
REM seed 204840042 614125640 -1255739625 -158024226 -940925035 1795386056 -1808988601 1141613050 -1287694343 434471333 -1078693090 -423970718 -1999222013 1759619696 -228100877 1759919250 1364023608 288691496 1066993416 -1469463895 -424604261 2100883540 1698063420 -1161723933 -1351967566 -285559015 1673754541 -1617072983 -1048157230 1611628373 -186203970 -1130714494 2076266937
REM
CELL 1.54180   50.00000   50.00000   50.00000   90.00000   90.00000   90.00000
LATT -1
SFAC C  
C      1  0.5020700000000  0.5170370000000  0.4716400000000 1.0
C      1  0.4319610000000  0.5483340000000  0.4743870000000 1.0
C      1  0.5166330000000  0.4455170000000  0.5326810000000 1.0
C      1  0.4730490000000  0.4771780000000  0.4946560000000 1.0
C      1  0.4483390000000  0.5083620000000  0.5123730000000 1.0
C      1  0.5776020000000  0.4933660000000  0.5117370000000 1.0
C      1  0.4671190000000  0.5284430000000  0.4480250000000 1.0
C      1  0.4232150000000  0.4887010000000  0.5433050000000 1.0
C      1  0.5193100000000  0.5854930000000  0.5360110000000 1.0
C      1  0.5237520000000  0.4413930000000  0.4991980000000 1.0
C      1  0.4864180000000  0.4457590000000  0.4668780000000 1.0
C      1  0.5480150000000  0.5783210000000  0.4670990000000 1.0
C      1  0.5244020000000  0.5611900000000  0.4491740000000 1.0
C      1  0.4913030000000  0.4631870000000  0.4041020000000 1.0
C      1  0.5935620000000  0.5306660000000  0.4597920000000 1.0
C      1  0.4528770000000  0.4925780000000  0.5486050000000 1.0
C      1  0.4349950000000  0.5027360000000  0.4897930000000 1.0
C      1  0.4688040000000  0.4677160000000  0.4560600000000 1.0
C      1  0.3920310000000  0.4913920000000  0.5085740000000 1.0
C      1  0.5278010000000  0.4363690000000  0.4273890000000 1.0
C      1  0.4810800000000  0.4367350000000  0.4176450000000 1.0
C      1  0.5315030000000  0.4831780000000  0.4386660000000 1.0
C      1  0.4514380000000  0.5678180000000  0.5664180000000 1.0
C      1  0.4064700000000  0.5102250000000  0.4514050000000 1.0
C      1  0.4678500000000  0.4175240000000  0.4625330000000 1.0
C      1  0.5165770000000  0.5037090000000  0.5529510000000 1.0
C      1  0.4576900000000  0.5427580000000  0.4917850000000 1.0
C      1  0.4591610000000  0.4597590000000  0.4266870000000 1.0
C      1  0.5220500000000  0.4260930000000  0.4729870000000 1.0
C      1  0.5250280000000  0.4774080000000  0.4776150000000 1.0
C      1  0.4479690000000  0.4120750000000  0.5239460000000 1.0
C      1  0.5362380000000  0.4795010000000  0.5990710000000 1.0
C      1  0.5056630000000  0.5545170000000  0.5011850000000 1.0
C      1  0.4425330000000  0.4637410000000  0.4878120000000 1.0
C      1  0.4252560000000  0.5535550000000  0.5534260000000 1.0
C      1  0.5877290000000  0.4486210000000  0.4927350000000 1.0
C      1  0.5572520000000  0.4500560000000  0.5381450000000 1.0
C      1  0.5119610000000  0.6018620000000  0.4884800000000 1.0
C      1  0.4213370000000  0.4267710000000  0.5366020000000 1.0
C      1  0.5514380000000  0.4836870000000  0.5402700000000 1.0
C      1  0.5313610000000  0.4024130000000  0.5446600000000 1.0
C      1  0.4481460000000  0.4471040000000  0.5431330000000 1.0
C      1  0.5923450000000  0.5196090000000  0.5175370000000 1.0
C      1  0.4172280000000  0.5486420000000  0.5248640000000 1.0
C      1  0.4834550000000  0.5336440000000  0.5080080000000 1.0
C      1  0.5385940000000  0.5735270000000  0.5864870000000 1.0
C      1  0.5057600000000  0.4426090000000  0.5708050000000 1.0
C      1  0.4437570000000  0.5606270000000  0.4447250000000 1.0
C      1  0.4604600000000  0.5067780000000  0.5852090000000 1.0
C      1  0.5511610000000  0.4306340000000  0.5126870000000 1.0
C      1  0.5755530000000  0.4827010000000  0.4733430000000 1.0
C      1  0.5595900000000  0.4369720000000  0.4809770000000 1.0
C      1  0.5120460000000  0.4603960000000  0.4550770000000 1.0
C      1  0.4788050000000  0.4350790000000  0.4965880000000 1.0
C      1  0.5002070000000  0.5836190000000  0.5104060000000 1.0
C      1  0.4738820000000  0.4172050000000  0.5414180000000 1.0
C      1  0.5199760000000  0.5106030000000  0.4462360000000 1.0
C      1  0.5021040000000  0.4225430000000  0.4306970000000 1.0
C      1  0.4085240000000  0.5439410000000  0.4975290000000 1.0
C      1  0.4906830000000  0.5235220000000  0.5543850000000 1.0
C      1  0.4572300000000  0.4097010000000  0.4921010000000 1.0
C      1  0.4298260000000  0.4265400000000  0.4978920000000 1.0
C      1  0.5050850000000  0.4688600000000  0.5026170000000 1.0
C      1  0.4661820000000  0.4562180000000  0.5200760000000 1.0
C      1  0.5141040000000  0.5549930000000  0.5491470000000 1.0
C      1  0.4452710000000  0.5351110000000  0.5741290000000 1.0
C      1  0.4902580000000  0.5200830000000  0.5953820000000 1.0
C      1  0.5631680000000  0.4902930000000  0.4343610000000 1.0
C      1  0.6081110000000  0.4620690000000  0.5378770000000 1.0
C      1  0.4964720000000  0.4227130000000  0.5212200000000 1.0
C      1  0.5346640000000  0.5045760000000  0.5783250000000 1.0
C      1  0.5394620000000  0.5939620000000  0.4902210000000 1.0
C      1  0.5178270000000  0.5070080000000  0.6053810000000 1.0
C      1  0.5318580000000  0.4047430000000  0.5162860000000 1.0
C      1  0.5224320000000  0.4648000000000  0.4122280000000 1.0
C      1  0.4840320000000  0.5509590000000  0.5345750000000 1.0
C      1  0.5732310000000  0.5609380000000  0.4758980000000 1.0
C      1  0.5365330000000  0.4750660000000  0.5151740000000 1.0
C      1  0.5110560000000  0.4724900000000  0.5794870000000 1.0
C      1  0.5710760000000  0.5113370000000  0.4764430000000 1.0
C      1  0.5687670000000  0.5753280000000  0.5283690000000 1.0
C      1  0.5628420000000  0.5414290000000  0.5018390000000 1.0
C      1  0.4843380000000  0.5079860000000  0.4286820000000 1.0
C      1  0.5102270000000  0.5742740000000  0.5837850000000 1.0
C      1  0.4675950000000  0.4869400000000  0.4097530000000 1.0
C      1  0.4878040000000  0.5747690000000  0.4570130000000 1.0
C      1  0.5300590000000  0.5301620000000  0.5391470000000 1.0
C      1  0.4318500000000  0.4592160000000  0.4439730000000 1.0
C      1  0.4473740000000  0.5382110000000  0.5239680000000 1.0
C      1  0.5429330000000  0.4335910000000  0.4519280000000 1.0
C      1  0.4815250000000  0.4833310000000  0.5327140000000 1.0
C      1  0.4626290000000  0.4740210000000  0.5732510000000 1.0
C      1  0.5230850000000  0.5359780000000  0.4277430000000 1.0
C      1  0.4599100000000  0.5222740000000  0.5485140000000 1.0
C      1  0.5543460000000  0.5374820000000  0.4630520000000 1.0
C      1  0.4943910000000  0.5537800000000  0.4321990000000 1.0
C      1  0.4110100000000  0.4475340000000  0.5107070000000 1.0
C      1  0.5076200000000  0.4052170000000  0.4941120000000 1.0
C      1  0.5457340000000  0.5133510000000  0.4159950000000 1.0
C      1  0.5334900000000  0.5446660000000  0.5128520000000 1.0
C      1  0.4983640000000  0.5456280000000  0.5785720000000 1.0
C      1  0.5251110000000  0.4957990000000  0.4013340000000 1.0
C      1  0.5498280000000  0.5101720000000  0.5016580000000 1.0
C      1  0.4039630000000  0.5029880000000  0.5305380000000 1.0
C      1  0.5867530000000  0.4721870000000  0.4433890000000 1.0
C      1  0.4478400000000  0.5140860000000  0.4162280000000 1.0
C      1  0.4853060000000  0.4946630000000  0.4578100000000 1.0
C      1  0.5733310000000  0.5565210000000  0.5492940000000 1.0
C      1  0.4730130000000  0.4426720000000  0.5642570000000 1.0
C      1  0.5001720000000  0.5083820000000  0.4011380000000 1.0
C      1  0.5535020000000  0.4679980000000  0.4864300000000 1.0
C      1  0.4835000000000  0.5438370000000  0.4696030000000 1.0
C      1  0.4183020000000  0.4597860000000  0.5415360000000 1.0
C      1  0.4101990000000  0.5163710000000  0.4837160000000 1.0
C      1  0.4094690000000  0.4720130000000  0.4905510000000 1.0
C      1  0.4416680000000  0.4371680000000  0.4677080000000 1.0
C      1  0.5280650000000  0.5461960000000  0.4790960000000 1.0
C      1  0.4705980000000  0.5796840000000  0.5216330000000 1.0
C      1  0.4528490000000  0.4951980000000  0.4654670000000 1.0
C      1  0.4979530000000  0.4079910000000  0.4611510000000 1.0
C      1  0.5949400000000  0.5400640000000  0.4921950000000 1.0
C      1  0.4373080000000  0.5228820000000  0.4553980000000 1.0
C      1  0.5458830000000  0.5877950000000  0.5178720000000 1.0
C      1  0.4986580000000  0.5894820000000  0.5617590000000 1.0
C      1  0.5200450000000  0.5050660000000  0.4951600000000 1.0
C      1  0.4629640000000  0.5446210000000  0.4213420000000 1.0
C      1  0.5689770000000  0.5224700000000  0.4381360000000 1.0
C      1  0.5828170000000  0.4638600000000  0.5201450000000 1.0
C      1  0.4873540000000  0.4867070000000  0.5894920000000 1.0
C      1  0.4584720000000  0.5769630000000  0.4669180000000 1.0
C      1  0.4281300000000  0.4916030000000  0.4326820000000 1.0
C      1  0.6289720000000  0.4605920000000  0.5525010000000 1.0
C      1  0.5013180000000  0.6005280000000  0.4636880000000 1.0
C      1  0.4891210000000  0.5047050000000  0.5073770000000 1.0
C      1  0.5549750000000  0.5113400000000  0.5448170000000 1.0
C      1  0.5345340000000  0.4318960000000  0.5561940000000 1.0
C      1  0.5607430000000  0.5635510000000  0.5739370000000 1.0
C      1  0.5084960000000  0.4731370000000  0.5453440000000 1.0
C      1  0.4711680000000  0.5834160000000  0.5538300000000 1.0
C      1  0.4106370000000  0.4782610000000  0.4599130000000 1.0
C      1  0.4549860000000  0.5825450000000  0.4936840000000 1.0
C      1  0.5781910000000  0.5288480000000  0.5413280000000 1.0
C      1  0.6029980000000  0.4628300000000  0.4701490000000 1.0
END
