TITL C-2778423-5760-394 -0.0381630918541097 125000 -173.211777771018 0 0 33 (C1) n - 1
REM
REM in /home/nfs/bkarasulu/CARBON/AIRSS/Generating-Clusters/REBO/Only-C1/SD-CG/HFTN-CG
REM
REM
REM
REM
REM
REM ./C.cell (11c1c37f851c82e70ff6c80c92926a4b)
REM
REM compiler GCC version 9.2.1 20190827 (Red Hat 9.2.1-1)
REM options -cpp -mtune=generic -march=x86-64 -g -O0 -fpre-include=/usr/include/finclude/math-vector-fortran.h
REM seed 1534767262 718778558 846685091 -1774413560 447708824 -2132627221 -1341571400 -1524448250 -1271528597 667230664 -1811913830 636081229 1374172503 -623357144 -942147283 39185123 1627608537 -2058680494 2105501752 1133386589 2043954887 364084750 1442477239 -1479921578 -1331726533 -1921266358 -688357577 1826115442 -1005472608 680767448 53219410 75094396 -1726445697
REM
CELL 1.54180   50.00000   50.00000   50.00000   90.00000   90.00000   90.00000
LATT -1
SFAC C  
C      1  0.5376120000000  0.5038530000000  0.4966170000000 1.0
C      1  0.4945590000000  0.5187540000000  0.4691530000000 1.0
C      1  0.5151070000000  0.4496400000000  0.4725420000000 1.0
C      1  0.5395170000000  0.5350230000000  0.5159380000000 1.0
C      1  0.5546510000000  0.5072830000000  0.4247430000000 1.0
C      1  0.4773800000000  0.4584730000000  0.5144850000000 1.0
C      1  0.5001330000000  0.5027320000000  0.5598640000000 1.0
C      1  0.5401050000000  0.5055210000000  0.4456370000000 1.0
C      1  0.4383650000000  0.5056850000000  0.5223540000000 1.0
C      1  0.5415510000000  0.4544010000000  0.5125070000000 1.0
C      1  0.5879770000000  0.5284580000000  0.4905510000000 1.0
C      1  0.4535270000000  0.5191270000000  0.5420640000000 1.0
C      1  0.4918110000000  0.5445490000000  0.4647850000000 1.0
C      1  0.5492640000000  0.4870980000000  0.5641470000000 1.0
C      1  0.5287570000000  0.4940760000000  0.5473190000000 1.0
C      1  0.4444720000000  0.5074410000000  0.4936270000000 1.0
C      1  0.5334290000000  0.4403520000000  0.4904290000000 1.0
C      1  0.4587390000000  0.5454470000000  0.4945720000000 1.0
C      1  0.4707160000000  0.4984690000000  0.4738700000000 1.0
C      1  0.5228420000000  0.5034300000000  0.4704360000000 1.0
C      1  0.4958860000000  0.5106630000000  0.5133020000000 1.0
C      1  0.4924410000000  0.4749750000000  0.4385270000000 1.0
C      1  0.4466360000000  0.4771730000000  0.4824190000000 1.0
C      1  0.4769810000000  0.5283630000000  0.5037700000000 1.0
C      1  0.5280940000000  0.4819080000000  0.5170480000000 1.0
C      1  0.4407880000000  0.5622580000000  0.4855200000000 1.0
C      1  0.5184070000000  0.5189200000000  0.5282990000000 1.0
C      1  0.4763160000000  0.5141690000000  0.5558250000000 1.0
C      1  0.5632800000000  0.5239960000000  0.4990920000000 1.0
C      1  0.4342640000000  0.4770390000000  0.5274930000000 1.0
C      1  0.4495630000000  0.4616840000000  0.5077330000000 1.0
C      1  0.4991190000000  0.4791210000000  0.4706190000000 1.0
C      1  0.4977130000000  0.4799200000000  0.5047120000000 1.0
END
