TITL C-2778432-5617-680 -0.00493147404923845 125000 -743.79792420704 0 0 126 (C1) n - 1
REM
REM in /home/nfs/bkarasulu/CARBON/AIRSS/Generating-Clusters/REBO/Only-C1/SD-CG/HFTN-CG
REM
REM
REM
REM
REM
REM ./C.cell (11c1c37f851c82e70ff6c80c92926a4b)
REM
REM compiler GCC version 9.2.1 20190827 (Red Hat 9.2.1-1)
REM options -cpp -mtune=generic -march=x86-64 -g -O0 -fpre-include=/usr/include/finclude/math-vector-fortran.h
REM seed -825799690 1613417695 733358688 1218565676 -871454099 -338704743 -1918642070 1405033057 542464641 997460241 -279243215 -1441050193 1540334511 -23340208 -1236355473 -1364454811 -398027788 1393953946 -1838625709 -1873346131 -553841370 469784252 797871785 1088565497 215771083 -371628986 1434896647 2050953092 1926291217 162995934 -383799043 -1227929860 326579504
REM
CELL 1.54180   50.00000   50.00000   50.00000   90.00000   90.00000   90.00000
LATT -1
SFAC C  
C      1  0.4798420000000  0.4253490000000  0.4557520000000 1.0
C      1  0.4632930000000  0.5963460000000  0.4749970000000 1.0
C      1  0.5035350000000  0.5775700000000  0.4426550000000 1.0
C      1  0.4869210000000  0.6069660000000  0.4933370000000 1.0
C      1  0.4364690000000  0.5365030000000  0.4472850000000 1.0
C      1  0.5852480000000  0.5263000000000  0.5266180000000 1.0
C      1  0.4800430000000  0.4970890000000  0.6067100000000 1.0
C      1  0.4588850000000  0.5256150000000  0.4926640000000 1.0
C      1  0.4538880000000  0.4285560000000  0.4976730000000 1.0
C      1  0.4718060000000  0.4664030000000  0.5597200000000 1.0
C      1  0.5128020000000  0.4560950000000  0.4147320000000 1.0
C      1  0.4634770000000  0.5812320000000  0.5231390000000 1.0
C      1  0.4285870000000  0.4819750000000  0.5475670000000 1.0
C      1  0.4272950000000  0.5091440000000  0.5363980000000 1.0
C      1  0.5026270000000  0.5780100000000  0.5372030000000 1.0
C      1  0.5823910000000  0.4760530000000  0.4355920000000 1.0
C      1  0.4528460000000  0.4428840000000  0.4458510000000 1.0
C      1  0.4914770000000  0.5121090000000  0.5791530000000 1.0
C      1  0.5122340000000  0.4478470000000  0.4915670000000 1.0
C      1  0.4462410000000  0.3891970000000  0.5606430000000 1.0
C      1  0.5531920000000  0.5519890000000  0.5562500000000 1.0
C      1  0.5695630000000  0.4598810000000  0.5686810000000 1.0
C      1  0.3991190000000  0.5489920000000  0.4979560000000 1.0
C      1  0.4161610000000  0.5568380000000  0.5197590000000 1.0
C      1  0.4434180000000  0.5771300000000  0.4840880000000 1.0
C      1  0.4468550000000  0.4779490000000  0.5704590000000 1.0
C      1  0.4587730000000  0.5337490000000  0.4298200000000 1.0
C      1  0.4140390000000  0.5012470000000  0.4989420000000 1.0
C      1  0.5191550000000  0.4409970000000  0.5485640000000 1.0
C      1  0.5419580000000  0.4199920000000  0.5612260000000 1.0
C      1  0.4792620000000  0.5439190000000  0.5793850000000 1.0
C      1  0.4542150000000  0.5004410000000  0.5877770000000 1.0
C      1  0.4482330000000  0.5484060000000  0.4722080000000 1.0
C      1  0.4593510000000  0.4580120000000  0.4197440000000 1.0
C      1  0.4824810000000  0.5053210000000  0.4157420000000 1.0
C      1  0.5154890000000  0.5468960000000  0.5439500000000 1.0
C      1  0.5765680000000  0.5227850000000  0.4401410000000 1.0
C      1  0.4515020000000  0.4076040000000  0.5415290000000 1.0
C      1  0.5733910000000  0.4858270000000  0.5468540000000 1.0
C      1  0.5305240000000  0.5353300000000  0.4851300000000 1.0
C      1  0.5826710000000  0.4887440000000  0.4938390000000 1.0
C      1  0.4600670000000  0.4589430000000  0.4930480000000 1.0
C      1  0.5401360000000  0.4461210000000  0.4309440000000 1.0
C      1  0.5332620000000  0.4239800000000  0.4504420000000 1.0
C      1  0.4315080000000  0.4582140000000  0.5234030000000 1.0
C      1  0.5548100000000  0.4382700000000  0.5830160000000 1.0
C      1  0.4874580000000  0.4911910000000  0.5563810000000 1.0
C      1  0.4130470000000  0.5221640000000  0.4538630000000 1.0
C      1  0.5596690000000  0.5353970000000  0.5340990000000 1.0
C      1  0.4762380000000  0.5594180000000  0.4651920000000 1.0
C      1  0.5386390000000  0.5219040000000  0.5216350000000 1.0
C      1  0.4544290000000  0.5256370000000  0.5729940000000 1.0
C      1  0.4852100000000  0.4503640000000  0.4782330000000 1.0
C      1  0.5000820000000  0.5809390000000  0.4765560000000 1.0
C      1  0.5095760000000  0.4896650000000  0.4120930000000 1.0
C      1  0.4879270000000  0.4426960000000  0.4270620000000 1.0
C      1  0.5776730000000  0.5158100000000  0.4736850000000 1.0
C      1  0.5251630000000  0.4243380000000  0.4759650000000 1.0
C      1  0.4144030000000  0.4908430000000  0.4671920000000 1.0
C      1  0.4651480000000  0.5291190000000  0.5437120000000 1.0
C      1  0.4192050000000  0.5363150000000  0.5400040000000 1.0
C      1  0.4742540000000  0.5887720000000  0.4472850000000 1.0
C      1  0.5485160000000  0.5397180000000  0.5809570000000 1.0
C      1  0.4419690000000  0.4626310000000  0.4672430000000 1.0
C      1  0.5088560000000  0.5572580000000  0.4232460000000 1.0
C      1  0.4772250000000  0.4234200000000  0.5294990000000 1.0
C      1  0.4859560000000  0.5372130000000  0.5025810000000 1.0
C      1  0.5357460000000  0.5456250000000  0.4226210000000 1.0
C      1  0.4858900000000  0.5183220000000  0.4460400000000 1.0
C      1  0.4380920000000  0.4254060000000  0.5217030000000 1.0
C      1  0.5088220000000  0.4945760000000  0.5155290000000 1.0
C      1  0.5177190000000  0.4709850000000  0.5321500000000 1.0
C      1  0.5514210000000  0.4964030000000  0.4084040000000 1.0
C      1  0.5863620000000  0.4991070000000  0.5234940000000 1.0
C      1  0.5587190000000  0.4906650000000  0.5774770000000 1.0
C      1  0.4990780000000  0.4045960000000  0.5112760000000 1.0
C      1  0.5063220000000  0.5247990000000  0.5218640000000 1.0
C      1  0.5172660000000  0.5227800000000  0.4495940000000 1.0
C      1  0.5350180000000  0.5747210000000  0.5470860000000 1.0
C      1  0.5462340000000  0.5586020000000  0.4996100000000 1.0
C      1  0.5282680000000  0.4829640000000  0.4399900000000 1.0
C      1  0.4763680000000  0.4125590000000  0.4871650000000 1.0
C      1  0.5682860000000  0.5478870000000  0.4814150000000 1.0
C      1  0.4748460000000  0.5036360000000  0.5341740000000 1.0
C      1  0.5760840000000  0.5005900000000  0.4225220000000 1.0
C      1  0.4365670000000  0.5759650000000  0.5123830000000 1.0
C      1  0.5045400000000  0.4848810000000  0.4571540000000 1.0
C      1  0.4570370000000  0.4866020000000  0.4231620000000 1.0
C      1  0.5019250000000  0.4431740000000  0.5210330000000 1.0
C      1  0.5512470000000  0.4076720000000  0.5125300000000 1.0
C      1  0.5430970000000  0.4689770000000  0.4057230000000 1.0
C      1  0.5020670000000  0.5411870000000  0.4741890000000 1.0
C      1  0.5244500000000  0.4108980000000  0.5333040000000 1.0
C      1  0.5683840000000  0.5639230000000  0.4571790000000 1.0
C      1  0.4025460000000  0.5256880000000  0.4824460000000 1.0
C      1  0.5134830000000  0.5019860000000  0.6014000000000 1.0
C      1  0.5273810000000  0.4032510000000  0.4945350000000 1.0
C      1  0.5593560000000  0.4691630000000  0.4788840000000 1.0
C      1  0.5351270000000  0.5799510000000  0.5143790000000 1.0
C      1  0.4626290000000  0.5118470000000  0.4647230000000 1.0
C      1  0.4866160000000  0.5395550000000  0.4128250000000 1.0
C      1  0.5481440000000  0.4669470000000  0.5396340000000 1.0
C      1  0.5419560000000  0.5151730000000  0.5896700000000 1.0
C      1  0.4755960000000  0.5713200000000  0.5736460000000 1.0
C      1  0.5808110000000  0.4544550000000  0.4976370000000 1.0
C      1  0.4436550000000  0.5068320000000  0.5096080000000 1.0
C      1  0.5712150000000  0.4315940000000  0.5121930000000 1.0
C      1  0.5091400000000  0.5978820000000  0.5116030000000 1.0
C      1  0.4823460000000  0.5507110000000  0.5401680000000 1.0
C      1  0.4645770000000  0.4532560000000  0.5323480000000 1.0
C      1  0.5289430000000  0.5157290000000  0.4181070000000 1.0
C      1  0.4624050000000  0.4816130000000  0.5139310000000 1.0
C      1  0.5561870000000  0.4676320000000  0.4496740000000 1.0
C      1  0.5331140000000  0.4719530000000  0.4938070000000 1.0
C      1  0.5349650000000  0.4775860000000  0.5981580000000 1.0
C      1  0.4442950000000  0.4917620000000  0.4515410000000 1.0
C      1  0.4833860000000  0.5687090000000  0.5037430000000 1.0
C      1  0.5573690000000  0.4379110000000  0.5377200000000 1.0
C      1  0.5457430000000  0.5155180000000  0.4643460000000 1.0
C      1  0.5381320000000  0.4505430000000  0.6016050000000 1.0
C      1  0.4661610000000  0.5853050000000  0.5516270000000 1.0
C      1  0.5067790000000  0.4892620000000  0.4849900000000 1.0
C      1  0.4861060000000  0.4644150000000  0.4509950000000 1.0
C      1  0.5620050000000  0.5478150000000  0.4343440000000 1.0
C      1  0.5421060000000  0.5040320000000  0.4954870000000 1.0
C      1  0.4216170000000  0.4694670000000  0.4938230000000 1.0
END
