TITL C-2778436-5916-275 0.00120083928393513 125000 -1141.3698168376 0 0 195 (C1) n - 1
REM
REM in /home/nfs/bkarasulu/CARBON/AIRSS/Generating-Clusters/REBO/Only-C1/SD-CG/HFTN-CG
REM
REM
REM
REM
REM
REM ./C.cell (11c1c37f851c82e70ff6c80c92926a4b)
REM
REM compiler GCC version 9.2.1 20190827 (Red Hat 9.2.1-1)
REM options -cpp -mtune=generic -march=x86-64 -g -O0 -fpre-include=/usr/include/finclude/math-vector-fortran.h
REM seed 1688976783 -815185841 -1002901475 -1820042088 -1291892566 90449491 -606772398 -11725197 265950829 -1837878570 -396011564 -1576056930 212331760 -1431185971 -452465477 -850397257 -1286381833 595098441 -899460465 -223286489 -1627645629 424142584 1460036067 23045090 -496055926 1570849493 -1083686797 -780729676 306078709 413707605 -2010316771 -65327581 -807609461
REM
CELL 1.54180   50.00000   50.00000   50.00000   90.00000   90.00000   90.00000
LATT -1
SFAC C  
C      1  0.5365980000000  0.5305840000000  0.4560640000000 1.0
C      1  0.5604670000000  0.4613680000000  0.5504630000000 1.0
C      1  0.4518970000000  0.5346190000000  0.3949420000000 1.0
C      1  0.3894790000000  0.4500810000000  0.4997800000000 1.0
C      1  0.5313550000000  0.4251620000000  0.5882970000000 1.0
C      1  0.5077320000000  0.4938400000000  0.6272370000000 1.0
C      1  0.5065000000000  0.5073720000000  0.5963320000000 1.0
C      1  0.4997320000000  0.3926960000000  0.5339280000000 1.0
C      1  0.4982910000000  0.4159410000000  0.4136150000000 1.0
C      1  0.4681840000000  0.5128650000000  0.4919700000000 1.0
C      1  0.5017370000000  0.4222050000000  0.5196450000000 1.0
C      1  0.5663680000000  0.4440260000000  0.5858970000000 1.0
C      1  0.5231240000000  0.5704560000000  0.4604030000000 1.0
C      1  0.4965490000000  0.5560800000000  0.5968540000000 1.0
C      1  0.4701330000000  0.4031710000000  0.4629480000000 1.0
C      1  0.4044770000000  0.5699540000000  0.5178290000000 1.0
C      1  0.4996620000000  0.4067060000000  0.4621300000000 1.0
C      1  0.5114750000000  0.3813020000000  0.5064940000000 1.0
C      1  0.5049240000000  0.5381220000000  0.4003940000000 1.0
C      1  0.5061300000000  0.5183010000000  0.5158760000000 1.0
C      1  0.6040430000000  0.4750400000000  0.4944680000000 1.0
C      1  0.4439440000000  0.4628970000000  0.5927890000000 1.0
C      1  0.5498800000000  0.4150360000000  0.4700950000000 1.0
C      1  0.4598420000000  0.4480110000000  0.5666690000000 1.0
C      1  0.4966080000000  0.4799780000000  0.5803350000000 1.0
C      1  0.6007780000000  0.4940230000000  0.4700820000000 1.0
C      1  0.5116730000000  0.5364530000000  0.5415900000000 1.0
C      1  0.4751350000000  0.4216850000000  0.4898350000000 1.0
C      1  0.5354990000000  0.5210320000000  0.6007870000000 1.0
C      1  0.4982730000000  0.6172150000000  0.5197980000000 1.0
C      1  0.5943670000000  0.5464160000000  0.4392890000000 1.0
C      1  0.5422070000000  0.5060000000000  0.3874600000000 1.0
C      1  0.4515460000000  0.5702960000000  0.5001670000000 1.0
C      1  0.5778220000000  0.5363000000000  0.4895550000000 1.0
C      1  0.4886790000000  0.4973170000000  0.5364310000000 1.0
C      1  0.4211050000000  0.4552910000000  0.5729600000000 1.0
C      1  0.4995740000000  0.5375800000000  0.4911140000000 1.0
C      1  0.4044840000000  0.4972670000000  0.4837840000000 1.0
C      1  0.5206130000000  0.4690790000000  0.5585100000000 1.0
C      1  0.5485730000000  0.4334190000000  0.5398400000000 1.0
C      1  0.5305610000000  0.4938660000000  0.4418830000000 1.0
C      1  0.4983430000000  0.5919410000000  0.4182940000000 1.0
C      1  0.5718890000000  0.5147290000000  0.5854490000000 1.0
C      1  0.4052750000000  0.4419560000000  0.5537900000000 1.0
C      1  0.5671180000000  0.5764850000000  0.4668670000000 1.0
C      1  0.4391770000000  0.4098350000000  0.5024580000000 1.0
C      1  0.4724680000000  0.5987630000000  0.5291240000000 1.0
C      1  0.4970130000000  0.5044840000000  0.4198580000000 1.0
C      1  0.4506530000000  0.4434970000000  0.4527820000000 1.0
C      1  0.5956830000000  0.4993940000000  0.5665060000000 1.0
C      1  0.5244930000000  0.4994820000000  0.5491490000000 1.0
C      1  0.5916930000000  0.5524560000000  0.5123850000000 1.0
C      1  0.4072680000000  0.4356600000000  0.4772050000000 1.0
C      1  0.4963570000000  0.4801620000000  0.3966650000000 1.0
C      1  0.6128570000000  0.5172990000000  0.5537120000000 1.0
C      1  0.5451440000000  0.5703640000000  0.4342850000000 1.0
C      1  0.5342360000000  0.5677800000000  0.5126970000000 1.0
C      1  0.4835740000000  0.3896270000000  0.4977980000000 1.0
C      1  0.4750240000000  0.4704590000000  0.5483140000000 1.0
C      1  0.4835330000000  0.5693020000000  0.5241060000000 1.0
C      1  0.5775810000000  0.5694810000000  0.4397360000000 1.0
C      1  0.4350270000000  0.5065000000000  0.5306130000000 1.0
C      1  0.4376150000000  0.5389770000000  0.5308020000000 1.0
C      1  0.4716910000000  0.4347690000000  0.5186620000000 1.0
C      1  0.5612920000000  0.3945430000000  0.5133950000000 1.0
C      1  0.4310820000000  0.5136040000000  0.4077770000000 1.0
C      1  0.5402210000000  0.5290230000000  0.5569020000000 1.0
C      1  0.4783000000000  0.5359200000000  0.6022570000000 1.0
C      1  0.5427340000000  0.5709410000000  0.5758270000000 1.0
C      1  0.5386000000000  0.5125740000000  0.5209370000000 1.0
C      1  0.4743530000000  0.5484550000000  0.3941660000000 1.0
C      1  0.4423110000000  0.4055200000000  0.4737460000000 1.0
C      1  0.5538360000000  0.5495310000000  0.4751410000000 1.0
C      1  0.5747120000000  0.4626670000000  0.4994270000000 1.0
C      1  0.4323810000000  0.5770870000000  0.5214970000000 1.0
C      1  0.5006340000000  0.5173270000000  0.5666070000000 1.0
C      1  0.4764610000000  0.4338800000000  0.4112210000000 1.0
C      1  0.4944400000000  0.4988930000000  0.4831750000000 1.0
C      1  0.4904960000000  0.5733830000000  0.5714360000000 1.0
C      1  0.5531390000000  0.5941830000000  0.5101650000000 1.0
C      1  0.5717070000000  0.4564850000000  0.4534990000000 1.0
C      1  0.5989510000000  0.5815610000000  0.5003310000000 1.0
C      1  0.5551230000000  0.4427360000000  0.4306150000000 1.0
C      1  0.5136230000000  0.4537420000000  0.5945010000000 1.0
C      1  0.5176210000000  0.4574630000000  0.4030930000000 1.0
C      1  0.4160370000000  0.4720890000000  0.4459780000000 1.0
C      1  0.4977730000000  0.5705490000000  0.4002600000000 1.0
C      1  0.5519080000000  0.5317000000000  0.3925740000000 1.0
C      1  0.4589090000000  0.5927920000000  0.4806830000000 1.0
C      1  0.4925100000000  0.5014500000000  0.4514640000000 1.0
C      1  0.5753350000000  0.4984790000000  0.4210280000000 1.0
C      1  0.5893770000000  0.4422670000000  0.5305490000000 1.0
C      1  0.5660970000000  0.5648660000000  0.5554550000000 1.0
C      1  0.4059100000000  0.5429170000000  0.4446340000000 1.0
C      1  0.3912500000000  0.4815680000000  0.5079130000000 1.0
C      1  0.4511410000000  0.4257870000000  0.5423350000000 1.0
C      1  0.5254320000000  0.6094700000000  0.5008350000000 1.0
C      1  0.5499530000000  0.5146080000000  0.4286490000000 1.0
C      1  0.4669170000000  0.5467690000000  0.4942690000000 1.0
C      1  0.4618520000000  0.5210470000000  0.5786900000000 1.0
C      1  0.4782090000000  0.4222530000000  0.5703270000000 1.0
C      1  0.5268670000000  0.4765510000000  0.6116260000000 1.0
C      1  0.4746770000000  0.4650000000000  0.5176680000000 1.0
C      1  0.5757640000000  0.5917890000000  0.4887290000000 1.0
C      1  0.4733960000000  0.5968170000000  0.4291580000000 1.0
C      1  0.5495400000000  0.4921860000000  0.4884850000000 1.0
C      1  0.4860360000000  0.5311890000000  0.4613420000000 1.0
C      1  0.4359760000000  0.5017950000000  0.4913670000000 1.0
C      1  0.4670450000000  0.5139880000000  0.5229390000000 1.0
C      1  0.4743950000000  0.4494520000000  0.4363030000000 1.0
C      1  0.5300090000000  0.4755130000000  0.5098350000000 1.0
C      1  0.5191390000000  0.5834520000000  0.5596200000000 1.0
C      1  0.4371330000000  0.4793650000000  0.5571520000000 1.0
C      1  0.5395980000000  0.3961620000000  0.4950970000000 1.0
C      1  0.5580070000000  0.5451680000000  0.5929770000000 1.0
C      1  0.5836670000000  0.4259420000000  0.5116240000000 1.0
C      1  0.4113880000000  0.4902940000000  0.4219700000000 1.0
C      1  0.4276150000000  0.5335780000000  0.4689770000000 1.0
C      1  0.5058130000000  0.4322400000000  0.5703300000000 1.0
C      1  0.4594390000000  0.5468300000000  0.4486090000000 1.0
C      1  0.5013400000000  0.4751860000000  0.5021140000000 1.0
C      1  0.4904950000000  0.4495470000000  0.4844030000000 1.0
C      1  0.3935630000000  0.4610750000000  0.5360050000000 1.0
C      1  0.4302740000000  0.4806740000000  0.3981200000000 1.0
C      1  0.4833980000000  0.6153210000000  0.4717010000000 1.0
C      1  0.4343000000000  0.4621230000000  0.5277280000000 1.0
C      1  0.5120590000000  0.5080220000000  0.3892000000000 1.0
C      1  0.5138580000000  0.4119020000000  0.4377150000000 1.0
C      1  0.5261250000000  0.5048210000000  0.4723550000000 1.0
C      1  0.5707080000000  0.5220500000000  0.5275820000000 1.0
C      1  0.4260910000000  0.5101350000000  0.5915760000000 1.0
C      1  0.3954070000000  0.5217980000000  0.4669410000000 1.0
C      1  0.5888000000000  0.4804310000000  0.4448920000000 1.0
C      1  0.5394120000000  0.5455410000000  0.4191100000000 1.0
C      1  0.4790350000000  0.5434300000000  0.5630180000000 1.0
C      1  0.5243240000000  0.4459130000000  0.4837800000000 1.0
C      1  0.5922210000000  0.4912180000000  0.5206470000000 1.0
C      1  0.5557190000000  0.4220850000000  0.5696440000000 1.0
C      1  0.5168350000000  0.4398090000000  0.5414050000000 1.0
C      1  0.4128180000000  0.5029110000000  0.5634200000000 1.0
C      1  0.5117050000000  0.5314220000000  0.4330890000000 1.0
C      1  0.5474500000000  0.5445710000000  0.5265290000000 1.0
C      1  0.5566970000000  0.4851660000000  0.4006800000000 1.0
C      1  0.5229570000000  0.5959670000000  0.4381180000000 1.0
C      1  0.5240520000000  0.5551030000000  0.4867210000000 1.0
C      1  0.4693430000000  0.5447230000000  0.5340940000000 1.0
C      1  0.4205350000000  0.4195240000000  0.5443850000000 1.0
C      1  0.5481460000000  0.4697310000000  0.5785030000000 1.0
C      1  0.4607410000000  0.4612040000000  0.4767870000000 1.0
C      1  0.3985290000000  0.5415120000000  0.5244610000000 1.0
C      1  0.5975970000000  0.5265920000000  0.4667450000000 1.0
C      1  0.5601690000000  0.4798870000000  0.5249350000000 1.0
C      1  0.6030820000000  0.5302890000000  0.5320620000000 1.0
C      1  0.4648310000000  0.5837180000000  0.5561820000000 1.0
C      1  0.4600160000000  0.3964760000000  0.5167670000000 1.0
C      1  0.5512830000000  0.4932430000000  0.5974380000000 1.0
C      1  0.4262050000000  0.4448320000000  0.4305380000000 1.0
C      1  0.4630310000000  0.5761970000000  0.4521730000000 1.0
C      1  0.4489750000000  0.4763730000000  0.5022710000000 1.0
C      1  0.4245810000000  0.4240850000000  0.4570610000000 1.0
C      1  0.5145050000000  0.4166150000000  0.4885800000000 1.0
C      1  0.4714230000000  0.3991630000000  0.5482140000000 1.0
C      1  0.4326290000000  0.5366390000000  0.5703950000000 1.0
C      1  0.5462360000000  0.4646130000000  0.4720000000000 1.0
C      1  0.4680150000000  0.4787790000000  0.4099900000000 1.0
C      1  0.4043290000000  0.5323760000000  0.5514840000000 1.0
C      1  0.5165110000000  0.6085820000000  0.4695260000000 1.0
C      1  0.5120800000000  0.5658590000000  0.5338800000000 1.0
C      1  0.4202760000000  0.4373540000000  0.5089690000000 1.0
C      1  0.5914460000000  0.4715630000000  0.5480820000000 1.0
C      1  0.4067980000000  0.4912270000000  0.5341840000000 1.0
C      1  0.5238850000000  0.6040180000000  0.5350930000000 1.0
C      1  0.5470190000000  0.4591660000000  0.4082290000000 1.0
C      1  0.5168990000000  0.4718270000000  0.4312420000000 1.0
C      1  0.5732830000000  0.5341840000000  0.5582020000000 1.0
C      1  0.4434160000000  0.4825270000000  0.4566830000000 1.0
C      1  0.5259230000000  0.5530300000000  0.5994050000000 1.0
C      1  0.4398750000000  0.4893030000000  0.6032730000000 1.0
C      1  0.4325770000000  0.5383390000000  0.4295770000000 1.0
C      1  0.5729630000000  0.5748480000000  0.5298230000000 1.0
C      1  0.4902620000000  0.4705590000000  0.4421660000000 1.0
C      1  0.5993220000000  0.5130050000000  0.4353460000000 1.0
C      1  0.5770440000000  0.5041380000000  0.4926490000000 1.0
C      1  0.3982040000000  0.4675740000000  0.4711650000000 1.0
C      1  0.4214840000000  0.5305480000000  0.5020310000000 1.0
C      1  0.4597930000000  0.4945480000000  0.4305840000000 1.0
C      1  0.4401840000000  0.5648280000000  0.5524840000000 1.0
C      1  0.5718110000000  0.4350530000000  0.4804600000000 1.0
C      1  0.4503950000000  0.5148920000000  0.4562320000000 1.0
C      1  0.5406890000000  0.4208230000000  0.4433340000000 1.0
C      1  0.4654830000000  0.4915070000000  0.5720140000000 1.0
C      1  0.4483180000000  0.4527420000000  0.4061570000000 1.0
C      1  0.4706740000000  0.6168390000000  0.5015070000000 1.0
C      1  0.4930340000000  0.5846060000000  0.4616600000000 1.0
C      1  0.5466440000000  0.4458270000000  0.5095180000000 1.0
END
