TITL C-2778432-5617-885 1.30892584225546e-07 125000 -123.47875651423 0 0 23 (C1) n - 1
REM
REM in /home/nfs/bkarasulu/CARBON/AIRSS/Generating-Clusters/REBO/Only-C1/SD-CG/HFTN-CG
REM
REM
REM
REM
REM
REM ./C.cell (11c1c37f851c82e70ff6c80c92926a4b)
REM
REM compiler GCC version 9.2.1 20190827 (Red Hat 9.2.1-1)
REM options -cpp -mtune=generic -march=x86-64 -g -O0 -fpre-include=/usr/include/finclude/math-vector-fortran.h
REM seed 1916271967 -249074032 1932475863 906375590 118548003 -1469503140 -1419268048 -1108983473 167682020 79981480 1021232657 1002021495 -725365084 786485486 2129377607 -1403753678 992395454 660117344 737168406 864801873 -100161021 -805762020 851877155 96846976 1198709516 -898976345 -857174883 1376294277 1523708841 1211930817 209187086 -1747283601 1590681690
REM
CELL 1.54180   50.00000   50.00000   50.00000   90.00000   90.00000   90.00000
LATT -1
SFAC C  
C      1  0.5174490000000  0.5508470000000  0.5052700000000 1.0
C      1  0.4623910000000  0.4486760000000  0.5434420000000 1.0
C      1  0.4641510000000  0.4819170000000  0.4567800000000 1.0
C      1  0.4414640000000  0.4496830000000  0.5188790000000 1.0
C      1  0.5167490000000  0.5135130000000  0.5304160000000 1.0
C      1  0.4487790000000  0.4700670000000  0.5011560000000 1.0
C      1  0.5777190000000  0.5077170000000  0.4801750000000 1.0
C      1  0.5744500000000  0.5519750000000  0.5001280000000 1.0
C      1  0.5234720000000  0.5273960000000  0.4568150000000 1.0
C      1  0.4809360000000  0.4698060000000  0.5380790000000 1.0
C      1  0.4366890000000  0.4286730000000  0.5432870000000 1.0
C      1  0.5187220000000  0.5048280000000  0.5029130000000 1.0
C      1  0.5917410000000  0.4871820000000  0.4718970000000 1.0
C      1  0.5628760000000  0.5294550000000  0.4889370000000 1.0
C      1  0.4889740000000  0.4929160000000  0.4646440000000 1.0
C      1  0.4724350000000  0.4879420000000  0.5127220000000 1.0
C      1  0.4445860000000  0.4725330000000  0.4735340000000 1.0
C      1  0.5329170000000  0.5284940000000  0.4861470000000 1.0
C      1  0.4954890000000  0.4924890000000  0.4924310000000 1.0
C      1  0.4758920000000  0.5385430000000  0.5313020000000 1.0
C      1  0.5043640000000  0.5401300000000  0.5295070000000 1.0
C      1  0.4626820000000  0.5159220000000  0.5233020000000 1.0
C      1  0.5050730000000  0.5092980000000  0.4482380000000 1.0
END
