TITL C-2778427-5640-1172 0.14928767279138 125000 -846.292582219382 0 0 144 (C1) n - 1
REM
REM in /home/nfs/bkarasulu/CARBON/AIRSS/Generating-Clusters/REBO/Only-C1/SD-CG/HFTN-CG
REM
REM
REM
REM
REM
REM ./C.cell (11c1c37f851c82e70ff6c80c92926a4b)
REM
REM compiler GCC version 9.2.1 20190827 (Red Hat 9.2.1-1)
REM options -cpp -mtune=generic -march=x86-64 -g -O0 -fpre-include=/usr/include/finclude/math-vector-fortran.h
REM seed -225166437 1076098638 624266925 -264512978 1709972706 2029579936 -245973553 -1106614639 -28184282 -302305031 -211718924 -1521888234 -33400826 1096145836 994859616 937260363 -1551457916 260755329 -421964331 44339304 -1907615126 1641954216 -1370819489 -158001270 -1642685875 1921426166 -1502883914 -1714467279 1720207672 -56787452 1877165280 412149093 1827020032
REM
CELL 1.54180   50.00000   50.00000   50.00000   90.00000   90.00000   90.00000
LATT -1
SFAC C  
C      1  0.4907340000000  0.4803230000000  0.6082310000000 1.0
C      1  0.4827150000000  0.5087860000000  0.6027850000000 1.0
C      1  0.5626630000000  0.5676990000000  0.4763130000000 1.0
C      1  0.5133050000000  0.5448940000000  0.4476560000000 1.0
C      1  0.5589760000000  0.4744720000000  0.5579150000000 1.0
C      1  0.5288600000000  0.4170020000000  0.4437300000000 1.0
C      1  0.4491590000000  0.4708700000000  0.5168990000000 1.0
C      1  0.4007860000000  0.5151000000000  0.5284030000000 1.0
C      1  0.4590150000000  0.5346470000000  0.3887790000000 1.0
C      1  0.4917880000000  0.3995640000000  0.5120970000000 1.0
C      1  0.4129720000000  0.5504410000000  0.4942030000000 1.0
C      1  0.5538130000000  0.5112470000000  0.4701700000000 1.0
C      1  0.4167630000000  0.5100820000000  0.4453460000000 1.0
C      1  0.4244810000000  0.5477380000000  0.4395780000000 1.0
C      1  0.5929780000000  0.4630030000000  0.4638270000000 1.0
C      1  0.5341050000000  0.4848940000000  0.4102320000000 1.0
C      1  0.6020830000000  0.4711620000000  0.4952290000000 1.0
C      1  0.5218820000000  0.3955030000000  0.4966550000000 1.0
C      1  0.4832000000000  0.5544300000000  0.5078800000000 1.0
C      1  0.4360980000000  0.4833070000000  0.4372560000000 1.0
C      1  0.4344510000000  0.4954040000000  0.4984800000000 1.0
C      1  0.4936210000000  0.3959450000000  0.4725940000000 1.0
C      1  0.4778280000000  0.5325490000000  0.5652990000000 1.0
C      1  0.4778770000000  0.5778540000000  0.5300720000000 1.0
C      1  0.4945750000000  0.4237300000000  0.4902590000000 1.0
C      1  0.4892490000000  0.4517120000000  0.4377340000000 1.0
C      1  0.5112720000000  0.4641150000000  0.4069870000000 1.0
C      1  0.4993850000000  0.5055520000000  0.5123950000000 1.0
C      1  0.4289110000000  0.4455780000000  0.5211900000000 1.0
C      1  0.4672020000000  0.4048460000000  0.5332820000000 1.0
C      1  0.4697600000000  0.4564610000000  0.4620860000000 1.0
C      1  0.5554590000000  0.4766760000000  0.4297390000000 1.0
C      1  0.4463900000000  0.4551900000000  0.5667510000000 1.0
C      1  0.5097410000000  0.4741410000000  0.5183980000000 1.0
C      1  0.4466290000000  0.5570700000000  0.4317890000000 1.0
C      1  0.4166400000000  0.4895730000000  0.5443250000000 1.0
C      1  0.4950550000000  0.5302600000000  0.4243460000000 1.0
C      1  0.4642010000000  0.4356150000000  0.5586130000000 1.0
C      1  0.4770370000000  0.4996210000000  0.5567850000000 1.0
C      1  0.4836760000000  0.4540850000000  0.5918450000000 1.0
C      1  0.5228130000000  0.4977130000000  0.5474590000000 1.0
C      1  0.5350760000000  0.5624730000000  0.4130440000000 1.0
C      1  0.6069480000000  0.5466560000000  0.5423850000000 1.0
C      1  0.5818470000000  0.4328270000000  0.5334190000000 1.0
C      1  0.5236510000000  0.3958020000000  0.4626440000000 1.0
C      1  0.4609660000000  0.5872740000000  0.5055750000000 1.0
C      1  0.5534580000000  0.5050100000000  0.5718520000000 1.0
C      1  0.5366490000000  0.5780140000000  0.5461770000000 1.0
C      1  0.4907060000000  0.5633590000000  0.5580310000000 1.0
C      1  0.4380330000000  0.5079650000000  0.5577520000000 1.0
C      1  0.4463310000000  0.4114250000000  0.4626080000000 1.0
C      1  0.4552550000000  0.5045450000000  0.4793400000000 1.0
C      1  0.5962260000000  0.5010930000000  0.5020840000000 1.0
C      1  0.5619570000000  0.5926670000000  0.4870250000000 1.0
C      1  0.4690900000000  0.4953970000000  0.5251790000000 1.0
C      1  0.4894410000000  0.4494980000000  0.5436770000000 1.0
C      1  0.5316060000000  0.5480240000000  0.5551790000000 1.0
C      1  0.3998860000000  0.4842390000000  0.5149570000000 1.0
C      1  0.5171250000000  0.5974560000000  0.4579550000000 1.0
C      1  0.5546230000000  0.5493570000000  0.4277420000000 1.0
C      1  0.5808430000000  0.4717880000000  0.4405360000000 1.0
C      1  0.5421650000000  0.5346660000000  0.5261180000000 1.0
C      1  0.5124210000000  0.6006090000000  0.4303220000000 1.0
C      1  0.4997380000000  0.4763570000000  0.5600020000000 1.0
C      1  0.5317760000000  0.4653700000000  0.5393220000000 1.0
C      1  0.5071580000000  0.5241740000000  0.5949590000000 1.0
C      1  0.6189180000000  0.5390970000000  0.5189480000000 1.0
C      1  0.4473610000000  0.5535510000000  0.4715770000000 1.0
C      1  0.5565960000000  0.4137950000000  0.5363370000000 1.0
C      1  0.4116780000000  0.4749860000000  0.4864210000000 1.0
C      1  0.5187980000000  0.5641780000000  0.4932220000000 1.0
C      1  0.4421250000000  0.4222550000000  0.4918500000000 1.0
C      1  0.5881380000000  0.5456330000000  0.4804270000000 1.0
C      1  0.4342990000000  0.5426520000000  0.5199840000000 1.0
C      1  0.5795260000000  0.5008000000000  0.5248750000000 1.0
C      1  0.5941680000000  0.4560650000000  0.5240340000000 1.0
C      1  0.5339690000000  0.4936270000000  0.4795490000000 1.0
C      1  0.5071600000000  0.5873300000000  0.5399360000000 1.0
C      1  0.5581720000000  0.4412170000000  0.5566730000000 1.0
C      1  0.5534470000000  0.5090330000000  0.5377760000000 1.0
C      1  0.4630230000000  0.4783080000000  0.5794650000000 1.0
C      1  0.5811570000000  0.5530620000000  0.5514310000000 1.0
C      1  0.4845300000000  0.5316700000000  0.5262470000000 1.0
C      1  0.5056000000000  0.5023330000000  0.4171550000000 1.0
C      1  0.4532000000000  0.5241770000000  0.5341910000000 1.0
C      1  0.4670960000000  0.3932700000000  0.4601340000000 1.0
C      1  0.6067770000000  0.5266390000000  0.4964070000000 1.0
C      1  0.5155730000000  0.5677970000000  0.4653840000000 1.0
C      1  0.5536430000000  0.4430610000000  0.4930180000000 1.0
C      1  0.5141600000000  0.4794520000000  0.5879910000000 1.0
C      1  0.4935610000000  0.5216390000000  0.4734230000000 1.0
C      1  0.4541690000000  0.5096110000000  0.5878380000000 1.0
C      1  0.4247570000000  0.4598880000000  0.4586670000000 1.0
C      1  0.4440720000000  0.4162670000000  0.5233480000000 1.0
C      1  0.4211690000000  0.5479480000000  0.5618320000000 1.0
C      1  0.5270990000000  0.4083790000000  0.5277900000000 1.0
C      1  0.4654080000000  0.5271600000000  0.4132320000000 1.0
C      1  0.4731070000000  0.5691780000000  0.4595590000000 1.0
C      1  0.5512410000000  0.5951870000000  0.5123090000000 1.0
C      1  0.5360520000000  0.4684150000000  0.4890020000000 1.0
C      1  0.4400260000000  0.4333520000000  0.4455490000000 1.0
C      1  0.5050590000000  0.4814550000000  0.4424000000000 1.0
C      1  0.4690230000000  0.4371850000000  0.4829080000000 1.0
C      1  0.4490640000000  0.5261070000000  0.4626470000000 1.0
C      1  0.5142350000000  0.4364470000000  0.4240220000000 1.0
C      1  0.5071280000000  0.5248250000000  0.5492280000000 1.0
C      1  0.5716500000000  0.5358950000000  0.4544230000000 1.0
C      1  0.4593010000000  0.4412070000000  0.4267090000000 1.0
C      1  0.5255160000000  0.4341610000000  0.5503060000000 1.0
C      1  0.4470400000000  0.5154430000000  0.4326750000000 1.0
C      1  0.5324940000000  0.4661060000000  0.4454450000000 1.0
C      1  0.5765730000000  0.5553330000000  0.5112380000000 1.0
C      1  0.4727760000000  0.4842400000000  0.4718420000000 1.0
C      1  0.4978900000000  0.4050010000000  0.5449420000000 1.0
C      1  0.4851910000000  0.5469620000000  0.4809190000000 1.0
C      1  0.5042850000000  0.6006460000000  0.4850800000000 1.0
C      1  0.4400280000000  0.5676530000000  0.4988650000000 1.0
C      1  0.4039390000000  0.5398550000000  0.5458680000000 1.0
C      1  0.4470660000000  0.5392760000000  0.5744530000000 1.0
C      1  0.4922560000000  0.4729870000000  0.4905660000000 1.0
C      1  0.5189430000000  0.5320020000000  0.5036120000000 1.0
C      1  0.5324010000000  0.4421290000000  0.4591740000000 1.0
C      1  0.4831760000000  0.4786980000000  0.4089600000000 1.0
C      1  0.5664350000000  0.5765580000000  0.5342940000000 1.0
C      1  0.5090980000000  0.4998920000000  0.4666710000000 1.0
C      1  0.5614790000000  0.5367480000000  0.5653280000000 1.0
C      1  0.4774990000000  0.5921340000000  0.4826660000000 1.0
C      1  0.5009330000000  0.4388350000000  0.5733550000000 1.0
C      1  0.5837200000000  0.4774010000000  0.5397780000000 1.0
C      1  0.4098520000000  0.5323860000000  0.4666690000000 1.0
C      1  0.5801240000000  0.4462080000000  0.4879060000000 1.0
C      1  0.4794500000000  0.4580110000000  0.5161750000000 1.0
C      1  0.4194870000000  0.4440630000000  0.4885690000000 1.0
C      1  0.5211480000000  0.5906000000000  0.5115330000000 1.0
C      1  0.4259250000000  0.4610120000000  0.5482040000000 1.0
C      1  0.5283900000000  0.5043680000000  0.5889570000000 1.0
C      1  0.5508920000000  0.5408990000000  0.4940240000000 1.0
C      1  0.5090310000000  0.5750910000000  0.4174160000000 1.0
C      1  0.5198450000000  0.4385190000000  0.4890950000000 1.0
C      1  0.4804560000000  0.5606990000000  0.4289580000000 1.0
C      1  0.4117450000000  0.5181180000000  0.4979390000000 1.0
C      1  0.5394820000000  0.5298360000000  0.4480980000000 1.0
C      1  0.5101730000000  0.5490950000000  0.5817680000000 1.0
C      1  0.4589080000000  0.4700080000000  0.4192300000000 1.0
END
