TITL C-2778423-5760-845 0.00485021803886338 125000 -986.694916829969 0 0 172 (C1) n - 1
REM
REM in /home/nfs/bkarasulu/CARBON/AIRSS/Generating-Clusters/REBO/Only-C1/SD-CG/HFTN-CG
REM
REM
REM
REM
REM
REM ./C.cell (11c1c37f851c82e70ff6c80c92926a4b)
REM
REM compiler GCC version 9.2.1 20190827 (Red Hat 9.2.1-1)
REM options -cpp -mtune=generic -march=x86-64 -g -O0 -fpre-include=/usr/include/finclude/math-vector-fortran.h
REM seed -342575749 730499649 -430683665 681949992 -313863015 -643139677 696491186 -980243995 -1028936407 -1140475299 1850686273 438839830 -222623440 -1105693531 1418382761 -621825239 -611559504 -760672407 1705311861 369172855 232007413 918484183 1846375021 -721793505 -1413922861 1202560639 1590826109 -550356078 -217546411 930615489 -1816087917 -238241601 1795547603
REM
CELL 1.54180   50.00000   50.00000   50.00000   90.00000   90.00000   90.00000
LATT -1
SFAC C  
C      1  0.5806850000000  0.4793090000000  0.4246860000000 1.0
C      1  0.5657300000000  0.5372170000000  0.4730540000000 1.0
C      1  0.5251980000000  0.4380690000000  0.5680360000000 1.0
C      1  0.4665270000000  0.4094780000000  0.5063550000000 1.0
C      1  0.4639520000000  0.5537890000000  0.5888510000000 1.0
C      1  0.4599800000000  0.5031320000000  0.4955550000000 1.0
C      1  0.4287470000000  0.5647360000000  0.4698780000000 1.0
C      1  0.4952750000000  0.4847480000000  0.4271970000000 1.0
C      1  0.5330610000000  0.3976900000000  0.5241490000000 1.0
C      1  0.6021710000000  0.4402640000000  0.4938930000000 1.0
C      1  0.5139560000000  0.4352510000000  0.4190580000000 1.0
C      1  0.4733030000000  0.5063910000000  0.5238170000000 1.0
C      1  0.5416360000000  0.4790700000000  0.4617570000000 1.0
C      1  0.5135130000000  0.5141070000000  0.5525530000000 1.0
C      1  0.4435110000000  0.5303590000000  0.4838960000000 1.0
C      1  0.5456270000000  0.6015400000000  0.5163220000000 1.0
C      1  0.5351560000000  0.5999730000000  0.4902480000000 1.0
C      1  0.4850290000000  0.3992530000000  0.4598230000000 1.0
C      1  0.4847620000000  0.4273800000000  0.4316130000000 1.0
C      1  0.5675470000000  0.5529200000000  0.5580360000000 1.0
C      1  0.5160300000000  0.4417180000000  0.5106330000000 1.0
C      1  0.5903270000000  0.4578210000000  0.4433580000000 1.0
C      1  0.5739370000000  0.5320030000000  0.4402320000000 1.0
C      1  0.4816500000000  0.5192290000000  0.4661310000000 1.0
C      1  0.5755880000000  0.4815370000000  0.4819830000000 1.0
C      1  0.5488900000000  0.5163340000000  0.4286370000000 1.0
C      1  0.4018030000000  0.4640300000000  0.4816250000000 1.0
C      1  0.3975010000000  0.5042800000000  0.4973630000000 1.0
C      1  0.5770920000000  0.5619070000000  0.5265080000000 1.0
C      1  0.4394350000000  0.5252410000000  0.5690510000000 1.0
C      1  0.4325130000000  0.4737030000000  0.5728370000000 1.0
C      1  0.4684980000000  0.5538080000000  0.5109720000000 1.0
C      1  0.5475480000000  0.5855470000000  0.5392380000000 1.0
C      1  0.5215860000000  0.4405420000000  0.4784470000000 1.0
C      1  0.5473370000000  0.4017440000000  0.4942580000000 1.0
C      1  0.5664890000000  0.4650070000000  0.5056180000000 1.0
C      1  0.4594540000000  0.4168590000000  0.4603460000000 1.0
C      1  0.5871890000000  0.5053940000000  0.4268140000000 1.0
C      1  0.5602750000000  0.5616270000000  0.4502560000000 1.0
C      1  0.4378710000000  0.5416060000000  0.5131470000000 1.0
C      1  0.4627430000000  0.5276940000000  0.6014270000000 1.0
C      1  0.5408740000000  0.5948860000000  0.4396690000000 1.0
C      1  0.4375850000000  0.5557740000000  0.4431640000000 1.0
C      1  0.4538320000000  0.4333560000000  0.4344030000000 1.0
C      1  0.4888850000000  0.5397780000000  0.4399260000000 1.0
C      1  0.5070230000000  0.6033440000000  0.4900660000000 1.0
C      1  0.5226700000000  0.4861280000000  0.5256520000000 1.0
C      1  0.4288960000000  0.4474650000000  0.4903320000000 1.0
C      1  0.5999540000000  0.4700390000000  0.4672890000000 1.0
C      1  0.5424560000000  0.5555900000000  0.4229350000000 1.0
C      1  0.5545980000000  0.4100120000000  0.4626220000000 1.0
C      1  0.5977560000000  0.5159240000000  0.5549380000000 1.0
C      1  0.4255610000000  0.4392320000000  0.4362520000000 1.0
C      1  0.5367290000000  0.5356100000000  0.5629460000000 1.0
C      1  0.4404540000000  0.4167250000000  0.4856690000000 1.0
C      1  0.5316630000000  0.5285220000000  0.5200790000000 1.0
C      1  0.4074490000000  0.4519420000000  0.5507630000000 1.0
C      1  0.5099970000000  0.5126970000000  0.4201800000000 1.0
C      1  0.5872930000000  0.5025250000000  0.5299280000000 1.0
C      1  0.5156400000000  0.4605110000000  0.3993760000000 1.0
C      1  0.4764520000000  0.5565390000000  0.5412750000000 1.0
C      1  0.5593050000000  0.5489980000000  0.5005270000000 1.0
C      1  0.4788410000000  0.6182580000000  0.4402190000000 1.0
C      1  0.5608000000000  0.4174050000000  0.5216030000000 1.0
C      1  0.5289970000000  0.4614390000000  0.5886410000000 1.0
C      1  0.4445900000000  0.4733900000000  0.4962090000000 1.0
C      1  0.5012570000000  0.5193540000000  0.5239570000000 1.0
C      1  0.5137990000000  0.5451400000000  0.5842160000000 1.0
C      1  0.4830760000000  0.5017160000000  0.3931630000000 1.0
C      1  0.4914580000000  0.5950850000000  0.4477000000000 1.0
C      1  0.5900380000000  0.5137940000000  0.5001410000000 1.0
C      1  0.4931200000000  0.4339200000000  0.5621430000000 1.0
C      1  0.4910300000000  0.6099980000000  0.5547840000000 1.0
C      1  0.5555270000000  0.5901650000000  0.4681360000000 1.0
C      1  0.3972230000000  0.5268420000000  0.4741050000000 1.0
C      1  0.4830010000000  0.6032400000000  0.5030610000000 1.0
C      1  0.3891800000000  0.4999060000000  0.5456540000000 1.0
C      1  0.4861330000000  0.5156580000000  0.5674020000000 1.0
C      1  0.5663000000000  0.4352150000000  0.4471150000000 1.0
C      1  0.4083240000000  0.5517150000000  0.4849700000000 1.0
C      1  0.5755940000000  0.5844320000000  0.5522650000000 1.0
C      1  0.4683170000000  0.4460250000000  0.5820390000000 1.0
C      1  0.4430650000000  0.5872610000000  0.5344230000000 1.0
C      1  0.4847030000000  0.4444110000000  0.5130850000000 1.0
C      1  0.5841970000000  0.5848310000000  0.4823770000000 1.0
C      1  0.6124950000000  0.4624670000000  0.5527660000000 1.0
C      1  0.5110300000000  0.4070140000000  0.4392320000000 1.0
C      1  0.6017000000000  0.5414240000000  0.4916690000000 1.0
C      1  0.3992090000000  0.4938530000000  0.4654070000000 1.0
C      1  0.5065080000000  0.4441820000000  0.4520990000000 1.0
C      1  0.4325220000000  0.5015640000000  0.5830290000000 1.0
C      1  0.4687020000000  0.4634410000000  0.4282210000000 1.0
C      1  0.4205590000000  0.4620430000000  0.4541620000000 1.0
C      1  0.4200180000000  0.5455560000000  0.5671610000000 1.0
C      1  0.5947680000000  0.5667470000000  0.5002360000000 1.0
C      1  0.5535750000000  0.4364950000000  0.5489460000000 1.0
C      1  0.4216050000000  0.5644840000000  0.5426960000000 1.0
C      1  0.4892880000000  0.5322600000000  0.4975220000000 1.0
C      1  0.5457090000000  0.5014130000000  0.4062010000000 1.0
C      1  0.4614580000000  0.5993720000000  0.5192610000000 1.0
C      1  0.4327580000000  0.4631220000000  0.5342960000000 1.0
C      1  0.5471740000000  0.4814140000000  0.5716820000000 1.0
C      1  0.4774070000000  0.4755360000000  0.5903270000000 1.0
C      1  0.4412740000000  0.5156670000000  0.5284480000000 1.0
C      1  0.4958910000000  0.4780260000000  0.3878290000000 1.0
C      1  0.4656660000000  0.5022750000000  0.4211360000000 1.0
C      1  0.4247070000000  0.4954170000000  0.5124940000000 1.0
C      1  0.4947950000000  0.3984440000000  0.4904980000000 1.0
C      1  0.5781330000000  0.5274020000000  0.5700340000000 1.0
C      1  0.4563940000000  0.4072820000000  0.5387570000000 1.0
C      1  0.4689260000000  0.5006430000000  0.6001590000000 1.0
C      1  0.5708320000000  0.4344700000000  0.4970090000000 1.0
C      1  0.5214260000000  0.4691390000000  0.4388850000000 1.0
C      1  0.5513140000000  0.4483720000000  0.4728580000000 1.0
C      1  0.5295400000000  0.4974580000000  0.4879250000000 1.0
C      1  0.4953260000000  0.4757390000000  0.5108270000000 1.0
C      1  0.4294200000000  0.5180690000000  0.4554570000000 1.0
C      1  0.6098890000000  0.4642680000000  0.5055570000000 1.0
C      1  0.5563370000000  0.5098320000000  0.5060040000000 1.0
C      1  0.5102880000000  0.5621520000000  0.4818350000000 1.0
C      1  0.5134560000000  0.5559280000000  0.4503820000000 1.0
C      1  0.5250100000000  0.5247450000000  0.4473390000000 1.0
C      1  0.5287660000000  0.5577090000000  0.5045030000000 1.0
C      1  0.5338530000000  0.5581660000000  0.5372140000000 1.0
C      1  0.4644800000000  0.5546380000000  0.4221330000000 1.0
C      1  0.4903060000000  0.5559910000000  0.5729300000000 1.0
C      1  0.3943440000000  0.5184310000000  0.5259310000000 1.0
C      1  0.5894050000000  0.4702040000000  0.5308710000000 1.0
C      1  0.4412250000000  0.4817940000000  0.4197880000000 1.0
C      1  0.5160810000000  0.5836040000000  0.4374050000000 1.0
C      1  0.5112900000000  0.5270910000000  0.6060800000000 1.0
C      1  0.4837120000000  0.5772250000000  0.4708160000000 1.0
C      1  0.3903120000000  0.4733400000000  0.5542370000000 1.0
C      1  0.5180700000000  0.5286730000000  0.4792360000000 1.0
C      1  0.4545870000000  0.5752310000000  0.4882520000000 1.0
C      1  0.5531970000000  0.4596680000000  0.4289520000000 1.0
C      1  0.5241970000000  0.5426680000000  0.4116850000000 1.0
C      1  0.4489640000000  0.5727940000000  0.5648860000000 1.0
C      1  0.5553670000000  0.4909360000000  0.5337820000000 1.0
C      1  0.4859510000000  0.4117540000000  0.5419650000000 1.0
C      1  0.4939230000000  0.4682850000000  0.5618350000000 1.0
C      1  0.4654290000000  0.5493640000000  0.4707000000000 1.0
C      1  0.4555490000000  0.4992600000000  0.4625750000000 1.0
C      1  0.4861690000000  0.5330720000000  0.4065430000000 1.0
C      1  0.4445920000000  0.4900150000000  0.5467690000000 1.0
C      1  0.5356960000000  0.4673380000000  0.5044060000000 1.0
C      1  0.4320230000000  0.4276510000000  0.5161430000000 1.0
C      1  0.4533740000000  0.4697950000000  0.4558550000000 1.0
C      1  0.4650030000000  0.5295340000000  0.5572820000000 1.0
C      1  0.4738710000000  0.4744630000000  0.5376390000000 1.0
C      1  0.5016900000000  0.3983610000000  0.5217220000000 1.0
C      1  0.5107840000000  0.5009420000000  0.6136270000000 1.0
C      1  0.6128410000000  0.4905380000000  0.4902750000000 1.0
C      1  0.5402590000000  0.4737590000000  0.4040950000000 1.0
C      1  0.5627360000000  0.5051900000000  0.4672450000000 1.0
C      1  0.4306850000000  0.4265830000000  0.5501250000000 1.0
C      1  0.4183590000000  0.4909810000000  0.4390480000000 1.0
C      1  0.4072840000000  0.5490080000000  0.5183710000000 1.0
C      1  0.5249750000000  0.4274740000000  0.5355810000000 1.0
C      1  0.4413350000000  0.4468870000000  0.5732140000000 1.0
C      1  0.4760630000000  0.4343280000000  0.4838590000000 1.0
C      1  0.5550490000000  0.5102420000000  0.5771110000000 1.0
C      1  0.4989370000000  0.4919250000000  0.4734080000000 1.0
C      1  0.5226380000000  0.4014050000000  0.4708300000000 1.0
C      1  0.5156670000000  0.4745630000000  0.6083240000000 1.0
C      1  0.4519580000000  0.5261710000000  0.4328150000000 1.0
C      1  0.4582100000000  0.4455720000000  0.5284930000000 1.0
C      1  0.4758670000000  0.4685570000000  0.4826150000000 1.0
C      1  0.4054470000000  0.4683320000000  0.5144800000000 1.0
C      1  0.4775620000000  0.5880690000000  0.5540870000000 1.0
C      1  0.5193120000000  0.4837200000000  0.5570180000000 1.0
C      1  0.5647410000000  0.4638780000000  0.5518430000000 1.0
END
