TITL C-2778437-8639-553 -0.000482980771926182 125000 -748.780977177923 0 0 129 (C1) n - 1
REM
REM in /home/nfs/bkarasulu/CARBON/AIRSS/Generating-Clusters/REBO/Only-C1/SD-CG/HFTN-CG
REM
REM
REM
REM
REM
REM ./C.cell (11c1c37f851c82e70ff6c80c92926a4b)
REM
REM compiler GCC version 9.2.1 20190827 (Red Hat 9.2.1-1)
REM options -cpp -mtune=generic -march=x86-64 -g -O0 -fpre-include=/usr/include/finclude/math-vector-fortran.h
REM seed 2126912619 2100199214 -479451064 -226740169 -2128543066 1871470626 -1658016773 1346329724 1403587214 -1569860422 981509064 1751372338 1591563525 2114953226 1871922075 -445511031 1944674134 122367928 -1508637581 -2009454679 1007691956 998020117 -1297208430 -1897221308 1912171156 1221539312 -1372544652 -825101781 189504461 1378943574 660055058 1784678975 -562356786
REM
CELL 1.54180   50.00000   50.00000   50.00000   90.00000   90.00000   90.00000
LATT -1
SFAC C  
C      1  0.4820020000000  0.4982570000000  0.5830900000000 1.0
C      1  0.4367720000000  0.5019370000000  0.4881000000000 1.0
C      1  0.5122460000000  0.5683220000000  0.4209570000000 1.0
C      1  0.5019330000000  0.4893820000000  0.4952170000000 1.0
C      1  0.5064450000000  0.4844450000000  0.4616380000000 1.0
C      1  0.5358490000000  0.5132560000000  0.4009970000000 1.0
C      1  0.5414330000000  0.5649380000000  0.4323750000000 1.0
C      1  0.5173070000000  0.4541810000000  0.5046590000000 1.0
C      1  0.5384240000000  0.4739200000000  0.5368450000000 1.0
C      1  0.4374970000000  0.4280120000000  0.4987790000000 1.0
C      1  0.4418310000000  0.5762930000000  0.4613860000000 1.0
C      1  0.4228900000000  0.4656600000000  0.5301340000000 1.0
C      1  0.5811520000000  0.5041720000000  0.5540040000000 1.0
C      1  0.4103170000000  0.4897330000000  0.5437200000000 1.0
C      1  0.5430100000000  0.5254380000000  0.4278250000000 1.0
C      1  0.4586910000000  0.4814380000000  0.4760820000000 1.0
C      1  0.4380560000000  0.4461630000000  0.5502460000000 1.0
C      1  0.5910340000000  0.5130180000000  0.4670090000000 1.0
C      1  0.4927930000000  0.5419260000000  0.5320600000000 1.0
C      1  0.5544850000000  0.4623120000000  0.4717040000000 1.0
C      1  0.4666570000000  0.5504880000000  0.5149210000000 1.0
C      1  0.4577170000000  0.5263260000000  0.5807200000000 1.0
C      1  0.4679120000000  0.4500270000000  0.5599130000000 1.0
C      1  0.4728810000000  0.3977440000000  0.5244410000000 1.0
C      1  0.6050100000000  0.4684050000000  0.4855720000000 1.0
C      1  0.4604450000000  0.4987540000000  0.5360550000000 1.0
C      1  0.5215460000000  0.5494290000000  0.5332800000000 1.0
C      1  0.5343800000000  0.5918240000000  0.5106130000000 1.0
C      1  0.5939010000000  0.5131540000000  0.5302440000000 1.0
C      1  0.4680860000000  0.5297420000000  0.4532410000000 1.0
C      1  0.5518260000000  0.5176850000000  0.4659210000000 1.0
C      1  0.5270890000000  0.5129530000000  0.5016700000000 1.0
C      1  0.4665830000000  0.5750830000000  0.4382760000000 1.0
C      1  0.4487040000000  0.4956700000000  0.5894100000000 1.0
C      1  0.4899800000000  0.5125940000000  0.5405020000000 1.0
C      1  0.5401880000000  0.5406350000000  0.5098160000000 1.0
C      1  0.5710580000000  0.5236960000000  0.5719030000000 1.0
C      1  0.5211740000000  0.4922570000000  0.4316960000000 1.0
C      1  0.5214980000000  0.5614420000000  0.4590300000000 1.0
C      1  0.5464030000000  0.4417050000000  0.4946610000000 1.0
C      1  0.5235650000000  0.4627920000000  0.5722700000000 1.0
C      1  0.4590100000000  0.4880650000000  0.4254880000000 1.0
C      1  0.5145140000000  0.6021100000000  0.5279740000000 1.0
C      1  0.5091980000000  0.4898820000000  0.5286390000000 1.0
C      1  0.5519040000000  0.5593170000000  0.4843730000000 1.0
C      1  0.5730930000000  0.5328790000000  0.4881650000000 1.0
C      1  0.4711530000000  0.4437050000000  0.4438710000000 1.0
C      1  0.3601490000000  0.5047680000000  0.5366870000000 1.0
C      1  0.4972930000000  0.5179740000000  0.4602430000000 1.0
C      1  0.4989910000000  0.5283760000000  0.4899880000000 1.0
C      1  0.4339700000000  0.4977010000000  0.4358680000000 1.0
C      1  0.5366510000000  0.4380100000000  0.4562270000000 1.0
C      1  0.4795020000000  0.5082050000000  0.5092380000000 1.0
C      1  0.4668490000000  0.4612110000000  0.4158340000000 1.0
C      1  0.5513490000000  0.5728730000000  0.5215850000000 1.0
C      1  0.5003940000000  0.4620400000000  0.5400380000000 1.0
C      1  0.5392230000000  0.4809010000000  0.5042430000000 1.0
C      1  0.4779650000000  0.4029030000000  0.4954310000000 1.0
C      1  0.4374950000000  0.5201770000000  0.4526130000000 1.0
C      1  0.4888720000000  0.5306620000000  0.5798770000000 1.0
C      1  0.4870800000000  0.5955940000000  0.5320740000000 1.0
C      1  0.5271390000000  0.4434630000000  0.5464340000000 1.0
C      1  0.4584410000000  0.3825720000000  0.4425160000000 1.0
C      1  0.4198750000000  0.5350660000000  0.4691050000000 1.0
C      1  0.4927360000000  0.5845770000000  0.4876960000000 1.0
C      1  0.5849920000000  0.4634860000000  0.4662530000000 1.0
C      1  0.4484330000000  0.5307390000000  0.4982330000000 1.0
C      1  0.4856760000000  0.4483900000000  0.5159630000000 1.0
C      1  0.4917600000000  0.4715710000000  0.5716220000000 1.0
C      1  0.4300070000000  0.5045550000000  0.5621420000000 1.0
C      1  0.4967710000000  0.5430550000000  0.4160020000000 1.0
C      1  0.4206660000000  0.5605930000000  0.4841160000000 1.0
C      1  0.5731000000000  0.5189540000000  0.4378180000000 1.0
C      1  0.4978280000000  0.4243470000000  0.4865660000000 1.0
C      1  0.6030700000000  0.4657680000000  0.5182750000000 1.0
C      1  0.4941970000000  0.5867570000000  0.4377050000000 1.0
C      1  0.4162610000000  0.4447800000000  0.4777240000000 1.0
C      1  0.4588020000000  0.4274350000000  0.5204780000000 1.0
C      1  0.5458220000000  0.4130610000000  0.4739350000000 1.0
C      1  0.4150000000000  0.4769350000000  0.4408730000000 1.0
C      1  0.5673160000000  0.4774230000000  0.5524990000000 1.0
C      1  0.4799320000000  0.5696700000000  0.5473310000000 1.0
C      1  0.6122590000000  0.4990770000000  0.4837200000000 1.0
C      1  0.6089160000000  0.4956860000000  0.5141570000000 1.0
C      1  0.5394520000000  0.4903870000000  0.4715140000000 1.0
C      1  0.4256730000000  0.5600400000000  0.5129200000000 1.0
C      1  0.5405110000000  0.4031890000000  0.5023440000000 1.0
C      1  0.4546980000000  0.4806780000000  0.5600310000000 1.0
C      1  0.5209490000000  0.5336810000000  0.4464480000000 1.0
C      1  0.5861760000000  0.4567370000000  0.5391510000000 1.0
C      1  0.5559860000000  0.4864970000000  0.6021480000000 1.0
C      1  0.5301950000000  0.5527670000000  0.5613160000000 1.0
C      1  0.4921750000000  0.5575050000000  0.4952960000000 1.0
C      1  0.4715430000000  0.5476210000000  0.4292820000000 1.0
C      1  0.4193590000000  0.4505430000000  0.4510000000000 1.0
C      1  0.5458510000000  0.4518670000000  0.4296390000000 1.0
C      1  0.5687070000000  0.5536530000000  0.5345970000000 1.0
C      1  0.5740380000000  0.4885340000000  0.4487630000000 1.0
C      1  0.5768810000000  0.4303760000000  0.5371990000000 1.0
C      1  0.5586270000000  0.5466920000000  0.5610300000000 1.0
C      1  0.4726680000000  0.5977720000000  0.5067990000000 1.0
C      1  0.4399380000000  0.4726360000000  0.5041150000000 1.0
C      1  0.5818530000000  0.5350770000000  0.5176820000000 1.0
C      1  0.5114590000000  0.4514710000000  0.4711350000000 1.0
C      1  0.4581150000000  0.5501070000000  0.4759620000000 1.0
C      1  0.5484130000000  0.4747910000000  0.5782880000000 1.0
C      1  0.5093050000000  0.4208400000000  0.5365050000000 1.0
C      1  0.4755760000000  0.4765920000000  0.4514920000000 1.0
C      1  0.4534670000000  0.5803820000000  0.4920800000000 1.0
C      1  0.4590100000000  0.4305520000000  0.4728080000000 1.0
C      1  0.4479830000000  0.5622590000000  0.5392850000000 1.0
C      1  0.3850300000000  0.4973110000000  0.5401750000000 1.0
C      1  0.5070380000000  0.5154800000000  0.4137350000000 1.0
C      1  0.5005890000000  0.5537020000000  0.5693090000000 1.0
C      1  0.4533530000000  0.4083180000000  0.4489000000000 1.0
C      1  0.4798830000000  0.4231470000000  0.5463940000000 1.0
C      1  0.5317730000000  0.5857220000000  0.4801640000000 1.0
C      1  0.5631670000000  0.4975980000000  0.6247760000000 1.0
C      1  0.5476720000000  0.4794760000000  0.4312600000000 1.0
C      1  0.4390060000000  0.4344120000000  0.4384610000000 1.0
C      1  0.4214450000000  0.5344530000000  0.5306930000000 1.0
C      1  0.4658480000000  0.4553200000000  0.4930810000000 1.0
C      1  0.5140430000000  0.4114550000000  0.5101400000000 1.0
C      1  0.5587810000000  0.5495860000000  0.4549430000000 1.0
C      1  0.4108020000000  0.4458140000000  0.5087430000000 1.0
C      1  0.4367140000000  0.5378950000000  0.5598420000000 1.0
C      1  0.4361850000000  0.5090610000000  0.5201170000000 1.0
C      1  0.5611110000000  0.4205450000000  0.5169920000000 1.0
C      1  0.5045250000000  0.5969360000000  0.4628460000000 1.0
END
