TITL C-2778436-5916-356 0.00131228618263199 125000 -479.27406606775 0 0 83 (C1) n - 1
REM
REM in /home/nfs/bkarasulu/CARBON/AIRSS/Generating-Clusters/REBO/Only-C1/SD-CG/HFTN-CG
REM
REM
REM
REM
REM
REM ./C.cell (11c1c37f851c82e70ff6c80c92926a4b)
REM
REM compiler GCC version 9.2.1 20190827 (Red Hat 9.2.1-1)
REM options -cpp -mtune=generic -march=x86-64 -g -O0 -fpre-include=/usr/include/finclude/math-vector-fortran.h
REM seed -1150731659 762978847 -1834921128 715111829 1389128691 1923153018 1507881841 1382767077 1101401311 -2028242671 -1256812763 -1917919931 -1676897678 1596524313 -387539082 1910655870 2115263119 220474563 -817485234 -2079604063 378545755 1849497755 1548705907 1105029741 116948524 837442372 1470207300 28157792 1172202698 1118824713 140250906 -386748908 -2109512549
REM
CELL 1.54180   50.00000   50.00000   50.00000   90.00000   90.00000   90.00000
LATT -1
SFAC C  
C      1  0.4615010000000  0.5166320000000  0.5463000000000 1.0
C      1  0.5782350000000  0.4762500000000  0.5123770000000 1.0
C      1  0.5650660000000  0.5217530000000  0.5597030000000 1.0
C      1  0.4874970000000  0.5681670000000  0.4672880000000 1.0
C      1  0.5417830000000  0.4949870000000  0.5227040000000 1.0
C      1  0.5241900000000  0.4761450000000  0.4568820000000 1.0
C      1  0.5240680000000  0.5289520000000  0.4899290000000 1.0
C      1  0.5422590000000  0.5762070000000  0.5128310000000 1.0
C      1  0.5691510000000  0.5343520000000  0.5335860000000 1.0
C      1  0.5466500000000  0.4649250000000  0.4672170000000 1.0
C      1  0.4384500000000  0.4714930000000  0.5259010000000 1.0
C      1  0.4311630000000  0.5515720000000  0.4809350000000 1.0
C      1  0.4780480000000  0.5199430000000  0.3988070000000 1.0
C      1  0.4864470000000  0.4446380000000  0.4384780000000 1.0
C      1  0.4663080000000  0.5495040000000  0.5550890000000 1.0
C      1  0.4951180000000  0.4428070000000  0.4822680000000 1.0
C      1  0.5498950000000  0.4508790000000  0.5492870000000 1.0
C      1  0.5516430000000  0.5462460000000  0.4670800000000 1.0
C      1  0.5323550000000  0.5446300000000  0.4390130000000 1.0
C      1  0.4467210000000  0.5857930000000  0.4083270000000 1.0
C      1  0.4574980000000  0.4418300000000  0.4399040000000 1.0
C      1  0.5535830000000  0.5191280000000  0.4468090000000 1.0
C      1  0.5310600000000  0.4683190000000  0.5798890000000 1.0
C      1  0.5284640000000  0.4766350000000  0.5007320000000 1.0
C      1  0.4757450000000  0.5461650000000  0.4841430000000 1.0
C      1  0.4907000000000  0.4598950000000  0.5174910000000 1.0
C      1  0.5125280000000  0.4033120000000  0.4624020000000 1.0
C      1  0.5623510000000  0.5168520000000  0.5116390000000 1.0
C      1  0.5001370000000  0.4918100000000  0.4960060000000 1.0
C      1  0.4384240000000  0.5413980000000  0.5427180000000 1.0
C      1  0.5191880000000  0.4840880000000  0.5534130000000 1.0
C      1  0.4774630000000  0.4112730000000  0.5149360000000 1.0
C      1  0.4472850000000  0.4303630000000  0.4641890000000 1.0
C      1  0.4153740000000  0.5003090000000  0.4484030000000 1.0
C      1  0.5527250000000  0.5598540000000  0.5328550000000 1.0
C      1  0.4577260000000  0.4880060000000  0.4690740000000 1.0
C      1  0.5227950000000  0.5948670000000  0.5217020000000 1.0
C      1  0.4369270000000  0.4837930000000  0.4500190000000 1.0
C      1  0.4547660000000  0.4492890000000  0.5349850000000 1.0
C      1  0.4810310000000  0.4633160000000  0.5759820000000 1.0
C      1  0.5622220000000  0.4768870000000  0.5399400000000 1.0
C      1  0.5193810000000  0.4458970000000  0.5037250000000 1.0
C      1  0.5018490000000  0.4873370000000  0.5299910000000 1.0
C      1  0.4660220000000  0.5759980000000  0.4231030000000 1.0
C      1  0.4428820000000  0.5386770000000  0.4626870000000 1.0
C      1  0.4865210000000  0.5655950000000  0.4387970000000 1.0
C      1  0.5210040000000  0.5215790000000  0.5229840000000 1.0
C      1  0.4987160000000  0.4708590000000  0.4391430000000 1.0
C      1  0.5288010000000  0.4385540000000  0.5509700000000 1.0
C      1  0.5015420000000  0.4342970000000  0.5373850000000 1.0
C      1  0.5184990000000  0.5054950000000  0.5775960000000 1.0
C      1  0.4405980000000  0.4377820000000  0.4907150000000 1.0
C      1  0.4879240000000  0.5171740000000  0.5273410000000 1.0
C      1  0.5731540000000  0.4956350000000  0.5616910000000 1.0
C      1  0.4772870000000  0.4699920000000  0.4872370000000 1.0
C      1  0.4275050000000  0.4624680000000  0.4999310000000 1.0
C      1  0.4699770000000  0.5437370000000  0.5157750000000 1.0
C      1  0.4948280000000  0.5222220000000  0.4199630000000 1.0
C      1  0.5600850000000  0.4838980000000  0.4891780000000 1.0
C      1  0.5375340000000  0.5474310000000  0.5948500000000 1.0
C      1  0.5314620000000  0.5412220000000  0.5444970000000 1.0
C      1  0.5015980000000  0.5019250000000  0.4376240000000 1.0
C      1  0.5109240000000  0.5782240000000  0.4765370000000 1.0
C      1  0.5014940000000  0.4784470000000  0.5885760000000 1.0
C      1  0.4387450000000  0.4987850000000  0.5322340000000 1.0
C      1  0.4982990000000  0.5880250000000  0.5316220000000 1.0
C      1  0.4942330000000  0.5190970000000  0.4853610000000 1.0
C      1  0.5188300000000  0.3957540000000  0.4882260000000 1.0
C      1  0.4417620000000  0.4634660000000  0.4309760000000 1.0
C      1  0.4228860000000  0.5154510000000  0.5168600000000 1.0
C      1  0.6036980000000  0.4699050000000  0.5104610000000 1.0
C      1  0.4558340000000  0.4289320000000  0.5139450000000 1.0
C      1  0.4765170000000  0.4479260000000  0.5528140000000 1.0
C      1  0.4659220000000  0.5170660000000  0.4693090000000 1.0
C      1  0.5623310000000  0.5162410000000  0.4796330000000 1.0
C      1  0.4363320000000  0.5443190000000  0.5100310000000 1.0
C      1  0.5090520000000  0.4142690000000  0.5108150000000 1.0
C      1  0.4987970000000  0.4277900000000  0.4586520000000 1.0
C      1  0.5365050000000  0.5293600000000  0.5735530000000 1.0
C      1  0.5247230000000  0.5098600000000  0.4614730000000 1.0
C      1  0.5064810000000  0.5472420000000  0.4284220000000 1.0
C      1  0.4808480000000  0.5673970000000  0.5361830000000 1.0
C      1  0.5340760000000  0.5614080000000  0.4878980000000 1.0
END
