TITL C-2778425-5191-162 0.00469557874495651 125000 -1063.9467932248 0 0 186 (C1) n - 1
REM
REM in /home/nfs/bkarasulu/CARBON/AIRSS/Generating-Clusters/REBO/Only-C1/SD-CG/HFTN-CG
REM
REM
REM
REM
REM
REM ./C.cell (11c1c37f851c82e70ff6c80c92926a4b)
REM
REM compiler GCC version 9.2.1 20190827 (Red Hat 9.2.1-1)
REM options -cpp -mtune=generic -march=x86-64 -g -O0 -fpre-include=/usr/include/finclude/math-vector-fortran.h
REM seed 1143330021 -1692184323 -638540000 -35042426 -358614357 -613766662 -407781628 -1856017616 -238880102 -67939745 329613029 -782167843 651344012 679651752 1610503599 664467549 817546128 748203590 -1626349626 -1950276654 119128036 1029470164 1643063415 1330624352 1138398381 -1906325565 -2133358253 1790204789 -1990323427 -1218328393 -1537545076 -1139002353 -838576159
REM
CELL 1.54180   50.00000   50.00000   50.00000   90.00000   90.00000   90.00000
LATT -1
SFAC C  
C      1  0.4560940000000  0.3979210000000  0.5362620000000 1.0
C      1  0.5546860000000  0.4569220000000  0.5223310000000 1.0
C      1  0.5547780000000  0.5785090000000  0.5022240000000 1.0
C      1  0.4565920000000  0.5151250000000  0.5853350000000 1.0
C      1  0.5532280000000  0.5958100000000  0.4537420000000 1.0
C      1  0.4123700000000  0.4396650000000  0.5133020000000 1.0
C      1  0.4306540000000  0.4924310000000  0.4393940000000 1.0
C      1  0.5772670000000  0.5186470000000  0.5174840000000 1.0
C      1  0.4462070000000  0.5607210000000  0.5261600000000 1.0
C      1  0.5900170000000  0.4936330000000  0.4498650000000 1.0
C      1  0.5264090000000  0.4109580000000  0.4676570000000 1.0
C      1  0.5345820000000  0.4368100000000  0.4485990000000 1.0
C      1  0.4999940000000  0.4013960000000  0.4554120000000 1.0
C      1  0.4856720000000  0.5440630000000  0.4059810000000 1.0
C      1  0.5847320000000  0.4146400000000  0.4662000000000 1.0
C      1  0.4376400000000  0.5993260000000  0.5282430000000 1.0
C      1  0.5841870000000  0.5575780000000  0.5375590000000 1.0
C      1  0.4314520000000  0.4355900000000  0.4323110000000 1.0
C      1  0.4667240000000  0.5751460000000  0.4432360000000 1.0
C      1  0.5431480000000  0.5497870000000  0.5268880000000 1.0
C      1  0.5862270000000  0.4281480000000  0.4954240000000 1.0
C      1  0.5163670000000  0.4649460000000  0.5709260000000 1.0
C      1  0.5714130000000  0.4855560000000  0.4226110000000 1.0
C      1  0.5725390000000  0.5466210000000  0.4415010000000 1.0
C      1  0.5673420000000  0.5768040000000  0.5499320000000 1.0
C      1  0.3812280000000  0.4862190000000  0.4966060000000 1.0
C      1  0.5209270000000  0.4540030000000  0.3980970000000 1.0
C      1  0.4747210000000  0.4405320000000  0.5116140000000 1.0
C      1  0.5141220000000  0.4320030000000  0.5722210000000 1.0
C      1  0.5446910000000  0.4675430000000  0.4202120000000 1.0
C      1  0.4422350000000  0.4531080000000  0.4061300000000 1.0
C      1  0.4057840000000  0.4475080000000  0.5450110000000 1.0
C      1  0.5512570000000  0.5681700000000  0.5763110000000 1.0
C      1  0.4784390000000  0.4909120000000  0.6071370000000 1.0
C      1  0.5134370000000  0.5345530000000  0.5981640000000 1.0
C      1  0.4895840000000  0.3816450000000  0.4997740000000 1.0
C      1  0.4451700000000  0.4452740000000  0.5106620000000 1.0
C      1  0.4697620000000  0.4085350000000  0.5613750000000 1.0
C      1  0.5090030000000  0.4663170000000  0.6042630000000 1.0
C      1  0.5238530000000  0.6017760000000  0.5348390000000 1.0
C      1  0.3870140000000  0.5139700000000  0.5014210000000 1.0
C      1  0.4927440000000  0.6051910000000  0.5463520000000 1.0
C      1  0.4375400000000  0.5246900000000  0.4397350000000 1.0
C      1  0.4047020000000  0.5240650000000  0.4796150000000 1.0
C      1  0.5359230000000  0.4374860000000  0.5980870000000 1.0
C      1  0.5574340000000  0.5010520000000  0.4566490000000 1.0
C      1  0.4469190000000  0.6026740000000  0.4973660000000 1.0
C      1  0.5063510000000  0.4266210000000  0.6049720000000 1.0
C      1  0.5731910000000  0.4933460000000  0.4859070000000 1.0
C      1  0.3959450000000  0.4670210000000  0.5185910000000 1.0
C      1  0.4974520000000  0.5030900000000  0.3820280000000 1.0
C      1  0.4344440000000  0.5358280000000  0.5760930000000 1.0
C      1  0.5635820000000  0.4555240000000  0.4771600000000 1.0
C      1  0.4394090000000  0.4736020000000  0.4655640000000 1.0
C      1  0.5242850000000  0.5058100000000  0.4579860000000 1.0
C      1  0.5241770000000  0.4938240000000  0.4098080000000 1.0
C      1  0.4920180000000  0.5722820000000  0.5048240000000 1.0
C      1  0.5525180000000  0.5912250000000  0.5305000000000 1.0
C      1  0.4117450000000  0.5445620000000  0.4363930000000 1.0
C      1  0.5855720000000  0.4628490000000  0.4532000000000 1.0
C      1  0.4642800000000  0.4320750000000  0.4318510000000 1.0
C      1  0.4905990000000  0.4614000000000  0.5296950000000 1.0
C      1  0.5109260000000  0.5003500000000  0.6017160000000 1.0
C      1  0.6104250000000  0.4788030000000  0.4865280000000 1.0
C      1  0.4772690000000  0.4906090000000  0.5263150000000 1.0
C      1  0.5107210000000  0.4492710000000  0.4974370000000 1.0
C      1  0.5044700000000  0.4798840000000  0.4463910000000 1.0
C      1  0.5140960000000  0.3911900000000  0.5117400000000 1.0
C      1  0.4683510000000  0.4713980000000  0.4734640000000 1.0
C      1  0.4341940000000  0.4709590000000  0.5293160000000 1.0
C      1  0.4676730000000  0.5848030000000  0.5351850000000 1.0
C      1  0.5461300000000  0.5370220000000  0.5894370000000 1.0
C      1  0.4830830000000  0.4278160000000  0.4571670000000 1.0
C      1  0.4980600000000  0.5872460000000  0.5750120000000 1.0
C      1  0.4141180000000  0.5470770000000  0.5285840000000 1.0
C      1  0.5311970000000  0.5605370000000  0.4854050000000 1.0
C      1  0.5204930000000  0.5046220000000  0.5729430000000 1.0
C      1  0.5386790000000  0.5239350000000  0.4075290000000 1.0
C      1  0.4819560000000  0.4461460000000  0.4800940000000 1.0
C      1  0.5178760000000  0.5376860000000  0.4473590000000 1.0
C      1  0.4832200000000  0.4130930000000  0.5246290000000 1.0
C      1  0.4279610000000  0.4416680000000  0.5701660000000 1.0
C      1  0.4831320000000  0.4470980000000  0.5922540000000 1.0
C      1  0.5322220000000  0.4671760000000  0.4519010000000 1.0
C      1  0.4056280000000  0.5174290000000  0.5280250000000 1.0
C      1  0.5519790000000  0.4082470000000  0.5324530000000 1.0
C      1  0.4740720000000  0.5523750000000  0.4886450000000 1.0
C      1  0.5152830000000  0.5686090000000  0.4355980000000 1.0
C      1  0.5675610000000  0.4815080000000  0.5071130000000 1.0
C      1  0.4663500000000  0.4688790000000  0.4088240000000 1.0
C      1  0.5432800000000  0.4655910000000  0.6044750000000 1.0
C      1  0.5888910000000  0.5036070000000  0.5457260000000 1.0
C      1  0.5840730000000  0.4535710000000  0.5399220000000 1.0
C      1  0.5428500000000  0.5111050000000  0.5578370000000 1.0
C      1  0.5086030000000  0.5304350000000  0.3945650000000 1.0
C      1  0.5726710000000  0.5800930000000  0.4440350000000 1.0
C      1  0.4031820000000  0.4750080000000  0.4505480000000 1.0
C      1  0.5471560000000  0.5426540000000  0.4625020000000 1.0
C      1  0.5370220000000  0.5095800000000  0.4896340000000 1.0
C      1  0.5089320000000  0.4832880000000  0.4984170000000 1.0
C      1  0.5629210000000  0.4831440000000  0.5978100000000 1.0
C      1  0.5971290000000  0.5372300000000  0.4602770000000 1.0
C      1  0.4459180000000  0.4056560000000  0.4250640000000 1.0
C      1  0.5430780000000  0.5985150000000  0.4820160000000 1.0
C      1  0.5019340000000  0.4272450000000  0.4281470000000 1.0
C      1  0.5374860000000  0.4762530000000  0.4813410000000 1.0
C      1  0.5110890000000  0.6057320000000  0.4818750000000 1.0
C      1  0.4895490000000  0.5240620000000  0.4406060000000 1.0
C      1  0.5670780000000  0.4956330000000  0.5669580000000 1.0
C      1  0.5984060000000  0.5317940000000  0.4939120000000 1.0
C      1  0.4561200000000  0.5605270000000  0.5760430000000 1.0
C      1  0.5434760000000  0.5148690000000  0.5233330000000 1.0
C      1  0.5787820000000  0.5567350000000  0.5066270000000 1.0
C      1  0.5309490000000  0.4301840000000  0.4166280000000 1.0
C      1  0.5551430000000  0.5515470000000  0.4120160000000 1.0
C      1  0.4873190000000  0.4827110000000  0.5751120000000 1.0
C      1  0.4184560000000  0.4912440000000  0.5101610000000 1.0
C      1  0.5169470000000  0.4937420000000  0.5280970000000 1.0
C      1  0.4439900000000  0.4064510000000  0.4915510000000 1.0
C      1  0.5384220000000  0.5739510000000  0.4127350000000 1.0
C      1  0.4829230000000  0.4995820000000  0.4613700000000 1.0
C      1  0.4734210000000  0.4070910000000  0.4897580000000 1.0
C      1  0.4209520000000  0.5751950000000  0.5102640000000 1.0
C      1  0.4646160000000  0.5413590000000  0.4445690000000 1.0
C      1  0.5023250000000  0.4139160000000  0.5528640000000 1.0
C      1  0.4177410000000  0.4932690000000  0.5496040000000 1.0
C      1  0.4575280000000  0.4971380000000  0.4190980000000 1.0
C      1  0.5950870000000  0.4573000000000  0.4912940000000 1.0
C      1  0.4282090000000  0.4741050000000  0.5757140000000 1.0
C      1  0.5495440000000  0.5415500000000  0.5555920000000 1.0
C      1  0.4793690000000  0.4553830000000  0.5592380000000 1.0
C      1  0.4730780000000  0.5794170000000  0.5898340000000 1.0
C      1  0.4480810000000  0.5534670000000  0.4711320000000 1.0
C      1  0.4502870000000  0.4819670000000  0.5898260000000 1.0
C      1  0.4621590000000  0.5275110000000  0.4071780000000 1.0
C      1  0.6009800000000  0.4752150000000  0.5398340000000 1.0
C      1  0.5627940000000  0.4380090000000  0.4205970000000 1.0
C      1  0.5222680000000  0.4808020000000  0.3779740000000 1.0
C      1  0.5064320000000  0.4168720000000  0.4916770000000 1.0
C      1  0.5591740000000  0.5330880000000  0.4916010000000 1.0
C      1  0.5140190000000  0.5406280000000  0.5153660000000 1.0
C      1  0.5641870000000  0.5163920000000  0.4277560000000 1.0
C      1  0.5189370000000  0.5987790000000  0.4509510000000 1.0
C      1  0.4243470000000  0.4987240000000  0.4820450000000 1.0
C      1  0.5548340000000  0.4254540000000  0.4710140000000 1.0
C      1  0.4971650000000  0.5084050000000  0.4871480000000 1.0
C      1  0.4211970000000  0.5575040000000  0.5571960000000 1.0
C      1  0.4949760000000  0.5163120000000  0.5404660000000 1.0
C      1  0.4568420000000  0.5320790000000  0.5288380000000 1.0
C      1  0.5046700000000  0.5390980000000  0.4867070000000 1.0
C      1  0.4723780000000  0.5373260000000  0.5564700000000 1.0
C      1  0.5319950000000  0.6014530000000  0.4204250000000 1.0
C      1  0.4878080000000  0.5661240000000  0.4235860000000 1.0
C      1  0.4158700000000  0.5456040000000  0.4658330000000 1.0
C      1  0.4919650000000  0.4705950000000  0.3912250000000 1.0
C      1  0.4271050000000  0.4323760000000  0.4844520000000 1.0
C      1  0.5103350000000  0.5442060000000  0.5484220000000 1.0
C      1  0.4515330000000  0.5114160000000  0.4677360000000 1.0
C      1  0.5960210000000  0.5355130000000  0.5483760000000 1.0
C      1  0.4612940000000  0.4942950000000  0.4964980000000 1.0
C      1  0.4296700000000  0.5795680000000  0.4801950000000 1.0
C      1  0.5183220000000  0.5728560000000  0.5217020000000 1.0
C      1  0.4999110000000  0.6105920000000  0.5133240000000 1.0
C      1  0.5250690000000  0.3999400000000  0.5354720000000 1.0
C      1  0.4914140000000  0.5018340000000  0.4160380000000 1.0
C      1  0.4725300000000  0.5241170000000  0.5050510000000 1.0
C      1  0.6079650000000  0.5073130000000  0.4722900000000 1.0
C      1  0.4222480000000  0.4476910000000  0.4578840000000 1.0
C      1  0.3834930000000  0.4792720000000  0.4689640000000 1.0
C      1  0.5658090000000  0.4271440000000  0.5164200000000 1.0
C      1  0.4579880000000  0.4283020000000  0.5791770000000 1.0
C      1  0.5246190000000  0.4604110000000  0.5264890000000 1.0
C      1  0.4387810000000  0.5166590000000  0.5500450000000 1.0
C      1  0.4872800000000  0.4577920000000  0.4311430000000 1.0
C      1  0.4644800000000  0.4976870000000  0.5562160000000 1.0
C      1  0.4370010000000  0.3942370000000  0.5157960000000 1.0
C      1  0.4816180000000  0.5248240000000  0.6034510000000 1.0
C      1  0.4786560000000  0.6062950000000  0.4885920000000 1.0
C      1  0.4501950000000  0.4535370000000  0.5494370000000 1.0
C      1  0.4871980000000  0.5664220000000  0.5519620000000 1.0
C      1  0.4345850000000  0.5833300000000  0.5571940000000 1.0
C      1  0.5815910000000  0.4355990000000  0.4420560000000 1.0
C      1  0.5626240000000  0.4475210000000  0.5602350000000 1.0
C      1  0.5179850000000  0.5607140000000  0.5764940000000 1.0
C      1  0.4582650000000  0.5917260000000  0.4663030000000 1.0
C      1  0.5459060000000  0.4694640000000  0.5645460000000 1.0
END
