TITL C-2778436-5916-1460 -0.00316417894209525 125000 -648.08121517524 0 0 113 (C1) n - 1
REM
REM in /home/nfs/bkarasulu/CARBON/AIRSS/Generating-Clusters/REBO/Only-C1/SD-CG/HFTN-CG
REM
REM
REM
REM
REM
REM ./C.cell (11c1c37f851c82e70ff6c80c92926a4b)
REM
REM compiler GCC version 9.2.1 20190827 (Red Hat 9.2.1-1)
REM options -cpp -mtune=generic -march=x86-64 -g -O0 -fpre-include=/usr/include/finclude/math-vector-fortran.h
REM seed 1367530862 -1750560786 1617079297 1674007991 1452077138 2133510075 1481065730 1412747174 -837234075 -877124435 1694136030 1200041464 -95803600 -702298631 -711326228 616390940 764563654 1116653740 -537528290 2123662749 593164923 -373335648 -888661837 -1547591280 403435186 1592732247 -911522365 -391204400 -1826703447 389843584 -1085965856 -419544566 1510832029
REM
CELL 1.54180   50.00000   50.00000   50.00000   90.00000   90.00000   90.00000
LATT -1
SFAC C  
C      1  0.5204300000000  0.5143940000000  0.4160030000000 1.0
C      1  0.5198500000000  0.4221610000000  0.4971690000000 1.0
C      1  0.4745730000000  0.5313930000000  0.5307650000000 1.0
C      1  0.4734930000000  0.5814710000000  0.5113540000000 1.0
C      1  0.5999550000000  0.4605080000000  0.4869200000000 1.0
C      1  0.5686180000000  0.4682800000000  0.5646160000000 1.0
C      1  0.4692370000000  0.4912100000000  0.4656030000000 1.0
C      1  0.4663710000000  0.4983610000000  0.5312690000000 1.0
C      1  0.5507420000000  0.5889450000000  0.5579110000000 1.0
C      1  0.4124330000000  0.5208870000000  0.4538270000000 1.0
C      1  0.4937850000000  0.4723010000000  0.5182860000000 1.0
C      1  0.4878760000000  0.4112400000000  0.5013850000000 1.0
C      1  0.4742130000000  0.5300810000000  0.4406850000000 1.0
C      1  0.4920030000000  0.5890070000000  0.4840450000000 1.0
C      1  0.5643780000000  0.5711990000000  0.5379990000000 1.0
C      1  0.5371420000000  0.5584010000000  0.5796010000000 1.0
C      1  0.5345090000000  0.5161910000000  0.4433140000000 1.0
C      1  0.5340640000000  0.4176080000000  0.5242620000000 1.0
C      1  0.4358780000000  0.4498080000000  0.4550740000000 1.0
C      1  0.4880300000000  0.4453480000000  0.5022270000000 1.0
C      1  0.5409910000000  0.5586560000000  0.4464270000000 1.0
C      1  0.4531710000000  0.4767710000000  0.5213730000000 1.0
C      1  0.4990110000000  0.4986860000000  0.5383990000000 1.0
C      1  0.4660820000000  0.5636290000000  0.5667720000000 1.0
C      1  0.5320070000000  0.4252210000000  0.5578240000000 1.0
C      1  0.5510850000000  0.4444040000000  0.5284460000000 1.0
C      1  0.4485860000000  0.4975510000000  0.4177340000000 1.0
C      1  0.4775920000000  0.5409410000000  0.4711660000000 1.0
C      1  0.5161060000000  0.4686650000000  0.5961080000000 1.0
C      1  0.5008300000000  0.5041710000000  0.4654570000000 1.0
C      1  0.4277320000000  0.5404090000000  0.5518480000000 1.0
C      1  0.5678780000000  0.5027770000000  0.5229250000000 1.0
C      1  0.5395180000000  0.4382850000000  0.4745580000000 1.0
C      1  0.5058980000000  0.4246920000000  0.4579370000000 1.0
C      1  0.5785780000000  0.4524980000000  0.5120160000000 1.0
C      1  0.4466480000000  0.4745380000000  0.5663870000000 1.0
C      1  0.4878060000000  0.5755400000000  0.4539840000000 1.0
C      1  0.5215030000000  0.5864870000000  0.5275110000000 1.0
C      1  0.4726380000000  0.5244570000000  0.4972500000000 1.0
C      1  0.5061780000000  0.5581120000000  0.5668790000000 1.0
C      1  0.4854530000000  0.4389100000000  0.4705900000000 1.0
C      1  0.5249160000000  0.4860060000000  0.4095430000000 1.0
C      1  0.4777210000000  0.5059010000000  0.4254700000000 1.0
C      1  0.4474550000000  0.5023390000000  0.4512040000000 1.0
C      1  0.4781810000000  0.4592740000000  0.4150280000000 1.0
C      1  0.4986100000000  0.6281130000000  0.5169970000000 1.0
C      1  0.5202470000000  0.5865440000000  0.5576000000000 1.0
C      1  0.4273510000000  0.5067050000000  0.5306640000000 1.0
C      1  0.5029870000000  0.5378210000000  0.4140130000000 1.0
C      1  0.4452260000000  0.4267870000000  0.4695910000000 1.0
C      1  0.4865640000000  0.3946550000000  0.5274860000000 1.0
C      1  0.5764930000000  0.4746760000000  0.5340360000000 1.0
C      1  0.5004630000000  0.6006860000000  0.5129570000000 1.0
C      1  0.4573100000000  0.4220940000000  0.4933720000000 1.0
C      1  0.4976750000000  0.4314000000000  0.5386900000000 1.0
C      1  0.5304290000000  0.4434270000000  0.4441160000000 1.0
C      1  0.4327320000000  0.5249610000000  0.4300980000000 1.0
C      1  0.5407390000000  0.4724110000000  0.4343700000000 1.0
C      1  0.4902060000000  0.5427040000000  0.5889010000000 1.0
C      1  0.4956730000000  0.5032740000000  0.5048160000000 1.0
C      1  0.4519490000000  0.4566370000000  0.4298780000000 1.0
C      1  0.4669200000000  0.4594170000000  0.5754520000000 1.0
C      1  0.4737700000000  0.4625560000000  0.4545650000000 1.0
C      1  0.5839540000000  0.4655320000000  0.4597500000000 1.0
C      1  0.5127750000000  0.4011750000000  0.5438740000000 1.0
C      1  0.5398890000000  0.4908740000000  0.4633060000000 1.0
C      1  0.5018270000000  0.4715980000000  0.3997190000000 1.0
C      1  0.5712500000000  0.4811530000000  0.4407070000000 1.0
C      1  0.4140000000000  0.4958470000000  0.4719810000000 1.0
C      1  0.4531330000000  0.5650600000000  0.5166660000000 1.0
C      1  0.5682130000000  0.5114530000000  0.4440730000000 1.0
C      1  0.5243200000000  0.4445900000000  0.5753660000000 1.0
C      1  0.4528520000000  0.5507460000000  0.5448880000000 1.0
C      1  0.5291340000000  0.5385100000000  0.5275720000000 1.0
C      1  0.4378370000000  0.5739760000000  0.4689940000000 1.0
C      1  0.5441530000000  0.4800460000000  0.5467870000000 1.0
C      1  0.5669490000000  0.4460760000000  0.4806990000000 1.0
C      1  0.5767620000000  0.5474980000000  0.5483960000000 1.0
C      1  0.4134150000000  0.5086880000000  0.5015550000000 1.0
C      1  0.5643930000000  0.5195700000000  0.4761970000000 1.0
C      1  0.5033020000000  0.4588500000000  0.4375090000000 1.0
C      1  0.4588420000000  0.5644010000000  0.4526390000000 1.0
C      1  0.5581580000000  0.5379300000000  0.5714380000000 1.0
C      1  0.5181700000000  0.4538360000000  0.5294820000000 1.0
C      1  0.5049820000000  0.5587110000000  0.4779880000000 1.0
C      1  0.4972240000000  0.4900770000000  0.4376210000000 1.0
C      1  0.5177380000000  0.4981910000000  0.5893930000000 1.0
C      1  0.4420420000000  0.5269770000000  0.5075250000000 1.0
C      1  0.4515800000000  0.4429060000000  0.5179320000000 1.0
C      1  0.5029960000000  0.5406210000000  0.5403140000000 1.0
C      1  0.4615180000000  0.3993140000000  0.5426950000000 1.0
C      1  0.5095920000000  0.5560740000000  0.4385560000000 1.0
C      1  0.4326520000000  0.4923630000000  0.5519310000000 1.0
C      1  0.5613770000000  0.5433720000000  0.4546490000000 1.0
C      1  0.5487160000000  0.5197930000000  0.5417890000000 1.0
C      1  0.4688940000000  0.4286650000000  0.5386540000000 1.0
C      1  0.5534690000000  0.4961890000000  0.4942760000000 1.0
C      1  0.5864940000000  0.5278160000000  0.5315800000000 1.0
C      1  0.4126440000000  0.5343700000000  0.4817540000000 1.0
C      1  0.5156780000000  0.5323770000000  0.4627950000000 1.0
C      1  0.4520340000000  0.5497180000000  0.4249260000000 1.0
C      1  0.5456700000000  0.5089830000000  0.5742640000000 1.0
C      1  0.5417960000000  0.4739350000000  0.5142820000000 1.0
C      1  0.5163950000000  0.4844820000000  0.4853640000000 1.0
C      1  0.4254540000000  0.4700380000000  0.4732710000000 1.0
C      1  0.5162580000000  0.4556800000000  0.4897020000000 1.0
C      1  0.4322520000000  0.5566210000000  0.4940280000000 1.0
C      1  0.5402460000000  0.5649340000000  0.5209940000000 1.0
C      1  0.4977480000000  0.5203490000000  0.5977550000000 1.0
C      1  0.4779130000000  0.5440610000000  0.4035650000000 1.0
C      1  0.4927410000000  0.4527100000000  0.5818370000000 1.0
C      1  0.4339960000000  0.4644680000000  0.4995830000000 1.0
C      1  0.5200850000000  0.4962080000000  0.5566240000000 1.0
END
