TITL C-2778424-3986-8 0.00582288755411317 125000 -1087.72740413931 0 0 184 (C1) n - 1
REM
REM in /home/nfs/bkarasulu/CARBON/AIRSS/Generating-Clusters/REBO/Only-C1/SD-CG/HFTN-CG
REM
REM
REM
REM
REM
REM ./C.cell (11c1c37f851c82e70ff6c80c92926a4b)
REM
REM compiler GCC version 9.2.1 20190827 (Red Hat 9.2.1-1)
REM options -cpp -mtune=generic -march=x86-64 -g -O0 -fpre-include=/usr/include/finclude/math-vector-fortran.h
REM seed -1422867161 -851453958 923733269 1689155539 -878272484 -1641963823 -872263171 -1510703311 455476944 -2109039039 1197867734 294814393 -670352733 193548867 1122536684 -1115239602 1684794367 -1666177340 823284980 -2040796731 1047582645 -443338467 -826652253 -1079768378 1500110753 1696388024 -1608728562 1430996876 -1478176599 868937481 1229435885 -2070061244 -1478028942
REM
CELL 1.54180   50.00000   50.00000   50.00000   90.00000   90.00000   90.00000
LATT -1
SFAC C  
C      1  0.5227440000000  0.5096420000000  0.4896680000000 1.0
C      1  0.5858650000000  0.5535040000000  0.4774990000000 1.0
C      1  0.5522690000000  0.4415630000000  0.4378940000000 1.0
C      1  0.5643550000000  0.5162560000000  0.4016380000000 1.0
C      1  0.4959270000000  0.4632150000000  0.4426110000000 1.0
C      1  0.5226490000000  0.5716470000000  0.5169210000000 1.0
C      1  0.4774610000000  0.5140680000000  0.5989940000000 1.0
C      1  0.5089240000000  0.4540350000000  0.5306490000000 1.0
C      1  0.4622160000000  0.4583420000000  0.4755970000000 1.0
C      1  0.5061710000000  0.4004660000000  0.5307800000000 1.0
C      1  0.4462000000000  0.5366660000000  0.4636130000000 1.0
C      1  0.5071690000000  0.4113390000000  0.4407600000000 1.0
C      1  0.5589150000000  0.5779950000000  0.4428150000000 1.0
C      1  0.4369020000000  0.4133300000000  0.4506670000000 1.0
C      1  0.5053420000000  0.4332000000000  0.4740580000000 1.0
C      1  0.4530400000000  0.5638980000000  0.5529750000000 1.0
C      1  0.5636940000000  0.4833840000000  0.5351510000000 1.0
C      1  0.4511210000000  0.4941040000000  0.6029840000000 1.0
C      1  0.6000770000000  0.5177620000000  0.5404190000000 1.0
C      1  0.4492990000000  0.5373810000000  0.4949120000000 1.0
C      1  0.5565050000000  0.5464060000000  0.5373600000000 1.0
C      1  0.5181120000000  0.4698100000000  0.4647720000000 1.0
C      1  0.5436200000000  0.4802880000000  0.4340230000000 1.0
C      1  0.5313220000000  0.5695290000000  0.4838810000000 1.0
C      1  0.5113960000000  0.5485580000000  0.5671370000000 1.0
C      1  0.4191280000000  0.4259310000000  0.4766550000000 1.0
C      1  0.5581680000000  0.5470710000000  0.5771260000000 1.0
C      1  0.4909590000000  0.4157350000000  0.5746890000000 1.0
C      1  0.4791460000000  0.3977050000000  0.5213800000000 1.0
C      1  0.3885900000000  0.5156150000000  0.4775920000000 1.0
C      1  0.5148230000000  0.5859950000000  0.5471630000000 1.0
C      1  0.5381610000000  0.4918570000000  0.5059360000000 1.0
C      1  0.6044810000000  0.5321540000000  0.4926110000000 1.0
C      1  0.5785520000000  0.5075910000000  0.5908910000000 1.0
C      1  0.4364950000000  0.4761890000000  0.4691210000000 1.0
C      1  0.4777810000000  0.5761890000000  0.4971600000000 1.0
C      1  0.6019070000000  0.5038320000000  0.4525130000000 1.0
C      1  0.5317200000000  0.5399950000000  0.5859750000000 1.0
C      1  0.5275500000000  0.4346330000000  0.4483030000000 1.0
C      1  0.5634340000000  0.5158740000000  0.5250330000000 1.0
C      1  0.4738050000000  0.5337120000000  0.5133800000000 1.0
C      1  0.4861990000000  0.5736530000000  0.4544140000000 1.0
C      1  0.5216220000000  0.5132480000000  0.5517150000000 1.0
C      1  0.5545230000000  0.4968560000000  0.5992180000000 1.0
C      1  0.5240800000000  0.3989650000000  0.4660100000000 1.0
C      1  0.4750500000000  0.5629250000000  0.5283840000000 1.0
C      1  0.4906550000000  0.4035970000000  0.4695650000000 1.0
C      1  0.5597960000000  0.5762400000000  0.4739240000000 1.0
C      1  0.4334810000000  0.4944090000000  0.4942940000000 1.0
C      1  0.4844560000000  0.4838130000000  0.5063050000000 1.0
C      1  0.5133340000000  0.4340920000000  0.5069950000000 1.0
C      1  0.5227960000000  0.4740620000000  0.6070470000000 1.0
C      1  0.4570330000000  0.4090200000000  0.3874140000000 1.0
C      1  0.3998430000000  0.4650500000000  0.5000960000000 1.0
C      1  0.5788590000000  0.4484790000000  0.4740710000000 1.0
C      1  0.5131560000000  0.4088650000000  0.5582330000000 1.0
C      1  0.4613440000000  0.5424800000000  0.5953940000000 1.0
C      1  0.4725510000000  0.4902750000000  0.4604580000000 1.0
C      1  0.4582790000000  0.5274090000000  0.4415600000000 1.0
C      1  0.5034350000000  0.4966180000000  0.4389900000000 1.0
C      1  0.5169010000000  0.6131730000000  0.4929350000000 1.0
C      1  0.5038120000000  0.4445430000000  0.3815180000000 1.0
C      1  0.5378260000000  0.5253020000000  0.4007470000000 1.0
C      1  0.5509260000000  0.5003310000000  0.5595590000000 1.0
C      1  0.5766420000000  0.5227440000000  0.5624300000000 1.0
C      1  0.4575690000000  0.4960450000000  0.5694000000000 1.0
C      1  0.6040540000000  0.5061460000000  0.4809370000000 1.0
C      1  0.5235530000000  0.4852060000000  0.5323230000000 1.0
C      1  0.4197730000000  0.4249850000000  0.5251170000000 1.0
C      1  0.4843920000000  0.4253940000000  0.6034390000000 1.0
C      1  0.5040340000000  0.4976660000000  0.6096740000000 1.0
C      1  0.4405610000000  0.4001910000000  0.4802470000000 1.0
C      1  0.5244190000000  0.5001540000000  0.4627550000000 1.0
C      1  0.5053920000000  0.5298920000000  0.4363080000000 1.0
C      1  0.5434420000000  0.5416240000000  0.4367800000000 1.0
C      1  0.4092890000000  0.5504310000000  0.5320330000000 1.0
C      1  0.5405210000000  0.4167180000000  0.4835040000000 1.0
C      1  0.5715350000000  0.4400270000000  0.5228890000000 1.0
C      1  0.4041130000000  0.5001910000000  0.5577030000000 1.0
C      1  0.4204790000000  0.5198210000000  0.4118460000000 1.0
C      1  0.5540660000000  0.4206940000000  0.5348350000000 1.0
C      1  0.4925180000000  0.5474550000000  0.4107000000000 1.0
C      1  0.4417990000000  0.4675110000000  0.4304580000000 1.0
C      1  0.5362800000000  0.4265160000000  0.5575200000000 1.0
C      1  0.5879880000000  0.5087640000000  0.4154470000000 1.0
C      1  0.4845810000000  0.6180630000000  0.5157020000000 1.0
C      1  0.4676440000000  0.4558390000000  0.4111900000000 1.0
C      1  0.4510150000000  0.5120530000000  0.5254040000000 1.0
C      1  0.5487350000000  0.5107640000000  0.4459380000000 1.0
C      1  0.4660320000000  0.4957800000000  0.4886040000000 1.0
C      1  0.4464660000000  0.4786520000000  0.5208930000000 1.0
C      1  0.5985500000000  0.5301470000000  0.4339210000000 1.0
C      1  0.4504280000000  0.4969750000000  0.3881360000000 1.0
C      1  0.5657930000000  0.5222050000000  0.4921470000000 1.0
C      1  0.5959630000000  0.5820580000000  0.5254660000000 1.0
C      1  0.4234240000000  0.4712510000000  0.5407050000000 1.0
C      1  0.4902320000000  0.4889180000000  0.5344710000000 1.0
C      1  0.4689430000000  0.5015910000000  0.4078410000000 1.0
C      1  0.5152840000000  0.6101690000000  0.5249650000000 1.0
C      1  0.4613470000000  0.5718270000000  0.4399070000000 1.0
C      1  0.5333450000000  0.5796670000000  0.4302080000000 1.0
C      1  0.5978980000000  0.4833690000000  0.5030390000000 1.0
C      1  0.5926760000000  0.4815280000000  0.4295540000000 1.0
C      1  0.5000680000000  0.5934810000000  0.4775980000000 1.0
C      1  0.4948250000000  0.5539250000000  0.4797070000000 1.0
C      1  0.5955490000000  0.4516740000000  0.5683420000000 1.0
C      1  0.3970530000000  0.4744270000000  0.4737350000000 1.0
C      1  0.5883330000000  0.4537480000000  0.5003160000000 1.0
C      1  0.4854510000000  0.5410630000000  0.5525070000000 1.0
C      1  0.5684700000000  0.4905580000000  0.4903620000000 1.0
C      1  0.4491960000000  0.4095270000000  0.5330290000000 1.0
C      1  0.4235620000000  0.5281860000000  0.5132830000000 1.0
C      1  0.4308490000000  0.4465740000000  0.4534890000000 1.0
C      1  0.4983650000000  0.5289920000000  0.4983690000000 1.0
C      1  0.4642190000000  0.5572540000000  0.4158580000000 1.0
C      1  0.4345160000000  0.4425960000000  0.5659960000000 1.0
C      1  0.4049830000000  0.5058510000000  0.5017900000000 1.0
C      1  0.5298740000000  0.5395750000000  0.4946250000000 1.0
C      1  0.5240300000000  0.5444150000000  0.5376060000000 1.0
C      1  0.5175430000000  0.4793800000000  0.4139540000000 1.0
C      1  0.5899120000000  0.4703820000000  0.5496420000000 1.0
C      1  0.5509910000000  0.4620890000000  0.5118380000000 1.0
C      1  0.5308680000000  0.5848040000000  0.5691760000000 1.0
C      1  0.5569980000000  0.5730640000000  0.5671720000000 1.0
C      1  0.4990350000000  0.4758760000000  0.5621130000000 1.0
C      1  0.5012350000000  0.4619860000000  0.4922890000000 1.0
C      1  0.4913440000000  0.5177340000000  0.4009440000000 1.0
C      1  0.4609870000000  0.4515210000000  0.5063290000000 1.0
C      1  0.5126160000000  0.5897990000000  0.4460410000000 1.0
C      1  0.4748760000000  0.4469940000000  0.4507470000000 1.0
C      1  0.3978060000000  0.5268200000000  0.4541520000000 1.0
C      1  0.4611070000000  0.4633690000000  0.5602400000000 1.0
C      1  0.5190020000000  0.5510510000000  0.4579240000000 1.0
C      1  0.4770850000000  0.4553180000000  0.6101560000000 1.0
C      1  0.5787430000000  0.5767230000000  0.5004070000000 1.0
C      1  0.6027290000000  0.4907990000000  0.5320420000000 1.0
C      1  0.5579700000000  0.4728450000000  0.4641030000000 1.0
C      1  0.4716270000000  0.3969650000000  0.4892920000000 1.0
C      1  0.5705380000000  0.5273580000000  0.4620320000000 1.0
C      1  0.5167480000000  0.5066400000000  0.3993820000000 1.0
C      1  0.4644830000000  0.4890350000000  0.4329070000000 1.0
C      1  0.5679680000000  0.5784990000000  0.5388220000000 1.0
C      1  0.4454830000000  0.4630070000000  0.5970210000000 1.0
C      1  0.4138450000000  0.4815080000000  0.4448280000000 1.0
C      1  0.4612870000000  0.4259820000000  0.4075290000000 1.0
C      1  0.5419530000000  0.4741310000000  0.5794500000000 1.0
C      1  0.4565000000000  0.4322530000000  0.5858560000000 1.0
C      1  0.5711590000000  0.4631080000000  0.4279070000000 1.0
C      1  0.6095730000000  0.5367940000000  0.5210490000000 1.0
C      1  0.5308150000000  0.5149180000000  0.6032120000000 1.0
C      1  0.5459590000000  0.5951630000000  0.5247260000000 1.0
C      1  0.4202620000000  0.5834590000000  0.5028750000000 1.0
C      1  0.4229250000000  0.5214300000000  0.5699090000000 1.0
C      1  0.4678330000000  0.4245790000000  0.5543860000000 1.0
C      1  0.4063100000000  0.5088450000000  0.4339650000000 1.0
C      1  0.4775350000000  0.4510730000000  0.5352780000000 1.0
C      1  0.4103010000000  0.4378890000000  0.5016670000000 1.0
C      1  0.4452520000000  0.5331180000000  0.4144730000000 1.0
C      1  0.4613090000000  0.4263410000000  0.4372850000000 1.0
C      1  0.4618950000000  0.5210090000000  0.5538580000000 1.0
C      1  0.5400260000000  0.4507750000000  0.4826740000000 1.0
C      1  0.4479530000000  0.5889390000000  0.4867800000000 1.0
C      1  0.4388080000000  0.5220550000000  0.5932030000000 1.0
C      1  0.4625650000000  0.5651600000000  0.5789540000000 1.0
C      1  0.4950860000000  0.4606090000000  0.4027750000000 1.0
C      1  0.5760260000000  0.5516930000000  0.4387400000000 1.0
C      1  0.4394480000000  0.5756140000000  0.4579380000000 1.0
C      1  0.4530590000000  0.4217050000000  0.5034670000000 1.0
C      1  0.5332020000000  0.4099530000000  0.5141540000000 1.0
C      1  0.4279040000000  0.4810250000000  0.5732610000000 1.0
C      1  0.4062870000000  0.5768600000000  0.5255120000000 1.0
C      1  0.6152470000000  0.5633650000000  0.5295320000000 1.0
C      1  0.3979950000000  0.4865940000000  0.5268050000000 1.0
C      1  0.4142900000000  0.4417590000000  0.5463840000000 1.0
C      1  0.4646270000000  0.6135240000000  0.5018800000000 1.0
C      1  0.4160400000000  0.5508150000000  0.4576760000000 1.0
C      1  0.5584670000000  0.5506430000000  0.5062220000000 1.0
C      1  0.4828350000000  0.4701510000000  0.5853650000000 1.0
C      1  0.5254080000000  0.5540730000000  0.4115300000000 1.0
C      1  0.5266890000000  0.4562030000000  0.5595910000000 1.0
C      1  0.5687910000000  0.4233770000000  0.4704290000000 1.0
C      1  0.5046710000000  0.5115080000000  0.5786190000000 1.0
C      1  0.4242190000000  0.5570320000000  0.4882360000000 1.0
C      1  0.4318740000000  0.5421580000000  0.5500890000000 1.0
END
