TITL C-2778428-5639-246 -0.000235489211403907 125000 -605.295958228889 0 0 102 (C1) n - 1
REM
REM in /home/nfs/bkarasulu/CARBON/AIRSS/Generating-Clusters/REBO/Only-C1/SD-CG/HFTN-CG
REM
REM
REM
REM
REM
REM ./C.cell (11c1c37f851c82e70ff6c80c92926a4b)
REM
REM compiler GCC version 9.2.1 20190827 (Red Hat 9.2.1-1)
REM options -cpp -mtune=generic -march=x86-64 -g -O0 -fpre-include=/usr/include/finclude/math-vector-fortran.h
REM seed -1581099974 -1155903501 1458306789 -1714581728 1787485244 379699022 -1293899015 -894509494 1535286584 -1235235599 263066889 -839305541 -1161273284 -848342317 -1385998153 -1543037867 1238335404 -724688016 1242190405 -1439416243 -192881779 471074011 -599023131 1408582151 -1378015135 1828683428 -227579832 -1087181119 -156936568 1937837302 1625677283 1772926487 596678509
REM
CELL 1.54180   50.00000   50.00000   50.00000   90.00000   90.00000   90.00000
LATT -1
SFAC C  
C      1  0.5663630000000  0.4630640000000  0.4874470000000 1.0
C      1  0.5655900000000  0.5191680000000  0.5410680000000 1.0
C      1  0.5722390000000  0.4946940000000  0.5281830000000 1.0
C      1  0.4811120000000  0.5037540000000  0.5531010000000 1.0
C      1  0.5698890000000  0.4470710000000  0.4639860000000 1.0
C      1  0.3875920000000  0.4825320000000  0.5002130000000 1.0
C      1  0.5864350000000  0.4972040000000  0.4522070000000 1.0
C      1  0.4568490000000  0.5185540000000  0.5130120000000 1.0
C      1  0.4864000000000  0.4974870000000  0.4565600000000 1.0
C      1  0.5032830000000  0.4850670000000  0.5679390000000 1.0
C      1  0.4947290000000  0.5555330000000  0.4943120000000 1.0
C      1  0.5536080000000  0.5643840000000  0.5346700000000 1.0
C      1  0.4328410000000  0.5547990000000  0.4331160000000 1.0
C      1  0.4538890000000  0.4587780000000  0.5407550000000 1.0
C      1  0.5353670000000  0.4934740000000  0.5460130000000 1.0
C      1  0.4400790000000  0.4887470000000  0.5751930000000 1.0
C      1  0.4781020000000  0.5607850000000  0.5402740000000 1.0
C      1  0.5187560000000  0.5236780000000  0.5021420000000 1.0
C      1  0.5033720000000  0.4366710000000  0.5359960000000 1.0
C      1  0.5098170000000  0.5728550000000  0.5194370000000 1.0
C      1  0.4548340000000  0.4236240000000  0.5057720000000 1.0
C      1  0.5206390000000  0.5743250000000  0.4520790000000 1.0
C      1  0.5479560000000  0.4783110000000  0.4305600000000 1.0
C      1  0.4486810000000  0.5010550000000  0.4933330000000 1.0
C      1  0.4813150000000  0.5276520000000  0.4517820000000 1.0
C      1  0.5457530000000  0.5670080000000  0.4819540000000 1.0
C      1  0.4990430000000  0.5310010000000  0.4039410000000 1.0
C      1  0.4855210000000  0.5882850000000  0.4921820000000 1.0
C      1  0.5175390000000  0.5862870000000  0.4828360000000 1.0
C      1  0.5756650000000  0.5411110000000  0.4993650000000 1.0
C      1  0.4533430000000  0.4516760000000  0.5121550000000 1.0
C      1  0.4777640000000  0.4806320000000  0.4750500000000 1.0
C      1  0.4198240000000  0.5465190000000  0.5174740000000 1.0
C      1  0.5229130000000  0.5114670000000  0.4643780000000 1.0
C      1  0.4727700000000  0.4698610000000  0.4997640000000 1.0
C      1  0.4840040000000  0.5473440000000  0.4254230000000 1.0
C      1  0.4957340000000  0.4299820000000  0.5677940000000 1.0
C      1  0.5034410000000  0.5348230000000  0.4735150000000 1.0
C      1  0.5557650000000  0.4230300000000  0.4621720000000 1.0
C      1  0.5717770000000  0.5437170000000  0.5273210000000 1.0
C      1  0.5384840000000  0.5237710000000  0.5610780000000 1.0
C      1  0.5104740000000  0.5166050000000  0.5763800000000 1.0
C      1  0.4594220000000  0.5074990000000  0.5692750000000 1.0
C      1  0.4649070000000  0.4778240000000  0.4298070000000 1.0
C      1  0.4535740000000  0.5386800000000  0.4258280000000 1.0
C      1  0.5408590000000  0.4292360000000  0.5473390000000 1.0
C      1  0.4739370000000  0.4499030000000  0.4483220000000 1.0
C      1  0.5698060000000  0.4707210000000  0.5432710000000 1.0
C      1  0.4398800000000  0.5473640000000  0.5463940000000 1.0
C      1  0.5429730000000  0.3991770000000  0.5034840000000 1.0
C      1  0.5386160000000  0.5801700000000  0.5102170000000 1.0
C      1  0.5337540000000  0.5067710000000  0.4335690000000 1.0
C      1  0.4792720000000  0.5407270000000  0.5164840000000 1.0
C      1  0.5485030000000  0.4478130000000  0.5045480000000 1.0
C      1  0.5370380000000  0.4075200000000  0.4772410000000 1.0
C      1  0.4307070000000  0.5080400000000  0.4583310000000 1.0
C      1  0.5300350000000  0.4699950000000  0.5705450000000 1.0
C      1  0.4804460000000  0.4275240000000  0.4639010000000 1.0
C      1  0.4320790000000  0.4743590000000  0.5515800000000 1.0
C      1  0.4403410000000  0.5176730000000  0.5356290000000 1.0
C      1  0.4676240000000  0.5464840000000  0.5660950000000 1.0
C      1  0.4362370000000  0.4830820000000  0.4732030000000 1.0
C      1  0.5675190000000  0.5119150000000  0.4734120000000 1.0
C      1  0.4741460000000  0.4101900000000  0.5226460000000 1.0
C      1  0.4559230000000  0.5876500000000  0.5092850000000 1.0
C      1  0.4833920000000  0.5916160000000  0.5264890000000 1.0
C      1  0.4574130000000  0.4173100000000  0.4779930000000 1.0
C      1  0.4984680000000  0.4838750000000  0.4303020000000 1.0
C      1  0.4988170000000  0.4078140000000  0.5089910000000 1.0
C      1  0.4882740000000  0.5333520000000  0.5790230000000 1.0
C      1  0.5537530000000  0.5288310000000  0.4473220000000 1.0
C      1  0.5254830000000  0.4400860000000  0.5687530000000 1.0
C      1  0.5058960000000  0.4191950000000  0.4797100000000 1.0
C      1  0.4215750000000  0.4955840000000  0.5338520000000 1.0
C      1  0.5987020000000  0.5422380000000  0.4844390000000 1.0
C      1  0.4046600000000  0.5005060000000  0.5111750000000 1.0
C      1  0.4161550000000  0.5529420000000  0.4550480000000 1.0
C      1  0.5613310000000  0.4752710000000  0.5702530000000 1.0
C      1  0.4871430000000  0.4824100000000  0.5204050000000 1.0
C      1  0.5566700000000  0.4472780000000  0.5319520000000 1.0
C      1  0.5358570000000  0.5546560000000  0.5550510000000 1.0
C      1  0.5640680000000  0.4919310000000  0.4970020000000 1.0
C      1  0.5268590000000  0.4900490000000  0.4823390000000 1.0
C      1  0.4754370000000  0.4129090000000  0.5515130000000 1.0
C      1  0.5098320000000  0.5636960000000  0.5498060000000 1.0
C      1  0.4376630000000  0.5713500000000  0.5221620000000 1.0
C      1  0.4868970000000  0.4645970000000  0.5465310000000 1.0
C      1  0.5248220000000  0.4438130000000  0.4880480000000 1.0
C      1  0.4104400000000  0.5269120000000  0.4994880000000 1.0
C      1  0.5104590000000  0.5075900000000  0.4123120000000 1.0
C      1  0.5000410000000  0.5719120000000  0.4345900000000 1.0
C      1  0.4533890000000  0.5091800000000  0.4373320000000 1.0
C      1  0.5221820000000  0.4674090000000  0.4412620000000 1.0
C      1  0.5225690000000  0.4653270000000  0.4701590000000 1.0
C      1  0.4164620000000  0.5292780000000  0.4709660000000 1.0
C      1  0.4948170000000  0.5131040000000  0.5239290000000 1.0
C      1  0.5756240000000  0.4789660000000  0.4347150000000 1.0
C      1  0.4470210000000  0.4643200000000  0.4554180000000 1.0
C      1  0.5445420000000  0.5550960000000  0.4516070000000 1.0
C      1  0.5348700000000  0.4963980000000  0.5143990000000 1.0
C      1  0.5465410000000  0.5350760000000  0.4861600000000 1.0
C      1  0.5247290000000  0.4114200000000  0.5271690000000 1.0
END
