TITL C-2778431-5191-982 0.00285908946189075 125000 -584.127862362189 0 0 101 (C1) n - 1
REM
REM in /home/nfs/bkarasulu/CARBON/AIRSS/Generating-Clusters/REBO/Only-C1/SD-CG/HFTN-CG
REM
REM
REM
REM
REM
REM ./C.cell (11c1c37f851c82e70ff6c80c92926a4b)
REM
REM compiler GCC version 9.2.1 20190827 (Red Hat 9.2.1-1)
REM options -cpp -mtune=generic -march=x86-64 -g -O0 -fpre-include=/usr/include/finclude/math-vector-fortran.h
REM seed 891955114 -723630006 1374623170 791728947 919336034 -321879974 -1717849267 1986887881 2143550258 -364828758 1745320339 338155084 1450789600 239460487 688433503 2099769476 1829959272 1832154862 -1707798712 355325930 1195709950 1989307991 2007873715 2068682077 -990809244 -1376039311 -918991407 -465939080 505951162 -1887034587 -676470590 990450249 -941297336
REM
CELL 1.54180   50.00000   50.00000   50.00000   90.00000   90.00000   90.00000
LATT -1
SFAC C  
C      1  0.4577660000000  0.4963750000000  0.5227580000000 1.0
C      1  0.4442570000000  0.4756740000000  0.4625510000000 1.0
C      1  0.4619720000000  0.4159210000000  0.4597870000000 1.0
C      1  0.4633150000000  0.5608580000000  0.4665590000000 1.0
C      1  0.4569120000000  0.4536990000000  0.5492820000000 1.0
C      1  0.5626490000000  0.5523700000000  0.4975490000000 1.0
C      1  0.5069940000000  0.5174920000000  0.4713350000000 1.0
C      1  0.4730430000000  0.4657470000000  0.5217290000000 1.0
C      1  0.4315390000000  0.5583000000000  0.4627200000000 1.0
C      1  0.4786410000000  0.5561100000000  0.4384200000000 1.0
C      1  0.5290010000000  0.5109640000000  0.5789510000000 1.0
C      1  0.5724080000000  0.4554570000000  0.5301970000000 1.0
C      1  0.5267370000000  0.5203420000000  0.4100570000000 1.0
C      1  0.4194580000000  0.5522670000000  0.5098880000000 1.0
C      1  0.5532450000000  0.4353400000000  0.5480110000000 1.0
C      1  0.5072890000000  0.5627800000000  0.4366840000000 1.0
C      1  0.5627160000000  0.5436330000000  0.5276810000000 1.0
C      1  0.5065130000000  0.4836600000000  0.4676940000000 1.0
C      1  0.5245290000000  0.4518530000000  0.5546740000000 1.0
C      1  0.5184610000000  0.4703780000000  0.5168250000000 1.0
C      1  0.5574780000000  0.5285510000000  0.5574720000000 1.0
C      1  0.4756490000000  0.4529490000000  0.5755400000000 1.0
C      1  0.4231780000000  0.5127600000000  0.4834780000000 1.0
C      1  0.4999970000000  0.4144900000000  0.4908120000000 1.0
C      1  0.4290460000000  0.4984220000000  0.4580490000000 1.0
C      1  0.4272460000000  0.5048880000000  0.5147340000000 1.0
C      1  0.4380130000000  0.4583310000000  0.5040660000000 1.0
C      1  0.5429270000000  0.5742410000000  0.5112470000000 1.0
C      1  0.5800820000000  0.5351000000000  0.4779790000000 1.0
C      1  0.5296090000000  0.4228920000000  0.5281970000000 1.0
C      1  0.5602690000000  0.4485120000000  0.4688240000000 1.0
C      1  0.5344380000000  0.5294150000000  0.4554110000000 1.0
C      1  0.5410010000000  0.5325010000000  0.4858740000000 1.0
C      1  0.4561050000000  0.5656740000000  0.5461760000000 1.0
C      1  0.4630630000000  0.5763780000000  0.5210790000000 1.0
C      1  0.4664360000000  0.5046440000000  0.4788570000000 1.0
C      1  0.5211150000000  0.4115720000000  0.4727900000000 1.0
C      1  0.5289290000000  0.5801390000000  0.4805570000000 1.0
C      1  0.4894730000000  0.4565490000000  0.4635100000000 1.0
C      1  0.4951800000000  0.4854780000000  0.4072540000000 1.0
C      1  0.4539020000000  0.5342550000000  0.5439430000000 1.0
C      1  0.5307320000000  0.5438840000000  0.5701160000000 1.0
C      1  0.5123350000000  0.5509330000000  0.5220370000000 1.0
C      1  0.5882440000000  0.4729490000000  0.5075810000000 1.0
C      1  0.4648160000000  0.5358960000000  0.4240790000000 1.0
C      1  0.5740130000000  0.4990250000000  0.4471830000000 1.0
C      1  0.5036630000000  0.5285780000000  0.5413940000000 1.0
C      1  0.4674400000000  0.5068660000000  0.4511080000000 1.0
C      1  0.4815120000000  0.4242710000000  0.5580350000000 1.0
C      1  0.4896600000000  0.5834660000000  0.5171250000000 1.0
C      1  0.4173490000000  0.5306930000000  0.5281780000000 1.0
C      1  0.4491560000000  0.4846860000000  0.5727860000000 1.0
C      1  0.6009270000000  0.4946410000000  0.5003550000000 1.0
C      1  0.5417440000000  0.4231740000000  0.4585890000000 1.0
C      1  0.5214560000000  0.5044900000000  0.5402230000000 1.0
C      1  0.6004540000000  0.5195120000000  0.4896170000000 1.0
C      1  0.4986310000000  0.5380510000000  0.5712880000000 1.0
C      1  0.5198600000000  0.4932450000000  0.4169140000000 1.0
C      1  0.5499310000000  0.5121170000000  0.5290780000000 1.0
C      1  0.5424570000000  0.5633190000000  0.5447700000000 1.0
C      1  0.5055600000000  0.5664870000000  0.4945590000000 1.0
C      1  0.4241230000000  0.4748410000000  0.5230420000000 1.0
C      1  0.4176370000000  0.5439200000000  0.4811890000000 1.0
C      1  0.4897140000000  0.5466580000000  0.4755840000000 1.0
C      1  0.4970550000000  0.5282420000000  0.5020280000000 1.0
C      1  0.5626790000000  0.4461920000000  0.4344720000000 1.0
C      1  0.4752900000000  0.5140900000000  0.5769860000000 1.0
C      1  0.5221910000000  0.5815630000000  0.4538050000000 1.0
C      1  0.4666100000000  0.5467180000000  0.5724630000000 1.0
C      1  0.5197410000000  0.4890490000000  0.4962480000000 1.0
C      1  0.4790090000000  0.4823640000000  0.5894430000000 1.0
C      1  0.5554950000000  0.4750780000000  0.4480930000000 1.0
C      1  0.5524120000000  0.4960630000000  0.5655220000000 1.0
C      1  0.4955850000000  0.4485480000000  0.5410750000000 1.0
C      1  0.5361620000000  0.4490820000000  0.5146940000000 1.0
C      1  0.4632440000000  0.4278310000000  0.5301990000000 1.0
C      1  0.5383130000000  0.4278390000000  0.4280350000000 1.0
C      1  0.5087330000000  0.4965490000000  0.5896190000000 1.0
C      1  0.4305480000000  0.4702020000000  0.5508600000000 1.0
C      1  0.4637260000000  0.4743630000000  0.4900870000000 1.0
C      1  0.5019210000000  0.4809410000000  0.5444500000000 1.0
C      1  0.4391680000000  0.5185010000000  0.4366400000000 1.0
C      1  0.4080640000000  0.5314000000000  0.5540600000000 1.0
C      1  0.4559680000000  0.4344160000000  0.5039170000000 1.0
C      1  0.4521150000000  0.5277080000000  0.4933080000000 1.0
C      1  0.5182850000000  0.5828540000000  0.5325110000000 1.0
C      1  0.5355960000000  0.5105530000000  0.5016420000000 1.0
C      1  0.4498980000000  0.5609100000000  0.4980910000000 1.0
C      1  0.5630740000000  0.4529530000000  0.4973410000000 1.0
C      1  0.5244310000000  0.5404000000000  0.4297580000000 1.0
C      1  0.4758230000000  0.4309520000000  0.4804040000000 1.0
C      1  0.5119500000000  0.4355690000000  0.4208300000000 1.0
C      1  0.5662380000000  0.5234640000000  0.4564190000000 1.0
C      1  0.4743290000000  0.4925120000000  0.5512920000000 1.0
C      1  0.4668490000000  0.4776110000000  0.3961610000000 1.0
C      1  0.5070180000000  0.4101840000000  0.5178780000000 1.0
C      1  0.4757840000000  0.5223590000000  0.5250340000000 1.0
C      1  0.4705900000000  0.5038000000000  0.4176490000000 1.0
C      1  0.5270830000000  0.4835690000000  0.4430500000000 1.0
C      1  0.4935560000000  0.4477220000000  0.4371440000000 1.0
C      1  0.5534760000000  0.4691860000000  0.5547560000000 1.0
END
