TITL C-2778436-5916-741 0.000352559662492493 125000 -159.936122704467 0 0 30 (C1) n - 1
REM
REM in /home/nfs/bkarasulu/CARBON/AIRSS/Generating-Clusters/REBO/Only-C1/SD-CG/HFTN-CG
REM
REM
REM
REM
REM
REM ./C.cell (11c1c37f851c82e70ff6c80c92926a4b)
REM
REM compiler GCC version 9.2.1 20190827 (Red Hat 9.2.1-1)
REM options -cpp -mtune=generic -march=x86-64 -g -O0 -fpre-include=/usr/include/finclude/math-vector-fortran.h
REM seed 1689251424 -1087113439 1603102128 -1864898167 -942097495 144622487 316230352 -814682522 -1597287322 45785018 290843031 1580479369 352339632 1688322670 1259743515 367821007 -2044871878 917433047 432345771 1450435273 -2128502863 606459118 431610419 958091751 974882729 1889138443 -2069685699 -1375252123 -35730939 1267967532 -523792182 -340182029 1154778046
REM
CELL 1.54180   50.00000   50.00000   50.00000   90.00000   90.00000   90.00000
LATT -1
SFAC C  
C      1  0.4873150000000  0.5215740000000  0.4404650000000 1.0
C      1  0.5105670000000  0.4781680000000  0.5062760000000 1.0
C      1  0.4511350000000  0.4544970000000  0.5375280000000 1.0
C      1  0.5341070000000  0.4598130000000  0.5743100000000 1.0
C      1  0.5151790000000  0.4578960000000  0.5480930000000 1.0
C      1  0.4727930000000  0.4526990000000  0.5164690000000 1.0
C      1  0.5415090000000  0.5813660000000  0.4312550000000 1.0
C      1  0.5493490000000  0.4899990000000  0.4783010000000 1.0
C      1  0.4718380000000  0.4729110000000  0.4963570000000 1.0
C      1  0.4799900000000  0.5194400000000  0.5169950000000 1.0
C      1  0.5589950000000  0.6006590000000  0.4282830000000 1.0
C      1  0.4732740000000  0.5118970000000  0.4183070000000 1.0
C      1  0.5071170000000  0.4549600000000  0.4908820000000 1.0
C      1  0.5398850000000  0.5122640000000  0.5209740000000 1.0
C      1  0.5039060000000  0.4332930000000  0.4764910000000 1.0
C      1  0.4601130000000  0.5028270000000  0.3975390000000 1.0
C      1  0.5234780000000  0.5110750000000  0.5441580000000 1.0
C      1  0.5340160000000  0.4938000000000  0.5003500000000 1.0
C      1  0.4980560000000  0.4478030000000  0.5291090000000 1.0
C      1  0.4924350000000  0.4892360000000  0.5264920000000 1.0
C      1  0.4775180000000  0.4776720000000  0.5472160000000 1.0
C      1  0.4886640000000  0.5409240000000  0.5631020000000 1.0
C      1  0.5059710000000  0.5421570000000  0.4372950000000 1.0
C      1  0.4606810000000  0.5395800000000  0.5148780000000 1.0
C      1  0.4535330000000  0.4688730000000  0.5658930000000 1.0
C      1  0.5252970000000  0.4872250000000  0.5592880000000 1.0
C      1  0.4987070000000  0.5250990000000  0.5427560000000 1.0
C      1  0.4827000000000  0.5106670000000  0.4657930000000 1.0
C      1  0.4781310000000  0.4998690000000  0.4908700000000 1.0
C      1  0.5237400000000  0.5617610000000  0.4342750000000 1.0
END
