TITL C-2778429-3646-420 0.00201463675717877 125000 -431.127140290289 0 0 78 (C1) n - 1
REM
REM in /home/nfs/bkarasulu/CARBON/AIRSS/Generating-Clusters/REBO/Only-C1/SD-CG/HFTN-CG
REM
REM
REM
REM
REM
REM ./C.cell (11c1c37f851c82e70ff6c80c92926a4b)
REM
REM compiler GCC version 9.2.1 20190827 (Red Hat 9.2.1-1)
REM options -cpp -mtune=generic -march=x86-64 -g -O0 -fpre-include=/usr/include/finclude/math-vector-fortran.h
REM seed 2142500966 2128098823 652450375 953585665 -343999893 543449866 -224572016 -1689934694 -340130302 1250706377 1318469905 1043829539 749701165 649849846 946435259 2017986007 1272918458 1821284088 1052152123 297664290 1779800682 -209579256 -2055377620 176645718 -1261213189 -1647459418 668396670 1932385656 -1769202377 -2108824014 -998811025 -23156544 -1423825646
REM
CELL 1.54180   50.00000   50.00000   50.00000   90.00000   90.00000   90.00000
LATT -1
SFAC C  
C      1  0.5509950000000  0.5437890000000  0.4608640000000 1.0
C      1  0.5039390000000  0.4636560000000  0.5468840000000 1.0
C      1  0.4157470000000  0.5282220000000  0.4712630000000 1.0
C      1  0.4543990000000  0.4950560000000  0.5000580000000 1.0
C      1  0.4597770000000  0.4703620000000  0.5631000000000 1.0
C      1  0.5183930000000  0.5360100000000  0.4669630000000 1.0
C      1  0.4875290000000  0.5273230000000  0.4234040000000 1.0
C      1  0.5289520000000  0.5503820000000  0.5470350000000 1.0
C      1  0.5481870000000  0.5163020000000  0.4407260000000 1.0
C      1  0.4783350000000  0.4415660000000  0.4535070000000 1.0
C      1  0.4948020000000  0.5076760000000  0.5303640000000 1.0
C      1  0.4850110000000  0.4872930000000  0.4974970000000 1.0
C      1  0.5171470000000  0.4789900000000  0.4231250000000 1.0
C      1  0.5163990000000  0.5476890000000  0.5718730000000 1.0
C      1  0.4749560000000  0.4640440000000  0.4788470000000 1.0
C      1  0.5775230000000  0.5224960000000  0.4564230000000 1.0
C      1  0.4762260000000  0.4807880000000  0.4490480000000 1.0
C      1  0.4793260000000  0.5530000000000  0.4942020000000 1.0
C      1  0.4972920000000  0.5501170000000  0.4467570000000 1.0
C      1  0.5268360000000  0.4614950000000  0.4937160000000 1.0
C      1  0.4648300000000  0.4554670000000  0.5104420000000 1.0
C      1  0.4318270000000  0.4825570000000  0.4871780000000 1.0
C      1  0.5452330000000  0.5660910000000  0.5214120000000 1.0
C      1  0.5604150000000  0.5371410000000  0.4989980000000 1.0
C      1  0.4883930000000  0.5565350000000  0.5447550000000 1.0
C      1  0.4650250000000  0.5491440000000  0.5211880000000 1.0
C      1  0.5771800000000  0.4859680000000  0.5248500000000 1.0
C      1  0.5322400000000  0.4545530000000  0.5575720000000 1.0
C      1  0.4592980000000  0.5450120000000  0.5548610000000 1.0
C      1  0.4897300000000  0.5089610000000  0.4515550000000 1.0
C      1  0.5364790000000  0.5165830000000  0.4862290000000 1.0
C      1  0.4749540000000  0.5271860000000  0.4739430000000 1.0
C      1  0.5002460000000  0.4289340000000  0.4535060000000 1.0
C      1  0.5068300000000  0.5638830000000  0.4829140000000 1.0
C      1  0.4101280000000  0.5055080000000  0.4875260000000 1.0
C      1  0.4855830000000  0.4787740000000  0.5660080000000 1.0
C      1  0.5362430000000  0.4495180000000  0.5241410000000 1.0
C      1  0.5345090000000  0.4843010000000  0.4753950000000 1.0
C      1  0.5845120000000  0.5367790000000  0.4836570000000 1.0
C      1  0.4642270000000  0.4232790000000  0.5339630000000 1.0
C      1  0.4194730000000  0.5067640000000  0.5163880000000 1.0
C      1  0.5563860000000  0.4776920000000  0.4509600000000 1.0
C      1  0.4480440000000  0.5219460000000  0.5199670000000 1.0
C      1  0.4502640000000  0.4723710000000  0.5326360000000 1.0
C      1  0.5680410000000  0.4895570000000  0.4964410000000 1.0
C      1  0.5399460000000  0.5616160000000  0.4881220000000 1.0
C      1  0.5634190000000  0.5388020000000  0.5304110000000 1.0
C      1  0.4369910000000  0.4556680000000  0.4705100000000 1.0
C      1  0.4973110000000  0.5177260000000  0.4974300000000 1.0
C      1  0.5114400000000  0.4802890000000  0.5182190000000 1.0
C      1  0.4892660000000  0.5321460000000  0.5701730000000 1.0
C      1  0.4330670000000  0.5013840000000  0.4474250000000 1.0
C      1  0.4459030000000  0.4258540000000  0.5115020000000 1.0
C      1  0.5123990000000  0.5347420000000  0.5216010000000 1.0
C      1  0.5202220000000  0.5001090000000  0.4498300000000 1.0
C      1  0.5425900000000  0.4914750000000  0.5644020000000 1.0
C      1  0.5006930000000  0.5823300000000  0.4552540000000 1.0
C      1  0.4962740000000  0.5030240000000  0.5757920000000 1.0
C      1  0.4922720000000  0.4676240000000  0.4255000000000 1.0
C      1  0.4452930000000  0.5297120000000  0.4587990000000 1.0
C      1  0.4456980000000  0.4773120000000  0.4501660000000 1.0
C      1  0.5729280000000  0.4935550000000  0.4692710000000 1.0
C      1  0.5238790000000  0.4994980000000  0.5819090000000 1.0
C      1  0.5398570000000  0.4980410000000  0.5141250000000 1.0
C      1  0.4662770000000  0.5004250000000  0.5377230000000 1.0
C      1  0.5166010000000  0.4339070000000  0.4795190000000 1.0
C      1  0.4895950000000  0.4425770000000  0.5296370000000 1.0
C      1  0.4844900000000  0.4271340000000  0.4902130000000 1.0
C      1  0.4539820000000  0.5165690000000  0.5596840000000 1.0
C      1  0.5498170000000  0.5102900000000  0.5405030000000 1.0
C      1  0.5568560000000  0.4707830000000  0.5412270000000 1.0
C      1  0.4644180000000  0.5449230000000  0.4397620000000 1.0
C      1  0.4210490000000  0.4818250000000  0.5285720000000 1.0
C      1  0.5469110000000  0.4864180000000  0.4240090000000 1.0
C      1  0.4519390000000  0.4316250000000  0.4814480000000 1.0
C      1  0.5839070000000  0.5133670000000  0.5385880000000 1.0
C      1  0.5114180000000  0.5688680000000  0.5247120000000 1.0
C      1  0.5114330000000  0.4296180000000  0.5118240000000 1.0
END
