TITL C-2778422-5617-56 -0.0522401016760321 125000 -689.093042840931 0 0 118 (C1) n - 1
REM
REM in /home/nfs/bkarasulu/CARBON/AIRSS/Generating-Clusters/REBO/Only-C1/SD-CG/HFTN-CG
REM
REM
REM
REM
REM
REM ./C.cell (11c1c37f851c82e70ff6c80c92926a4b)
REM
REM compiler GCC version 9.2.1 20190827 (Red Hat 9.2.1-1)
REM options -cpp -mtune=generic -march=x86-64 -g -O0 -fpre-include=/usr/include/finclude/math-vector-fortran.h
REM seed -1973149789 -1520425488 -1550653854 -2015315145 403170251 2115492997 -1581436218 508222459 -414136374 1624180168 1395958646 -936480625 500577072 -1007148786 -211695279 -1925112565 2063926829 2047286115 1158033555 -482765737 -2075917191 -946651894 -1678577248 1707877671 -1258346506 -898080472 -2104041522 -373956202 -848438302 2036325799 1934164246 1580962478 -1109710822
REM
CELL 1.54180   50.00000   50.00000   50.00000   90.00000   90.00000   90.00000
LATT -1
SFAC C  
C      1  0.4298400000000  0.4751330000000  0.4962790000000 1.0
C      1  0.4098280000000  0.4615980000000  0.4464130000000 1.0
C      1  0.4705750000000  0.4606530000000  0.4531060000000 1.0
C      1  0.4283500000000  0.4382840000000  0.4298520000000 1.0
C      1  0.5638560000000  0.4541370000000  0.4565190000000 1.0
C      1  0.4576050000000  0.4010310000000  0.5353670000000 1.0
C      1  0.5774120000000  0.4864730000000  0.5528960000000 1.0
C      1  0.5205740000000  0.5012460000000  0.5988720000000 1.0
C      1  0.5338700000000  0.6002710000000  0.4921850000000 1.0
C      1  0.4765330000000  0.4498870000000  0.5641910000000 1.0
C      1  0.5490270000000  0.5226030000000  0.5053100000000 1.0
C      1  0.5053860000000  0.4379660000000  0.5068180000000 1.0
C      1  0.5366140000000  0.5477050000000  0.4630340000000 1.0
C      1  0.5561230000000  0.4689680000000  0.5360170000000 1.0
C      1  0.5429070000000  0.4773910000000  0.4010240000000 1.0
C      1  0.5754250000000  0.4779270000000  0.5824030000000 1.0
C      1  0.5798430000000  0.4585500000000  0.5057100000000 1.0
C      1  0.4709540000000  0.5817620000000  0.5359610000000 1.0
C      1  0.4815350000000  0.4662240000000  0.5896550000000 1.0
C      1  0.4981010000000  0.4277420000000  0.5570130000000 1.0
C      1  0.4987160000000  0.4592730000000  0.5324150000000 1.0
C      1  0.4537680000000  0.5707070000000  0.4875390000000 1.0
C      1  0.4925590000000  0.4923400000000  0.5962860000000 1.0
C      1  0.4993330000000  0.5870080000000  0.5352380000000 1.0
C      1  0.4491670000000  0.4991340000000  0.4229370000000 1.0
C      1  0.4792740000000  0.5633000000000  0.4757150000000 1.0
C      1  0.4754830000000  0.4503780000000  0.4103970000000 1.0
C      1  0.4893610000000  0.5297810000000  0.4179910000000 1.0
C      1  0.4758490000000  0.5617720000000  0.4476640000000 1.0
C      1  0.4910770000000  0.4771660000000  0.4447680000000 1.0
C      1  0.5069600000000  0.5116670000000  0.5249860000000 1.0
C      1  0.4133010000000  0.5402640000000  0.4797160000000 1.0
C      1  0.4422150000000  0.4941020000000  0.5777380000000 1.0
C      1  0.5647270000000  0.4325280000000  0.5162630000000 1.0
C      1  0.5427410000000  0.4251310000000  0.5010140000000 1.0
C      1  0.5366770000000  0.5714940000000  0.5071710000000 1.0
C      1  0.4207710000000  0.5177610000000  0.5273570000000 1.0
C      1  0.4499600000000  0.5443730000000  0.4449970000000 1.0
C      1  0.5639510000000  0.5109200000000  0.4504580000000 1.0
C      1  0.5132640000000  0.5614470000000  0.5229230000000 1.0
C      1  0.5762620000000  0.4689060000000  0.4757640000000 1.0
C      1  0.4744490000000  0.5129110000000  0.5921230000000 1.0
C      1  0.4231640000000  0.4921300000000  0.4383690000000 1.0
C      1  0.4564680000000  0.5132830000000  0.4947530000000 1.0
C      1  0.5084870000000  0.5051400000000  0.5571400000000 1.0
C      1  0.4678660000000  0.5422410000000  0.5310830000000 1.0
C      1  0.4559710000000  0.3760020000000  0.5436280000000 1.0
C      1  0.4494120000000  0.5298560000000  0.4180040000000 1.0
C      1  0.5061100000000  0.4484060000000  0.4093510000000 1.0
C      1  0.4617090000000  0.4360000000000  0.4871440000000 1.0
C      1  0.5010930000000  0.5343700000000  0.5714440000000 1.0
C      1  0.5272370000000  0.4964790000000  0.5041690000000 1.0
C      1  0.5326370000000  0.4476550000000  0.4508450000000 1.0
C      1  0.4113440000000  0.5395340000000  0.5078500000000 1.0
C      1  0.4786150000000  0.5069510000000  0.4381910000000 1.0
C      1  0.4700260000000  0.4738890000000  0.5371900000000 1.0
C      1  0.5761090000000  0.4969460000000  0.4732730000000 1.0
C      1  0.5352870000000  0.5073970000000  0.4422370000000 1.0
C      1  0.4968830000000  0.5540440000000  0.4309380000000 1.0
C      1  0.5338030000000  0.4520710000000  0.4827150000000 1.0
C      1  0.4472180000000  0.5252300000000  0.5755430000000 1.0
C      1  0.4595340000000  0.4220730000000  0.5111060000000 1.0
C      1  0.4739620000000  0.5448680000000  0.5823280000000 1.0
C      1  0.5128310000000  0.4623410000000  0.4346300000000 1.0
C      1  0.4613120000000  0.4322890000000  0.5421660000000 1.0
C      1  0.4727830000000  0.4800020000000  0.4093480000000 1.0
C      1  0.4558020000000  0.4641630000000  0.4898910000000 1.0
C      1  0.5838770000000  0.5239950000000  0.5247610000000 1.0
C      1  0.4302300000000  0.5563860000000  0.5259150000000 1.0
C      1  0.5265520000000  0.5287520000000  0.5897430000000 1.0
C      1  0.5172210000000  0.4159580000000  0.4853450000000 1.0
C      1  0.5721200000000  0.6143900000000  0.5274030000000 1.0
C      1  0.4824400000000  0.4838550000000  0.4873910000000 1.0
C      1  0.5462100000000  0.4822920000000  0.5925800000000 1.0
C      1  0.5567860000000  0.4362240000000  0.5452200000000 1.0
C      1  0.5533010000000  0.5340030000000  0.5691690000000 1.0
C      1  0.5313430000000  0.5887840000000  0.5455600000000 1.0
C      1  0.5067620000000  0.4202910000000  0.5347010000000 1.0
C      1  0.4937170000000  0.5370770000000  0.5155570000000 1.0
C      1  0.4160790000000  0.5113740000000  0.4639720000000 1.0
C      1  0.5210440000000  0.5417460000000  0.5470390000000 1.0
C      1  0.5156400000000  0.5236080000000  0.4637920000000 1.0
C      1  0.4329900000000  0.5586520000000  0.4698030000000 1.0
C      1  0.5534580000000  0.5556010000000  0.4329020000000 1.0
C      1  0.4924990000000  0.5373960000000  0.4852490000000 1.0
C      1  0.5490630000000  0.5500690000000  0.4915890000000 1.0
C      1  0.5727550000000  0.5388630000000  0.4485260000000 1.0
C      1  0.5292000000000  0.4541040000000  0.3926760000000 1.0
C      1  0.5498520000000  0.5995940000000  0.5220890000000 1.0
C      1  0.5089190000000  0.4699570000000  0.4952170000000 1.0
C      1  0.4402240000000  0.5330840000000  0.5477710000000 1.0
C      1  0.5288620000000  0.4540810000000  0.5472980000000 1.0
C      1  0.5265680000000  0.4955350000000  0.4170890000000 1.0
C      1  0.5416140000000  0.5637430000000  0.5570030000000 1.0
C      1  0.4709470000000  0.4295220000000  0.4586910000000 1.0
C      1  0.5483360000000  0.4721930000000  0.5041870000000 1.0
C      1  0.5779530000000  0.5123200000000  0.4973340000000 1.0
C      1  0.5763930000000  0.5511340000000  0.4744150000000 1.0
C      1  0.4501630000000  0.5745530000000  0.5156950000000 1.0
C      1  0.4493410000000  0.4784320000000  0.5597550000000 1.0
C      1  0.4660480000000  0.5617140000000  0.5579350000000 1.0
C      1  0.5418090000000  0.5018630000000  0.5649950000000 1.0
C      1  0.4434420000000  0.4655810000000  0.4436750000000 1.0
C      1  0.4471350000000  0.5215290000000  0.4703280000000 1.0
C      1  0.5389250000000  0.5181170000000  0.5353920000000 1.0
C      1  0.4991550000000  0.4926180000000  0.4073740000000 1.0
C      1  0.4686030000000  0.5357830000000  0.3966060000000 1.0
C      1  0.4869770000000  0.5081820000000  0.4694550000000 1.0
C      1  0.5074490000000  0.4748520000000  0.5606330000000 1.0
C      1  0.4661000000000  0.4934140000000  0.5147310000000 1.0
C      1  0.4255130000000  0.4915900000000  0.5188460000000 1.0
C      1  0.4121830000000  0.4803940000000  0.4744350000000 1.0
C      1  0.5230100000000  0.5610400000000  0.4359340000000 1.0
C      1  0.4588850000000  0.4322430000000  0.4278890000000 1.0
C      1  0.5210820000000  0.4637400000000  0.5852010000000 1.0
C      1  0.5953080000000  0.4722720000000  0.5290720000000 1.0
C      1  0.5757880000000  0.5168820000000  0.5501080000000 1.0
C      1  0.5202410000000  0.4193470000000  0.4585330000000 1.0
END
