TITL C-2778426-5645-571 0.00202369713856424 125000 -846.587600903197 0 0 148 (C1) n - 1
REM
REM in /home/nfs/bkarasulu/CARBON/AIRSS/Generating-Clusters/REBO/Only-C1/SD-CG/HFTN-CG
REM
REM
REM
REM
REM
REM ./C.cell (11c1c37f851c82e70ff6c80c92926a4b)
REM
REM compiler GCC version 9.2.1 20190827 (Red Hat 9.2.1-1)
REM options -cpp -mtune=generic -march=x86-64 -g -O0 -fpre-include=/usr/include/finclude/math-vector-fortran.h
REM seed 369881906 1765304918 -509386822 1221560429 -1652310157 -750361147 984902191 -1192515035 1955934550 -48574370 -1298353574 1919606787 583243718 -1346865553 981412336 -1944143774 -118601493 -2040086580 -1809736729 -578007887 -1473586323 1569850423 1398868732 -1683566992 -593570790 135579948 -138937200 -1450947770 -260018226 644007962 -468505365 -1376104101 -593737144
REM
CELL 1.54180   50.00000   50.00000   50.00000   90.00000   90.00000   90.00000
LATT -1
SFAC C  
C      1  0.4280770000000  0.5590260000000  0.4631200000000 1.0
C      1  0.4501910000000  0.4893690000000  0.5789400000000 1.0
C      1  0.4838540000000  0.4619520000000  0.5388720000000 1.0
C      1  0.4286590000000  0.4366440000000  0.5023820000000 1.0
C      1  0.5686960000000  0.5130500000000  0.4478160000000 1.0
C      1  0.4267510000000  0.4640700000000  0.4403040000000 1.0
C      1  0.4817050000000  0.4063640000000  0.5166680000000 1.0
C      1  0.4556850000000  0.5680350000000  0.5636140000000 1.0
C      1  0.4968830000000  0.4839730000000  0.4169780000000 1.0
C      1  0.5647920000000  0.5018570000000  0.5518240000000 1.0
C      1  0.5744630000000  0.5765600000000  0.4725240000000 1.0
C      1  0.4009840000000  0.5355380000000  0.5000410000000 1.0
C      1  0.4442730000000  0.5072510000000  0.5203310000000 1.0
C      1  0.5636560000000  0.4670070000000  0.5300300000000 1.0
C      1  0.5308680000000  0.5864270000000  0.4927860000000 1.0
C      1  0.5053380000000  0.5388220000000  0.5375570000000 1.0
C      1  0.4068650000000  0.4652720000000  0.4629310000000 1.0
C      1  0.6136760000000  0.4657240000000  0.4835440000000 1.0
C      1  0.5550600000000  0.5195880000000  0.5264210000000 1.0
C      1  0.5423850000000  0.4623610000000  0.4130030000000 1.0
C      1  0.4559260000000  0.4571030000000  0.5746440000000 1.0
C      1  0.5043200000000  0.5648520000000  0.4956760000000 1.0
C      1  0.4892600000000  0.4505860000000  0.5767830000000 1.0
C      1  0.5165810000000  0.5101270000000  0.5217080000000 1.0
C      1  0.3987630000000  0.4910520000000  0.4722510000000 1.0
C      1  0.4329770000000  0.4799520000000  0.5033810000000 1.0
C      1  0.4417250000000  0.5711880000000  0.5377760000000 1.0
C      1  0.4057360000000  0.5518050000000  0.4785610000000 1.0
C      1  0.5221130000000  0.5212890000000  0.3791490000000 1.0
C      1  0.5147330000000  0.5963710000000  0.5177420000000 1.0
C      1  0.5879720000000  0.5511680000000  0.5177040000000 1.0
C      1  0.5361470000000  0.4547620000000  0.4934880000000 1.0
C      1  0.4397350000000  0.4430270000000  0.4257650000000 1.0
C      1  0.4344230000000  0.4057800000000  0.4477190000000 1.0
C      1  0.5417590000000  0.5170100000000  0.4396990000000 1.0
C      1  0.5191070000000  0.5794710000000  0.5469650000000 1.0
C      1  0.4631350000000  0.5001440000000  0.4652740000000 1.0
C      1  0.5290820000000  0.4078200000000  0.5145940000000 1.0
C      1  0.4430770000000  0.4896690000000  0.4422310000000 1.0
C      1  0.4903250000000  0.5644250000000  0.5237840000000 1.0
C      1  0.5032220000000  0.4861350000000  0.4557370000000 1.0
C      1  0.5114250000000  0.4349890000000  0.4444340000000 1.0
C      1  0.6100830000000  0.4457000000000  0.4984390000000 1.0
C      1  0.4493150000000  0.5011460000000  0.4118980000000 1.0
C      1  0.5591170000000  0.5168730000000  0.4942100000000 1.0
C      1  0.5614300000000  0.4583970000000  0.5634450000000 1.0
C      1  0.5949570000000  0.5500970000000  0.4664050000000 1.0
C      1  0.4056550000000  0.4609180000000  0.5435970000000 1.0
C      1  0.5591560000000  0.5140690000000  0.5809630000000 1.0
C      1  0.5223260000000  0.5148440000000  0.5963260000000 1.0
C      1  0.5439580000000  0.5787270000000  0.4621760000000 1.0
C      1  0.4093850000000  0.5232910000000  0.5307820000000 1.0
C      1  0.5559430000000  0.4479810000000  0.4599850000000 1.0
C      1  0.4249030000000  0.4714150000000  0.5681380000000 1.0
C      1  0.4642500000000  0.5345180000000  0.5159570000000 1.0
C      1  0.5428610000000  0.4885440000000  0.5214450000000 1.0
C      1  0.4596080000000  0.4190480000000  0.4584260000000 1.0
C      1  0.5584560000000  0.4802830000000  0.5848640000000 1.0
C      1  0.4983990000000  0.4068300000000  0.4695050000000 1.0
C      1  0.5402630000000  0.4349170000000  0.5621790000000 1.0
C      1  0.5371390000000  0.5414230000000  0.4204030000000 1.0
C      1  0.5219890000000  0.5585230000000  0.5737150000000 1.0
C      1  0.5280750000000  0.4893950000000  0.5859420000000 1.0
C      1  0.5352690000000  0.4407430000000  0.5229620000000 1.0
C      1  0.5354430000000  0.5426680000000  0.5353080000000 1.0
C      1  0.5677190000000  0.5754480000000  0.5049530000000 1.0
C      1  0.4625900000000  0.5323850000000  0.4668150000000 1.0
C      1  0.4192930000000  0.4398380000000  0.5286750000000 1.0
C      1  0.4803290000000  0.4574400000000  0.4816930000000 1.0
C      1  0.5292020000000  0.4910390000000  0.4261490000000 1.0
C      1  0.4278980000000  0.5426630000000  0.5502280000000 1.0
C      1  0.4078010000000  0.5024990000000  0.5031110000000 1.0
C      1  0.5904690000000  0.5167760000000  0.4694680000000 1.0
C      1  0.5639860000000  0.5449560000000  0.4796000000000 1.0
C      1  0.4859150000000  0.5966110000000  0.4740110000000 1.0
C      1  0.5413300000000  0.5369770000000  0.3903090000000 1.0
C      1  0.4796750000000  0.4867960000000  0.4877360000000 1.0
C      1  0.4783500000000  0.5092440000000  0.4099370000000 1.0
C      1  0.4326050000000  0.4581590000000  0.4793440000000 1.0
C      1  0.5053500000000  0.4185010000000  0.5368580000000 1.0
C      1  0.5928110000000  0.4886160000000  0.4868340000000 1.0
C      1  0.4513630000000  0.5704170000000  0.4814670000000 1.0
C      1  0.5090630000000  0.4453580000000  0.4748260000000 1.0
C      1  0.5340100000000  0.4859230000000  0.5541870000000 1.0
C      1  0.5645480000000  0.4704970000000  0.4831860000000 1.0
C      1  0.4663410000000  0.5335640000000  0.5944890000000 1.0
C      1  0.4442470000000  0.5461700000000  0.5806150000000 1.0
C      1  0.4808550000000  0.4657050000000  0.4413920000000 1.0
C      1  0.5923970000000  0.4902630000000  0.5445810000000 1.0
C      1  0.5093590000000  0.5210160000000  0.4086390000000 1.0
C      1  0.5019690000000  0.5160030000000  0.4414820000000 1.0
C      1  0.5224230000000  0.5263250000000  0.4649740000000 1.0
C      1  0.4266720000000  0.5172870000000  0.4306980000000 1.0
C      1  0.4326690000000  0.5223540000000  0.4783680000000 1.0
C      1  0.4403700000000  0.5050430000000  0.5533560000000 1.0
C      1  0.4711730000000  0.4912140000000  0.5150420000000 1.0
C      1  0.4936530000000  0.5010510000000  0.5657150000000 1.0
C      1  0.5002000000000  0.4335740000000  0.5060900000000 1.0
C      1  0.4713680000000  0.4051920000000  0.4862420000000 1.0
C      1  0.4879130000000  0.5703380000000  0.5573760000000 1.0
C      1  0.5515190000000  0.4149770000000  0.5384480000000 1.0
C      1  0.4147410000000  0.5120110000000  0.4600100000000 1.0
C      1  0.4513100000000  0.4689890000000  0.5289080000000 1.0
C      1  0.4883720000000  0.4802250000000  0.5861400000000 1.0
C      1  0.5667050000000  0.5555910000000  0.5393490000000 1.0
C      1  0.4940280000000  0.4945100000000  0.5352790000000 1.0
C      1  0.5383540000000  0.5371180000000  0.5833840000000 1.0
C      1  0.4097770000000  0.4937030000000  0.5463130000000 1.0
C      1  0.4690520000000  0.4336410000000  0.5308230000000 1.0
C      1  0.5212190000000  0.5286530000000  0.4974510000000 1.0
C      1  0.4776670000000  0.5498490000000  0.4888290000000 1.0
C      1  0.4601900000000  0.5318910000000  0.5470900000000 1.0
C      1  0.4615890000000  0.5779590000000  0.5191590000000 1.0
C      1  0.5390080000000  0.4216230000000  0.4500400000000 1.0
C      1  0.4442940000000  0.5422940000000  0.4398700000000 1.0
C      1  0.4690540000000  0.5056820000000  0.5966940000000 1.0
C      1  0.5442810000000  0.4954620000000  0.4821240000000 1.0
C      1  0.4444190000000  0.4424330000000  0.5487510000000 1.0
C      1  0.4673920000000  0.4397180000000  0.4251810000000 1.0
C      1  0.5057070000000  0.5878550000000  0.4238480000000 1.0
C      1  0.4574510000000  0.4505960000000  0.4619630000000 1.0
C      1  0.5359400000000  0.4753450000000  0.4558560000000 1.0
C      1  0.5201040000000  0.5566510000000  0.4693700000000 1.0
C      1  0.4916890000000  0.5512270000000  0.5852460000000 1.0
C      1  0.5213960000000  0.4083800000000  0.4834090000000 1.0
C      1  0.5180040000000  0.4631170000000  0.5396750000000 1.0
C      1  0.5900610000000  0.5252220000000  0.5025630000000 1.0
C      1  0.5913270000000  0.4577180000000  0.5474340000000 1.0
C      1  0.4866920000000  0.4156510000000  0.4388060000000 1.0
C      1  0.5006910000000  0.5499120000000  0.4353610000000 1.0
C      1  0.5855200000000  0.4440410000000  0.5168410000000 1.0
C      1  0.5086260000000  0.4665820000000  0.5083890000000 1.0
C      1  0.5529810000000  0.4207060000000  0.4810410000000 1.0
C      1  0.5666750000000  0.4210380000000  0.5085840000000 1.0
C      1  0.5093560000000  0.4336130000000  0.5647500000000 1.0
C      1  0.5135580000000  0.4892190000000  0.4859100000000 1.0
C      1  0.4977750000000  0.5775230000000  0.4552810000000 1.0
C      1  0.4397720000000  0.5438070000000  0.4979620000000 1.0
C      1  0.4904090000000  0.6047300000000  0.5057560000000 1.0
C      1  0.5296870000000  0.5687630000000  0.4329090000000 1.0
C      1  0.5430740000000  0.5518180000000  0.5047990000000 1.0
C      1  0.4733870000000  0.5381620000000  0.4249750000000 1.0
C      1  0.5138740000000  0.4548820000000  0.4216960000000 1.0
C      1  0.6000270000000  0.4996070000000  0.5181000000000 1.0
C      1  0.4871530000000  0.5305020000000  0.5604910000000 1.0
C      1  0.5476680000000  0.5805180000000  0.5321690000000 1.0
C      1  0.4590780000000  0.5983170000000  0.4942090000000 1.0
C      1  0.4610500000000  0.4349660000000  0.4984970000000 1.0
END
