TITL C-2778424-3986-859 -0.00719936575665104 125000 -913.496201262546 0 0 158 (C1) n - 1
REM
REM in /home/nfs/bkarasulu/CARBON/AIRSS/Generating-Clusters/REBO/Only-C1/SD-CG/HFTN-CG
REM
REM
REM
REM
REM
REM ./C.cell (11c1c37f851c82e70ff6c80c92926a4b)
REM
REM compiler GCC version 9.2.1 20190827 (Red Hat 9.2.1-1)
REM options -cpp -mtune=generic -march=x86-64 -g -O0 -fpre-include=/usr/include/finclude/math-vector-fortran.h
REM seed 181914817 -466175861 892490322 -1675096942 1299199313 425201297 -709398948 -537891436 -323835466 -797881564 1608733582 -28876666 1159498561 -1247144379 -1098715442 -1176520637 -703684987 -1557308898 1372358037 -1475936998 -644920544 -535357443 1094964155 1568463561 1690659933 -1879639984 420646506 -956613582 384671948 626381940 892806358 -2025313524 -1745645456
REM
CELL 1.54180   50.00000   50.00000   50.00000   90.00000   90.00000   90.00000
LATT -1
SFAC C  
C      1  0.4622040000000  0.5566940000000  0.4760090000000 1.0
C      1  0.5263050000000  0.5387050000000  0.5865030000000 1.0
C      1  0.5591280000000  0.4753140000000  0.4673020000000 1.0
C      1  0.5068680000000  0.3901200000000  0.5363960000000 1.0
C      1  0.4671290000000  0.5502300000000  0.5068370000000 1.0
C      1  0.4949700000000  0.5429340000000  0.4479690000000 1.0
C      1  0.5765170000000  0.5462040000000  0.5348780000000 1.0
C      1  0.5633750000000  0.4552990000000  0.4928510000000 1.0
C      1  0.5221130000000  0.5568220000000  0.4323100000000 1.0
C      1  0.5636780000000  0.4723520000000  0.5559020000000 1.0
C      1  0.5370550000000  0.5504480000000  0.4940090000000 1.0
C      1  0.4827210000000  0.4564650000000  0.5595470000000 1.0
C      1  0.4478010000000  0.5192440000000  0.4106380000000 1.0
C      1  0.5363460000000  0.4904860000000  0.5477080000000 1.0
C      1  0.4820100000000  0.4099270000000  0.4561990000000 1.0
C      1  0.5367550000000  0.4907960000000  0.4695140000000 1.0
C      1  0.4804450000000  0.4360150000000  0.5880380000000 1.0
C      1  0.5697970000000  0.4285380000000  0.4489220000000 1.0
C      1  0.3971360000000  0.4819840000000  0.5199590000000 1.0
C      1  0.4657890000000  0.5063590000000  0.4801030000000 1.0
C      1  0.4229680000000  0.5589050000000  0.4823620000000 1.0
C      1  0.5621390000000  0.5750520000000  0.4569610000000 1.0
C      1  0.4296920000000  0.4502170000000  0.4733900000000 1.0
C      1  0.4086680000000  0.5388110000000  0.5223850000000 1.0
C      1  0.4405150000000  0.5117130000000  0.4996090000000 1.0
C      1  0.4242630000000  0.5647320000000  0.5350170000000 1.0
C      1  0.5791240000000  0.5390880000000  0.4598390000000 1.0
C      1  0.5101030000000  0.5531030000000  0.4767780000000 1.0
C      1  0.5465100000000  0.5194870000000  0.5729850000000 1.0
C      1  0.5432840000000  0.5470220000000  0.5443120000000 1.0
C      1  0.4989590000000  0.4214680000000  0.5698610000000 1.0
C      1  0.5289040000000  0.5829540000000  0.5541090000000 1.0
C      1  0.5450190000000  0.4559540000000  0.5784110000000 1.0
C      1  0.5939130000000  0.4688390000000  0.4856120000000 1.0
C      1  0.5031590000000  0.3991990000000  0.4956300000000 1.0
C      1  0.5197160000000  0.4441840000000  0.4570220000000 1.0
C      1  0.5496280000000  0.5480180000000  0.4449200000000 1.0
C      1  0.4635810000000  0.4489260000000  0.4254770000000 1.0
C      1  0.5570750000000  0.5783830000000  0.5455160000000 1.0
C      1  0.4779360000000  0.5908690000000  0.4639920000000 1.0
C      1  0.4699150000000  0.5886410000000  0.4971040000000 1.0
C      1  0.5690500000000  0.5056940000000  0.5111180000000 1.0
C      1  0.4765990000000  0.5372480000000  0.4131630000000 1.0
C      1  0.4699220000000  0.4294210000000  0.5267480000000 1.0
C      1  0.4929990000000  0.4482910000000  0.4368770000000 1.0
C      1  0.5134440000000  0.4694080000000  0.5000680000000 1.0
C      1  0.5834650000000  0.4436660000000  0.4678590000000 1.0
C      1  0.5380370000000  0.5239110000000  0.4091620000000 1.0
C      1  0.4586190000000  0.5781280000000  0.4426510000000 1.0
C      1  0.4247480000000  0.4962720000000  0.5756660000000 1.0
C      1  0.4222020000000  0.5449740000000  0.5603150000000 1.0
C      1  0.5127230000000  0.5882910000000  0.5305090000000 1.0
C      1  0.4475510000000  0.4522810000000  0.5375130000000 1.0
C      1  0.4010860000000  0.5411610000000  0.4946100000000 1.0
C      1  0.5468560000000  0.4468640000000  0.5396460000000 1.0
C      1  0.4647380000000  0.5315880000000  0.4571810000000 1.0
C      1  0.4785670000000  0.4044290000000  0.5065260000000 1.0
C      1  0.5428330000000  0.5239980000000  0.4646830000000 1.0
C      1  0.4599910000000  0.4973170000000  0.6066140000000 1.0
C      1  0.4102750000000  0.4652390000000  0.4599130000000 1.0
C      1  0.5038790000000  0.5835340000000  0.4766090000000 1.0
C      1  0.5897420000000  0.5209260000000  0.5468350000000 1.0
C      1  0.5112350000000  0.5189280000000  0.4297810000000 1.0
C      1  0.4574540000000  0.4522730000000  0.4588460000000 1.0
C      1  0.5130790000000  0.5101520000000  0.4609770000000 1.0
C      1  0.5741670000000  0.5034190000000  0.5650750000000 1.0
C      1  0.4770100000000  0.5033670000000  0.4182090000000 1.0
C      1  0.6185370000000  0.5135870000000  0.4468630000000 1.0
C      1  0.5000490000000  0.4692000000000  0.4693890000000 1.0
C      1  0.3907010000000  0.4999380000000  0.5410230000000 1.0
C      1  0.5386620000000  0.4484510000000  0.5093740000000 1.0
C      1  0.4265830000000  0.5144740000000  0.5232960000000 1.0
C      1  0.4919210000000  0.5683180000000  0.5581060000000 1.0
C      1  0.5929120000000  0.5115510000000  0.4588540000000 1.0
C      1  0.4401380000000  0.5811200000000  0.4679380000000 1.0
C      1  0.4417110000000  0.5716870000000  0.5066440000000 1.0
C      1  0.4808310000000  0.4801280000000  0.4427780000000 1.0
C      1  0.5419880000000  0.5181880000000  0.4981580000000 1.0
C      1  0.3965870000000  0.5174540000000  0.4796860000000 1.0
C      1  0.4340640000000  0.5293160000000  0.4724410000000 1.0
C      1  0.4285280000000  0.4143970000000  0.5127450000000 1.0
C      1  0.4788080000000  0.5178250000000  0.5781710000000 1.0
C      1  0.4376370000000  0.4289050000000  0.5682630000000 1.0
C      1  0.4135780000000  0.5156940000000  0.4524430000000 1.0
C      1  0.5461760000000  0.4422850000000  0.4356160000000 1.0
C      1  0.4422700000000  0.5482090000000  0.5801950000000 1.0
C      1  0.5326220000000  0.4916670000000  0.4132350000000 1.0
C      1  0.5288860000000  0.4158140000000  0.4703700000000 1.0
C      1  0.5373970000000  0.4883290000000  0.5813150000000 1.0
C      1  0.4213360000000  0.4874570000000  0.4470680000000 1.0
C      1  0.5154460000000  0.5024570000000  0.5090920000000 1.0
C      1  0.5075030000000  0.4859310000000  0.5357410000000 1.0
C      1  0.5200220000000  0.5642290000000  0.5759320000000 1.0
C      1  0.5963510000000  0.5608610000000  0.5126540000000 1.0
C      1  0.5587180000000  0.5674620000000  0.5141750000000 1.0
C      1  0.5040000000000  0.3963930000000  0.4656320000000 1.0
C      1  0.5115620000000  0.5212800000000  0.5537680000000 1.0
C      1  0.4326790000000  0.4534750000000  0.5006590000000 1.0
C      1  0.4517680000000  0.4572900000000  0.5702650000000 1.0
C      1  0.5298410000000  0.4195160000000  0.5024580000000 1.0
C      1  0.4735030000000  0.5903360000000  0.5441980000000 1.0
C      1  0.4145770000000  0.5157980000000  0.5545380000000 1.0
C      1  0.4719850000000  0.4313070000000  0.4777090000000 1.0
C      1  0.4693490000000  0.4759440000000  0.4805610000000 1.0
C      1  0.5912670000000  0.5552440000000  0.4799660000000 1.0
C      1  0.4512520000000  0.5244670000000  0.5929090000000 1.0
C      1  0.3924390000000  0.4932020000000  0.4940290000000 1.0
C      1  0.5026370000000  0.5519670000000  0.4089470000000 1.0
C      1  0.4668270000000  0.5269160000000  0.5255380000000 1.0
C      1  0.5285910000000  0.3975920000000  0.5262610000000 1.0
C      1  0.5499240000000  0.5165860000000  0.5371090000000 1.0
C      1  0.5036510000000  0.5347940000000  0.5115120000000 1.0
C      1  0.5936640000000  0.4994200000000  0.4882460000000 1.0
C      1  0.4541280000000  0.4039250000000  0.5565090000000 1.0
C      1  0.4933970000000  0.5676560000000  0.5119170000000 1.0
C      1  0.4873390000000  0.4648010000000  0.5301290000000 1.0
C      1  0.4529940000000  0.5550250000000  0.4271110000000 1.0
C      1  0.4879770000000  0.4999250000000  0.6131530000000 1.0
C      1  0.5674710000000  0.5107640000000  0.4092720000000 1.0
C      1  0.4939320000000  0.4842750000000  0.3955480000000 1.0
C      1  0.4604940000000  0.4675690000000  0.5095370000000 1.0
C      1  0.5503440000000  0.4639710000000  0.4133870000000 1.0
C      1  0.5776090000000  0.4864840000000  0.4488570000000 1.0
C      1  0.5075970000000  0.5147320000000  0.3958080000000 1.0
C      1  0.4442610000000  0.4811730000000  0.5868880000000 1.0
C      1  0.6173020000000  0.5433450000000  0.4965830000000 1.0
C      1  0.5173610000000  0.4423550000000  0.4177150000000 1.0
C      1  0.4859290000000  0.6060860000000  0.5199870000000 1.0
C      1  0.5013300000000  0.4963250000000  0.5660150000000 1.0
C      1  0.5561390000000  0.4062840000000  0.4593450000000 1.0
C      1  0.5140540000000  0.5453180000000  0.3822850000000 1.0
C      1  0.5570570000000  0.5761070000000  0.4836530000000 1.0
C      1  0.4723350000000  0.5174460000000  0.5471780000000 1.0
C      1  0.4172610000000  0.4621850000000  0.5246910000000 1.0
C      1  0.5951060000000  0.4551460000000  0.5309110000000 1.0
C      1  0.4429800000000  0.4879740000000  0.4043510000000 1.0
C      1  0.6172640000000  0.5159050000000  0.5029890000000 1.0
C      1  0.6051790000000  0.5060490000000  0.5281790000000 1.0
C      1  0.5045720000000  0.5246430000000  0.5983680000000 1.0
C      1  0.4838490000000  0.4070170000000  0.5480380000000 1.0
C      1  0.4637050000000  0.5658450000000  0.5741570000000 1.0
C      1  0.4650110000000  0.4684030000000  0.4030810000000 1.0
C      1  0.5084790000000  0.4850090000000  0.5956760000000 1.0
C      1  0.5116350000000  0.6002930000000  0.4985350000000 1.0
C      1  0.4281780000000  0.4141600000000  0.5406830000000 1.0
C      1  0.4503550000000  0.4139600000000  0.4955700000000 1.0
C      1  0.4474200000000  0.4837630000000  0.4355260000000 1.0
C      1  0.5711880000000  0.4863140000000  0.4216000000000 1.0
C      1  0.4462670000000  0.5864750000000  0.5434860000000 1.0
C      1  0.4910400000000  0.4434030000000  0.5033120000000 1.0
C      1  0.4283260000000  0.5349630000000  0.4312240000000 1.0
C      1  0.5106920000000  0.4590120000000  0.5767070000000 1.0
C      1  0.5268610000000  0.4336990000000  0.5613180000000 1.0
C      1  0.5116130000000  0.5474280000000  0.5407920000000 1.0
C      1  0.5896530000000  0.4809320000000  0.5232670000000 1.0
C      1  0.5198300000000  0.4658310000000  0.3969520000000 1.0
C      1  0.5773370000000  0.4376330000000  0.5416000000000 1.0
C      1  0.4941860000000  0.5226440000000  0.4822050000000 1.0
END
